MODEL 1
REMARK VINA RESULT:      -7.4      0.000      0.000
REMARK  Name = 
REMARK  15 active torsions:
REMARK  status: ('A' for Active; 'I' for Inactive)
REMARK    1  A    between atoms: C_1  and  O_2
REMARK    2  A    between atoms: O_2  and  C_3
REMARK    3  A    between atoms: C_4  and  C_30
REMARK    4  A    between atoms: C_10  and  O_15
REMARK    5  A    between atoms: C_12  and  O_14
REMARK    6  A    between atoms: O_15  and  C_16
REMARK    7  A    between atoms: C_18  and  O_29
REMARK    8  A    between atoms: C_19  and  O_28
REMARK    9  A    between atoms: C_21  and  O_27
REMARK   10  A    between atoms: C_23  and  C_25
REMARK   11  A    between atoms: C_25  and  O_26
REMARK   12  A    between atoms: C_32  and  O_37
REMARK   13  A    between atoms: C_33  and  O_36
REMARK   14  A    between atoms: O_37  and  S_38
REMARK   15  A    between atoms: S_38  and  O_41
REMARK                            x       y       z     vdW  Elec       q    Type
REMARK                         _______ _______ _______ _____ _____    ______ ____
ROOT
ATOM      1  C   UNL     1       7.938  -2.221  25.382  0.00  0.00    +0.211 A 
ATOM      2  C   UNL     1       7.292  -3.515  25.804  0.00  0.00    +0.238 A 
ATOM      3  O   UNL     1       7.311  -3.906  26.966  0.00  0.00    -0.283 OA
ATOM      4  C   UNL     1       6.625  -4.322  24.754  0.00  0.00    +0.110 A 
ATOM      5  C   UNL     1       6.022  -5.583  25.007  0.00  0.00    +0.142 A 
ATOM      6  C   UNL     1       5.477  -6.282  23.919  0.00  0.00    +0.092 A 
ATOM      7  C   UNL     1       5.402  -5.692  22.662  0.00  0.00    +0.124 A 
ATOM      8  C   UNL     1       5.952  -4.446  22.423  0.00  0.00    +0.092 A 
ATOM      9  C   UNL     1       6.593  -3.775  23.463  0.00  0.00    +0.147 A 
ATOM     10  O   UNL     1       7.157  -2.571  23.122  0.00  0.00    -0.451 OA
ATOM     11  C   UNL     1       7.828  -1.857  24.090  0.00  0.00    +0.181 A 
ENDROOT
BRANCH  11  12
ATOM     12  C   UNL     1       8.544  -0.676  23.562  0.00  0.00    +0.025 A 
ATOM     13  C   UNL     1       9.940  -0.559  23.595  0.00  0.00    +0.015 A 
ATOM     14  C   UNL     1      10.574   0.537  22.997  0.00  0.00    +0.050 A 
ATOM     15  C   UNL     1       9.811   1.510  22.359  0.00  0.00    +0.161 A 
ATOM     16  C   UNL     1       8.420   1.419  22.323  0.00  0.00    +0.201 A 
ATOM     17  C   UNL     1       7.789   0.341  22.950  0.00  0.00    +0.064 A 
BRANCH  15  18
ATOM     18  O   UNL     1      10.471   2.539  21.744  0.00  0.00    -0.503 OA
ATOM     19  H   UNL     1      10.004   2.726  20.911  0.00  0.00    +0.292 HD
ENDBRANCH  15  18
BRANCH  16  20
ATOM     20  O   UNL     1       7.757   2.427  21.672  0.00  0.00    -0.321 OA
BRANCH  20  21
ATOM     21  S   UNL     1       6.970   3.596  22.499  0.00  0.00    +0.251 S 
ATOM     22  O   UNL     1       7.572   3.735  23.813  0.00  0.00    -0.108 OA
ATOM     23  O   UNL     1       5.547   3.434  22.324  0.00  0.00    -0.108 OA
BRANCH  21  24
ATOM     24  O   UNL     1       7.339   4.917  21.667  0.00  0.00    -0.222 OA
ATOM     25  H   UNL     1       8.255   4.804  21.335  0.00  0.00    +0.248 HD
ENDBRANCH  21  24
ENDBRANCH  20  21
ENDBRANCH  16  20
ENDBRANCH  11  12
BRANCH   1  27
ATOM     26  C   UNL     1       7.813  -0.471  27.009  0.00  0.00    +0.277 C 
ATOM     27  O   UNL     1       8.607  -1.392  26.274  0.00  0.00    -0.488 OA
ENDBRANCH   1  27
BRANCH   7  28
ATOM     28  O   UNL     1       4.749  -6.317  21.643  0.00  0.00    -0.507 OA
ATOM     29  H   UNL     1       5.321  -6.296  20.855  0.00  0.00    +0.292 HD
ENDBRANCH   7  28
BRANCH   5  30
ATOM     30  O   UNL     1       5.946  -6.063  26.304  0.00  0.00    -0.460 OA
BRANCH  30  31
ATOM     31  C   UNL     1       4.640  -6.382  26.833  0.00  0.00    +0.339 C 
ATOM     32  O   UNL     1       3.686  -5.328  26.688  0.00  0.00    -0.331 OA
ATOM     33  C   UNL     1       3.862  -4.199  27.565  0.00  0.00    +0.179 C 
ATOM     34  C   UNL     1       3.902  -4.603  29.056  0.00  0.00    +0.177 C 
ATOM     35  C   UNL     1       4.929  -5.714  29.291  0.00  0.00    +0.180 C 
ATOM     36  C   UNL     1       4.691  -6.863  28.300  0.00  0.00    +0.214 C 
BRANCH  34  37
ATOM     37  O   UNL     1       2.608  -5.053  29.480  0.00  0.00    -0.386 OA
ATOM     38  H   UNL     1       2.737  -5.837  30.044  0.00  0.00    +0.210 HD
ENDBRANCH  34  37
BRANCH  35  39
ATOM     39  O   UNL     1       6.245  -5.160  29.261  0.00  0.00    -0.386 OA
ATOM     40  H   UNL     1       6.517  -4.887  30.158  0.00  0.00    +0.210 HD
ENDBRANCH  35  39
BRANCH  36  41
ATOM     41  O   UNL     1       5.594  -7.945  28.536  0.00  0.00    -0.383 OA
ATOM     42  H   UNL     1       6.503  -7.598  28.552  0.00  0.00    +0.210 HD
ENDBRANCH  36  41
BRANCH  33  43
ATOM     43  C   UNL     1       2.679  -3.240  27.316  0.00  0.00    +0.190 C 
BRANCH  43  44
ATOM     44  O   UNL     1       1.483  -3.940  26.969  0.00  0.00    -0.392 OA
ATOM     45  H   UNL     1       1.032  -3.432  26.276  0.00  0.00    +0.210 HD
ENDBRANCH  43  44
ENDBRANCH  33  43
ENDBRANCH  30  31
ENDBRANCH   5  30
TORSDOF 14
ENDMDL
MODEL 2
REMARK VINA RESULT:      -7.0      3.107      9.227
REMARK  Name = 
REMARK  15 active torsions:
REMARK  status: ('A' for Active; 'I' for Inactive)
REMARK    1  A    between atoms: C_1  and  O_2
REMARK    2  A    between atoms: O_2  and  C_3
REMARK    3  A    between atoms: C_4  and  C_30
REMARK    4  A    between atoms: C_10  and  O_15
REMARK    5  A    between atoms: C_12  and  O_14
REMARK    6  A    between atoms: O_15  and  C_16
REMARK    7  A    between atoms: C_18  and  O_29
REMARK    8  A    between atoms: C_19  and  O_28
REMARK    9  A    between atoms: C_21  and  O_27
REMARK   10  A    between atoms: C_23  and  C_25
REMARK   11  A    between atoms: C_25  and  O_26
REMARK   12  A    between atoms: C_32  and  O_37
REMARK   13  A    between atoms: C_33  and  O_36
REMARK   14  A    between atoms: O_37  and  S_38
REMARK   15  A    between atoms: S_38  and  O_41
REMARK                            x       y       z     vdW  Elec       q    Type
REMARK                         _______ _______ _______ _____ _____    ______ ____
ROOT
ATOM      1  C   UNL     1       5.301  -1.789  24.943  0.00  0.00    +0.211 A 
ATOM      2  C   UNL     1       6.015  -0.521  24.558  0.00  0.00    +0.238 A 
ATOM      3  O   UNL     1       5.616   0.585  24.907  0.00  0.00    -0.283 OA
ATOM      4  C   UNL     1       7.234  -0.647  23.725  0.00  0.00    +0.110 A 
ATOM      5  C   UNL     1       7.973   0.470  23.251  0.00  0.00    +0.142 A 
ATOM      6  C   UNL     1       9.075   0.225  22.417  0.00  0.00    +0.092 A 
ATOM      7  C   UNL     1       9.512  -1.073  22.183  0.00  0.00    +0.124 A 
ATOM      8  C   UNL     1       8.818  -2.162  22.677  0.00  0.00    +0.092 A 
ATOM      9  C   UNL     1       7.660  -1.948  23.421  0.00  0.00    +0.147 A 
ATOM     10  O   UNL     1       7.005  -3.086  23.824  0.00  0.00    -0.451 OA
ATOM     11  C   UNL     1       5.839  -2.958  24.546  0.00  0.00    +0.181 A 
ENDROOT
BRANCH  11  12
ATOM     12  C   UNL     1       5.136  -4.241  24.762  0.00  0.00    +0.025 A 
ATOM     13  C   UNL     1       4.139  -4.713  23.896  0.00  0.00    +0.015 A 
ATOM     14  C   UNL     1       3.570  -5.977  24.093  0.00  0.00    +0.050 A 
ATOM     15  C   UNL     1       4.005  -6.771  25.150  0.00  0.00    +0.161 A 
ATOM     16  C   UNL     1       4.988  -6.317  26.029  0.00  0.00    +0.201 A 
ATOM     17  C   UNL     1       5.529  -5.041  25.849  0.00  0.00    +0.064 A 
BRANCH  15  18
ATOM     18  O   UNL     1       3.460  -8.019  25.278  0.00  0.00    -0.503 OA
ATOM     19  H   UNL     1       3.069  -8.076  26.168  0.00  0.00    +0.292 HD
ENDBRANCH  15  18
BRANCH  16  20
ATOM     20  O   UNL     1       5.347  -7.171  27.039  0.00  0.00    -0.321 OA
BRANCH  20  21
ATOM     21  S   UNL     1       5.221  -6.729  28.607  0.00  0.00    +0.251 S 
ATOM     22  O   UNL     1       4.774  -5.350  28.678  0.00  0.00    -0.108 OA
ATOM     23  O   UNL     1       6.378  -7.195  29.334  0.00  0.00    -0.108 OA
BRANCH  21  24
ATOM     24  O   UNL     1       4.011  -7.646  29.129  0.00  0.00    -0.222 OA
ATOM     25  H   UNL     1       3.936  -8.405  28.512  0.00  0.00    +0.248 HD
ENDBRANCH  21  24
ENDBRANCH  20  21
ENDBRANCH  16  20
ENDBRANCH  11  12
BRANCH   1  27
ATOM     26  C   UNL     1       4.297  -1.666  27.112  0.00  0.00    +0.277 C 
ATOM     27  O   UNL     1       4.138  -1.794  25.705  0.00  0.00    -0.488 OA
ENDBRANCH   1  27
BRANCH   7  28
ATOM     28  O   UNL     1      10.662  -1.301  21.487  0.00  0.00    -0.507 OA
ATOM     29  H   UNL     1      11.413  -1.007  22.033  0.00  0.00    +0.292 HD
ENDBRANCH   7  28
BRANCH   5  30
ATOM     30  O   UNL     1       7.624   1.749  23.654  0.00  0.00    -0.460 OA
BRANCH  30  31
ATOM     31  C   UNL     1       7.373   2.737  22.631  0.00  0.00    +0.339 C 
ATOM     32  O   UNL     1       8.298   3.826  22.641  0.00  0.00    -0.331 OA
ATOM     33  C   UNL     1       8.140   4.772  23.716  0.00  0.00    +0.179 C 
ATOM     34  C   UNL     1       6.712   5.359  23.788  0.00  0.00    +0.177 C 
ATOM     35  C   UNL     1       5.665   4.242  23.809  0.00  0.00    +0.180 C 
ATOM     36  C   UNL     1       5.921   3.264  22.653  0.00  0.00    +0.214 C 
BRANCH  34  37
ATOM     37  O   UNL     1       6.472   6.214  22.661  0.00  0.00    -0.386 OA
ATOM     38  H   UNL     1       6.795   5.755  21.866  0.00  0.00    +0.210 HD
ENDBRANCH  34  37
BRANCH  35  39
ATOM     39  O   UNL     1       5.634   3.642  25.105  0.00  0.00    -0.386 OA
ATOM     40  H   UNL     1       4.764   3.231  25.266  0.00  0.00    +0.210 HD
ENDBRANCH  35  39
BRANCH  36  41
ATOM     41  O   UNL     1       4.921   2.243  22.607  0.00  0.00    -0.383 OA
ATOM     42  H   UNL     1       5.255   1.500  22.076  0.00  0.00    +0.210 HD
ENDBRANCH  36  41
BRANCH  33  43
ATOM     43  C   UNL     1       9.158   5.906  23.479  0.00  0.00    +0.190 C 
BRANCH  43  44
ATOM     44  O   UNL     1      10.474   5.405  23.234  0.00  0.00    -0.392 OA
ATOM     45  H   UNL     1      10.894   5.983  22.578  0.00  0.00    +0.210 HD
ENDBRANCH  43  44
ENDBRANCH  33  43
ENDBRANCH  30  31
ENDBRANCH   5  30
TORSDOF 14
ENDMDL
MODEL 3
REMARK VINA RESULT:      -7.0      3.126      9.038
REMARK  Name = 
REMARK  15 active torsions:
REMARK  status: ('A' for Active; 'I' for Inactive)
REMARK    1  A    between atoms: C_1  and  O_2
REMARK    2  A    between atoms: O_2  and  C_3
REMARK    3  A    between atoms: C_4  and  C_30
REMARK    4  A    between atoms: C_10  and  O_15
REMARK    5  A    between atoms: C_12  and  O_14
REMARK    6  A    between atoms: O_15  and  C_16
REMARK    7  A    between atoms: C_18  and  O_29
REMARK    8  A    between atoms: C_19  and  O_28
REMARK    9  A    between atoms: C_21  and  O_27
REMARK   10  A    between atoms: C_23  and  C_25
REMARK   11  A    between atoms: C_25  and  O_26
REMARK   12  A    between atoms: C_32  and  O_37
REMARK   13  A    between atoms: C_33  and  O_36
REMARK   14  A    between atoms: O_37  and  S_38
REMARK   15  A    between atoms: S_38  and  O_41
REMARK                            x       y       z     vdW  Elec       q    Type
REMARK                         _______ _______ _______ _____ _____    ______ ____
ROOT
ATOM      1  C   UNL     1       5.573  -1.728  24.783  0.00  0.00    +0.211 A 
ATOM      2  C   UNL     1       6.338  -0.501  24.360  0.00  0.00    +0.238 A 
ATOM      3  O   UNL     1       5.944   0.632  24.612  0.00  0.00    -0.283 OA
ATOM      4  C   UNL     1       7.599  -0.705  23.608  0.00  0.00    +0.110 A 
ATOM      5  C   UNL     1       8.389   0.363  23.107  0.00  0.00    +0.142 A 
ATOM      6  C   UNL     1       9.530   0.043  22.356  0.00  0.00    +0.092 A 
ATOM      7  C   UNL     1       9.950  -1.276  22.232  0.00  0.00    +0.124 A 
ATOM      8  C   UNL     1       9.204  -2.316  22.754  0.00  0.00    +0.092 A 
ATOM      9  C   UNL     1       8.011  -2.032  23.414  0.00  0.00    +0.147 A 
ATOM     10  O   UNL     1       7.309  -3.128  23.851  0.00  0.00    -0.451 OA
ATOM     11  C   UNL     1       6.107  -2.930  24.494  0.00  0.00    +0.181 A 
ENDROOT
BRANCH  11  12
ATOM     12  C   UNL     1       5.363  -4.182  24.751  0.00  0.00    +0.025 A 
ATOM     13  C   UNL     1       4.320  -4.626  23.927  0.00  0.00    +0.015 A 
ATOM     14  C   UNL     1       3.710  -5.865  24.160  0.00  0.00    +0.050 A 
ATOM     15  C   UNL     1       4.151  -6.662  25.212  0.00  0.00    +0.161 A 
ATOM     16  C   UNL     1       5.181  -6.236  26.051  0.00  0.00    +0.201 A 
ATOM     17  C   UNL     1       5.763  -4.984  25.836  0.00  0.00    +0.064 A 
BRANCH  15  18
ATOM     18  O   UNL     1       3.564  -7.887  25.375  0.00  0.00    -0.503 OA
ATOM     19  H   UNL     1       2.780  -7.761  25.940  0.00  0.00    +0.292 HD
ENDBRANCH  15  18
BRANCH  16  20
ATOM     20  O   UNL     1       5.542  -7.091  27.059  0.00  0.00    -0.321 OA
BRANCH  20  21
ATOM     21  S   UNL     1       5.280  -6.711  28.627  0.00  0.00    +0.251 S 
ATOM     22  O   UNL     1       4.854  -5.326  28.715  0.00  0.00    -0.108 OA
ATOM     23  O   UNL     1       6.356  -7.232  29.435  0.00  0.00    -0.108 OA
BRANCH  21  24
ATOM     24  O   UNL     1       4.011  -7.621  28.996  0.00  0.00    -0.222 OA
ATOM     25  H   UNL     1       4.350  -8.421  29.452  0.00  0.00    +0.248 HD
ENDBRANCH  21  24
ENDBRANCH  20  21
ENDBRANCH  16  20
ENDBRANCH  11  12
BRANCH   1  27
ATOM     26  C   UNL     1       4.451  -1.453  26.879  0.00  0.00    +0.277 C 
ATOM     27  O   UNL     1       4.370  -1.660  25.475  0.00  0.00    -0.488 OA
ENDBRANCH   1  27
BRANCH   7  28
ATOM     28  O   UNL     1      11.132  -1.571  21.620  0.00  0.00    -0.507 OA
ATOM     29  H   UNL     1      11.517  -0.742  21.284  0.00  0.00    +0.292 HD
ENDBRANCH   7  28
BRANCH   5  30
ATOM     30  O   UNL     1       8.047   1.673  23.405  0.00  0.00    -0.460 OA
BRANCH  30  31
ATOM     31  C   UNL     1       8.812   2.358  24.420  0.00  0.00    +0.339 C 
ATOM     32  O   UNL     1       8.036   2.772  25.547  0.00  0.00    -0.331 OA
ATOM     33  C   UNL     1       7.160   3.894  25.326  0.00  0.00    +0.179 C 
ATOM     34  C   UNL     1       7.905   5.133  24.779  0.00  0.00    +0.177 C 
ATOM     35  C   UNL     1       8.738   4.768  23.548  0.00  0.00    +0.180 C 
ATOM     36  C   UNL     1       9.620   3.549  23.857  0.00  0.00    +0.214 C 
BRANCH  34  37
ATOM     37  O   UNL     1       8.763   5.679  25.790  0.00  0.00    -0.386 OA
ATOM     38  H   UNL     1       9.425   5.001  26.015  0.00  0.00    +0.210 HD
ENDBRANCH  34  37
BRANCH  35  39
ATOM     39  O   UNL     1       7.877   4.614  22.419  0.00  0.00    -0.386 OA
ATOM     40  H   UNL     1       7.400   3.764  22.471  0.00  0.00    +0.210 HD
ENDBRANCH  35  39
BRANCH  36  41
ATOM     41  O   UNL     1      10.458   3.222  22.746  0.00  0.00    -0.383 OA
ATOM     42  H   UNL     1       9.920   2.784  22.064  0.00  0.00    +0.210 HD
ENDBRANCH  36  41
BRANCH  33  43
ATOM     43  C   UNL     1       6.505   4.235  26.680  0.00  0.00    +0.190 C 
BRANCH  43  44
ATOM     44  O   UNL     1       7.446   4.202  27.756  0.00  0.00    -0.392 OA
ATOM     45  H   UNL     1       7.445   3.304  28.124  0.00  0.00    +0.210 HD
ENDBRANCH  43  44
ENDBRANCH  33  43
ENDBRANCH  30  31
ENDBRANCH   5  30
TORSDOF 14
ENDMDL
MODEL 4
REMARK VINA RESULT:      -6.9      2.929      9.186
REMARK  Name = 
REMARK  15 active torsions:
REMARK  status: ('A' for Active; 'I' for Inactive)
REMARK    1  A    between atoms: C_1  and  O_2
REMARK    2  A    between atoms: O_2  and  C_3
REMARK    3  A    between atoms: C_4  and  C_30
REMARK    4  A    between atoms: C_10  and  O_15
REMARK    5  A    between atoms: C_12  and  O_14
REMARK    6  A    between atoms: O_15  and  C_16
REMARK    7  A    between atoms: C_18  and  O_29
REMARK    8  A    between atoms: C_19  and  O_28
REMARK    9  A    between atoms: C_21  and  O_27
REMARK   10  A    between atoms: C_23  and  C_25
REMARK   11  A    between atoms: C_25  and  O_26
REMARK   12  A    between atoms: C_32  and  O_37
REMARK   13  A    between atoms: C_33  and  O_36
REMARK   14  A    between atoms: O_37  and  S_38
REMARK   15  A    between atoms: S_38  and  O_41
REMARK                            x       y       z     vdW  Elec       q    Type
REMARK                         _______ _______ _______ _____ _____    ______ ____
ROOT
ATOM      1  C   UNL     1       5.681  -1.855  25.502  0.00  0.00    +0.211 A 
ATOM      2  C   UNL     1       6.087  -0.688  24.641  0.00  0.00    +0.238 A 
ATOM      3  O   UNL     1       5.462   0.366  24.633  0.00  0.00    -0.283 OA
ATOM      4  C   UNL     1       7.284  -0.854  23.782  0.00  0.00    +0.110 A 
ATOM      5  C   UNL     1       7.745   0.147  22.887  0.00  0.00    +0.142 A 
ATOM      6  C   UNL     1       8.853  -0.151  22.079  0.00  0.00    +0.092 A 
ATOM      7  C   UNL     1       9.561  -1.334  22.255  0.00  0.00    +0.124 A 
ATOM      8  C   UNL     1       9.138  -2.294  23.156  0.00  0.00    +0.092 A 
ATOM      9  C   UNL     1       7.979  -2.067  23.895  0.00  0.00    +0.147 A 
ATOM     10  O   UNL     1       7.602  -3.096  24.723  0.00  0.00    -0.451 OA
ATOM     11  C   UNL     1       6.455  -2.957  25.471  0.00  0.00    +0.181 A 
ENDROOT
BRANCH  11  12
ATOM     12  C   UNL     1       6.058  -4.194  26.178  0.00  0.00    +0.025 A 
ATOM     13  C   UNL     1       6.742  -4.676  27.302  0.00  0.00    +0.015 A 
ATOM     14  C   UNL     1       6.269  -5.801  27.991  0.00  0.00    +0.050 A 
ATOM     15  C   UNL     1       5.108  -6.435  27.559  0.00  0.00    +0.161 A 
ATOM     16  C   UNL     1       4.418  -5.977  26.437  0.00  0.00    +0.201 A 
ATOM     17  C   UNL     1       4.911  -4.876  25.732  0.00  0.00    +0.064 A 
BRANCH  15  18
ATOM     18  O   UNL     1       4.652  -7.499  28.288  0.00  0.00    -0.503 OA
ATOM     19  H   UNL     1       3.679  -7.468  28.269  0.00  0.00    +0.292 HD
ENDBRANCH  15  18
BRANCH  16  20
ATOM     20  O   UNL     1       3.286  -6.670  26.090  0.00  0.00    -0.321 OA
BRANCH  20  21
ATOM     21  S   UNL     1       3.132  -7.356  24.615  0.00  0.00    +0.251 S 
ATOM     22  O   UNL     1       2.507  -6.406  23.712  0.00  0.00    -0.108 OA
ATOM     23  O   UNL     1       2.644  -8.706  24.761  0.00  0.00    -0.108 OA
BRANCH  21  24
ATOM     24  O   UNL     1       4.659  -7.519  24.148  0.00  0.00    -0.222 OA
ATOM     25  H   UNL     1       4.813  -6.871  23.428  0.00  0.00    +0.248 HD
ENDBRANCH  21  24
ENDBRANCH  20  21
ENDBRANCH  16  20
ENDBRANCH  11  12
BRANCH   1  27
ATOM     26  C   UNL     1       4.738  -1.215  27.606  0.00  0.00    +0.277 C 
ATOM     27  O   UNL     1       4.567  -1.822  26.333  0.00  0.00    -0.488 OA
ENDBRANCH   1  27
BRANCH   7  28
ATOM     28  O   UNL     1      10.715  -1.558  21.566  0.00  0.00    -0.507 OA
ATOM     29  H   UNL     1      10.549  -1.377  20.624  0.00  0.00    +0.292 HD
ENDBRANCH   7  28
BRANCH   5  30
ATOM     30  O   UNL     1       7.132   1.390  22.866  0.00  0.00    -0.460 OA
BRANCH  30  31
ATOM     31  C   UNL     1       7.762   2.444  22.107  0.00  0.00    +0.339 C 
ATOM     32  O   UNL     1       9.142   2.638  22.425  0.00  0.00    -0.331 OA
ATOM     33  C   UNL     1       9.411   3.271  23.691  0.00  0.00    +0.179 C 
ATOM     34  C   UNL     1       8.691   4.630  23.843  0.00  0.00    +0.177 C 
ATOM     35  C   UNL     1       7.196   4.491  23.544  0.00  0.00    +0.180 C 
ATOM     36  C   UNL     1       6.997   3.783  22.195  0.00  0.00    +0.214 C 
BRANCH  34  37
ATOM     37  O   UNL     1       9.267   5.595  22.952  0.00  0.00    -0.386 OA
ATOM     38  H   UNL     1       8.546   6.160  22.620  0.00  0.00    +0.210 HD
ENDBRANCH  34  37
BRANCH  35  39
ATOM     39  O   UNL     1       6.545   3.865  24.650  0.00  0.00    -0.386 OA
ATOM     40  H   UNL     1       5.636   4.206  24.744  0.00  0.00    +0.210 HD
ENDBRANCH  35  39
BRANCH  36  41
ATOM     41  O   UNL     1       5.611   3.695  21.856  0.00  0.00    -0.383 OA
ATOM     42  H   UNL     1       5.525   3.248  20.996  0.00  0.00    +0.210 HD
ENDBRANCH  36  41
BRANCH  33  43
ATOM     43  C   UNL     1      10.937   3.475  23.785  0.00  0.00    +0.190 C 
BRANCH  43  44
ATOM     44  O   UNL     1      11.476   4.054  22.595  0.00  0.00    -0.392 OA
ATOM     45  H   UNL     1      12.413   3.808  22.543  0.00  0.00    +0.210 HD
ENDBRANCH  43  44
ENDBRANCH  33  43
ENDBRANCH  30  31
ENDBRANCH   5  30
TORSDOF 14
ENDMDL
MODEL 5
REMARK VINA RESULT:      -6.9      1.670      1.962
REMARK  Name = 
REMARK  15 active torsions:
REMARK  status: ('A' for Active; 'I' for Inactive)
REMARK    1  A    between atoms: C_1  and  O_2
REMARK    2  A    between atoms: O_2  and  C_3
REMARK    3  A    between atoms: C_4  and  C_30
REMARK    4  A    between atoms: C_10  and  O_15
REMARK    5  A    between atoms: C_12  and  O_14
REMARK    6  A    between atoms: O_15  and  C_16
REMARK    7  A    between atoms: C_18  and  O_29
REMARK    8  A    between atoms: C_19  and  O_28
REMARK    9  A    between atoms: C_21  and  O_27
REMARK   10  A    between atoms: C_23  and  C_25
REMARK   11  A    between atoms: C_25  and  O_26
REMARK   12  A    between atoms: C_32  and  O_37
REMARK   13  A    between atoms: C_33  and  O_36
REMARK   14  A    between atoms: O_37  and  S_38
REMARK   15  A    between atoms: S_38  and  O_41
REMARK                            x       y       z     vdW  Elec       q    Type
REMARK                         _______ _______ _______ _____ _____    ______ ____
ROOT
ATOM      1  C   UNL     1       7.098  -0.925  25.377  0.00  0.00    +0.211 A 
ATOM      2  C   UNL     1       6.372  -2.227  25.589  0.00  0.00    +0.238 A 
ATOM      3  O   UNL     1       5.703  -2.445  26.594  0.00  0.00    -0.283 OA
ATOM      4  C   UNL     1       6.496  -3.261  24.534  0.00  0.00    +0.110 A 
ATOM      5  C   UNL     1       5.904  -4.548  24.632  0.00  0.00    +0.142 A 
ATOM      6  C   UNL     1       6.145  -5.464  23.597  0.00  0.00    +0.092 A 
ATOM      7  C   UNL     1       6.819  -5.072  22.446  0.00  0.00    +0.124 A 
ATOM      8  C   UNL     1       7.361  -3.805  22.331  0.00  0.00    +0.092 A 
ATOM      9  C   UNL     1       7.227  -2.911  23.390  0.00  0.00    +0.147 A 
ATOM     10  O   UNL     1       7.843  -1.696  23.211  0.00  0.00    -0.451 OA
ATOM     11  C   UNL     1       7.774  -0.764  24.223  0.00  0.00    +0.181 A 
ENDROOT
BRANCH  11  12
ATOM     12  C   UNL     1       8.624   0.423  23.990  0.00  0.00    +0.025 A 
ATOM     13  C   UNL     1       9.950   0.505  24.437  0.00  0.00    +0.015 A 
ATOM     14  C   UNL     1      10.741   1.613  24.109  0.00  0.00    +0.050 A 
ATOM     15  C   UNL     1      10.208   2.632  23.325  0.00  0.00    +0.161 A 
ATOM     16  C   UNL     1       8.888   2.575  22.877  0.00  0.00    +0.201 A 
ATOM     17  C   UNL     1       8.092   1.484  23.235  0.00  0.00    +0.064 A 
BRANCH  15  18
ATOM     18  O   UNL     1      11.029   3.672  22.984  0.00  0.00    -0.503 OA
ATOM     19  H   UNL     1      11.934   3.318  22.918  0.00  0.00    +0.292 HD
ENDBRANCH  15  18
BRANCH  16  20
ATOM     20  O   UNL     1       8.456   3.628  22.113  0.00  0.00    -0.321 OA
BRANCH  20  21
ATOM     21  S   UNL     1       7.718   4.919  22.790  0.00  0.00    +0.251 S 
ATOM     22  O   UNL     1       8.555   5.439  23.856  0.00  0.00    -0.108 OA
ATOM     23  O   UNL     1       6.320   4.624  22.991  0.00  0.00    -0.108 OA
BRANCH  21  24
ATOM     24  O   UNL     1       7.744   5.995  21.599  0.00  0.00    -0.222 OA
ATOM     25  H   UNL     1       7.418   6.844  21.969  0.00  0.00    +0.248 HD
ENDBRANCH  21  24
ENDBRANCH  20  21
ENDBRANCH  16  20
ENDBRANCH  11  12
BRANCH   1  27
ATOM     26  C   UNL     1       5.906   0.923  26.319  0.00  0.00    +0.277 C 
ATOM     27  O   UNL     1       7.071   0.110  26.305  0.00  0.00    -0.488 OA
ENDBRANCH   1  27
BRANCH   7  28
ATOM     28  O   UNL     1       6.930  -5.922  21.386  0.00  0.00    -0.507 OA
ATOM     29  H   UNL     1       6.088  -5.911  20.896  0.00  0.00    +0.292 HD
ENDBRANCH   7  28
BRANCH   5  30
ATOM     30  O   UNL     1       5.081  -4.849  25.705  0.00  0.00    -0.460 OA
BRANCH  30  31
ATOM     31  C   UNL     1       5.296  -6.100  26.395  0.00  0.00    +0.339 C 
ATOM     32  O   UNL     1       4.137  -6.934  26.452  0.00  0.00    -0.331 OA
ATOM     33  C   UNL     1       3.104  -6.511  27.362  0.00  0.00    +0.179 C 
ATOM     34  C   UNL     1       3.623  -6.317  28.804  0.00  0.00    +0.177 C 
ATOM     35  C   UNL     1       4.853  -5.405  28.823  0.00  0.00    +0.180 C 
ATOM     36  C   UNL     1       5.891  -5.908  27.808  0.00  0.00    +0.214 C 
BRANCH  34  37
ATOM     37  O   UNL     1       3.962  -7.585  29.382  0.00  0.00    -0.386 OA
ATOM     38  H   UNL     1       3.698  -8.279  28.751  0.00  0.00    +0.210 HD
ENDBRANCH  34  37
BRANCH  35  39
ATOM     39  O   UNL     1       4.444  -4.049  28.639  0.00  0.00    -0.386 OA
ATOM     40  H   UNL     1       4.417  -3.830  27.688  0.00  0.00    +0.210 HD
ENDBRANCH  35  39
BRANCH  36  41
ATOM     41  O   UNL     1       7.079  -5.114  27.846  0.00  0.00    -0.383 OA
ATOM     42  H   UNL     1       6.939  -4.369  28.456  0.00  0.00    +0.210 HD
ENDBRANCH  36  41
BRANCH  33  43
ATOM     43  C   UNL     1       2.007  -7.595  27.343  0.00  0.00    +0.190 C 
BRANCH  43  44
ATOM     44  O   UNL     1       2.056  -8.389  26.156  0.00  0.00    -0.392 OA
ATOM     45  H   UNL     1       2.894  -8.199  25.706  0.00  0.00    +0.210 HD
ENDBRANCH  43  44
ENDBRANCH  33  43
ENDBRANCH  30  31
ENDBRANCH   5  30
TORSDOF 14
ENDMDL
MODEL 6
REMARK VINA RESULT:      -6.9      2.161      3.320
REMARK  Name = 
REMARK  15 active torsions:
REMARK  status: ('A' for Active; 'I' for Inactive)
REMARK    1  A    between atoms: C_1  and  O_2
REMARK    2  A    between atoms: O_2  and  C_3
REMARK    3  A    between atoms: C_4  and  C_30
REMARK    4  A    between atoms: C_10  and  O_15
REMARK    5  A    between atoms: C_12  and  O_14
REMARK    6  A    between atoms: O_15  and  C_16
REMARK    7  A    between atoms: C_18  and  O_29
REMARK    8  A    between atoms: C_19  and  O_28
REMARK    9  A    between atoms: C_21  and  O_27
REMARK   10  A    between atoms: C_23  and  C_25
REMARK   11  A    between atoms: C_25  and  O_26
REMARK   12  A    between atoms: C_32  and  O_37
REMARK   13  A    between atoms: C_33  and  O_36
REMARK   14  A    between atoms: O_37  and  S_38
REMARK   15  A    between atoms: S_38  and  O_41
REMARK                            x       y       z     vdW  Elec       q    Type
REMARK                         _______ _______ _______ _____ _____    ______ ____
ROOT
ATOM      1  C   UNL     1       6.196  -0.616  25.154  0.00  0.00    +0.211 A 
ATOM      2  C   UNL     1       6.125  -1.921  25.901  0.00  0.00    +0.238 A 
ATOM      3  O   UNL     1       5.173  -2.211  26.618  0.00  0.00    -0.283 OA
ATOM      4  C   UNL     1       7.261  -2.861  25.750  0.00  0.00    +0.110 A 
ATOM      5  C   UNL     1       7.343  -4.101  26.437  0.00  0.00    +0.142 A 
ATOM      6  C   UNL     1       8.499  -4.876  26.261  0.00  0.00    +0.092 A 
ATOM      7  C   UNL     1       9.465  -4.508  25.331  0.00  0.00    +0.124 A 
ATOM      8  C   UNL     1       9.367  -3.321  24.630  0.00  0.00    +0.092 A 
ATOM      9  C   UNL     1       8.280  -2.481  24.865  0.00  0.00    +0.147 A 
ATOM     10  O   UNL     1       8.293  -1.299  24.166  0.00  0.00    -0.451 OA
ATOM     11  C   UNL     1       7.263  -0.405  24.360  0.00  0.00    +0.181 A 
ENDROOT
BRANCH  11  12
ATOM     12  C   UNL     1       7.482   0.899  23.697  0.00  0.00    +0.025 A 
ATOM     13  C   UNL     1       6.936   1.212  22.445  0.00  0.00    +0.015 A 
ATOM     14  C   UNL     1       7.095   2.494  21.903  0.00  0.00    +0.050 A 
ATOM     15  C   UNL     1       7.791   3.463  22.620  0.00  0.00    +0.161 A 
ATOM     16  C   UNL     1       8.351   3.170  23.863  0.00  0.00    +0.201 A 
ATOM     17  C   UNL     1       8.219   1.880  24.385  0.00  0.00    +0.064 A 
BRANCH  15  18
ATOM     18  O   UNL     1       7.881   4.716  22.079  0.00  0.00    -0.503 OA
ATOM     19  H   UNL     1       8.442   4.651  21.286  0.00  0.00    +0.292 HD
ENDBRANCH  15  18
BRANCH  16  20
ATOM     20  O   UNL     1       9.019   4.190  24.490  0.00  0.00    -0.321 OA
BRANCH  20  21
ATOM     21  S   UNL     1       8.289   5.106  25.629  0.00  0.00    +0.251 S 
ATOM     22  O   UNL     1       9.272   5.989  26.231  0.00  0.00    -0.108 OA
ATOM     23  O   UNL     1       7.416   4.279  26.426  0.00  0.00    -0.108 OA
BRANCH  21  24
ATOM     24  O   UNL     1       7.302   6.023  24.755  0.00  0.00    -0.222 OA
ATOM     25  H   UNL     1       6.439   5.558  24.709  0.00  0.00    +0.248 HD
ENDBRANCH  21  24
ENDBRANCH  20  21
ENDBRANCH  16  20
ENDBRANCH  11  12
BRANCH   1  27
ATOM     26  C   UNL     1       5.171   1.142  26.414  0.00  0.00    +0.277 C 
ATOM     27  O   UNL     1       5.199   0.350  25.234  0.00  0.00    -0.488 OA
ENDBRANCH   1  27
BRANCH   7  28
ATOM     28  O   UNL     1      10.517  -5.333  25.063  0.00  0.00    -0.507 OA
ATOM     29  H   UNL     1      11.258  -4.788  24.743  0.00  0.00    +0.292 HD
ENDBRANCH   7  28
BRANCH   5  30
ATOM     30  O   UNL     1       6.280  -4.530  27.215  0.00  0.00    -0.460 OA
BRANCH  30  31
ATOM     31  C   UNL     1       5.894  -5.919  27.127  0.00  0.00    +0.339 C 
ATOM     32  O   UNL     1       5.387  -6.297  25.845  0.00  0.00    -0.331 OA
ATOM     33  C   UNL     1       4.065  -5.819  25.528  0.00  0.00    +0.179 C 
ATOM     34  C   UNL     1       3.017  -6.217  26.591  0.00  0.00    +0.177 C 
ATOM     35  C   UNL     1       3.483  -5.815  27.993  0.00  0.00    +0.180 C 
ATOM     36  C   UNL     1       4.907  -6.337  28.239  0.00  0.00    +0.214 C 
BRANCH  34  37
ATOM     37  O   UNL     1       2.789  -7.633  26.553  0.00  0.00    -0.386 OA
ATOM     38  H   UNL     1       3.128  -8.010  27.384  0.00  0.00    +0.210 HD
ENDBRANCH  34  37
BRANCH  35  39
ATOM     39  O   UNL     1       3.324  -4.406  28.162  0.00  0.00    -0.386 OA
ATOM     40  H   UNL     1       4.178  -3.952  28.035  0.00  0.00    +0.210 HD
ENDBRANCH  35  39
BRANCH  36  41
ATOM     41  O   UNL     1       5.347  -6.032  29.565  0.00  0.00    -0.383 OA
ATOM     42  H   UNL     1       4.823  -6.555  30.197  0.00  0.00    +0.210 HD
ENDBRANCH  36  41
BRANCH  33  43
ATOM     43  C   UNL     1       3.678  -6.421  24.162  0.00  0.00    +0.190 C 
BRANCH  43  44
ATOM     44  O   UNL     1       4.241  -7.720  23.967  0.00  0.00    -0.392 OA
ATOM     45  H   UNL     1       4.499  -8.065  24.837  0.00  0.00    +0.210 HD
ENDBRANCH  43  44
ENDBRANCH  33  43
ENDBRANCH  30  31
ENDBRANCH   5  30
TORSDOF 14
ENDMDL
MODEL 7
REMARK VINA RESULT:      -6.9      3.154      9.594
REMARK  Name = 
REMARK  15 active torsions:
REMARK  status: ('A' for Active; 'I' for Inactive)
REMARK    1  A    between atoms: C_1  and  O_2
REMARK    2  A    between atoms: O_2  and  C_3
REMARK    3  A    between atoms: C_4  and  C_30
REMARK    4  A    between atoms: C_10  and  O_15
REMARK    5  A    between atoms: C_12  and  O_14
REMARK    6  A    between atoms: O_15  and  C_16
REMARK    7  A    between atoms: C_18  and  O_29
REMARK    8  A    between atoms: C_19  and  O_28
REMARK    9  A    between atoms: C_21  and  O_27
REMARK   10  A    between atoms: C_23  and  C_25
REMARK   11  A    between atoms: C_25  and  O_26
REMARK   12  A    between atoms: C_32  and  O_37
REMARK   13  A    between atoms: C_33  and  O_36
REMARK   14  A    between atoms: O_37  and  S_38
REMARK   15  A    between atoms: S_38  and  O_41
REMARK                            x       y       z     vdW  Elec       q    Type
REMARK                         _______ _______ _______ _____ _____    ______ ____
ROOT
ATOM      1  C   UNL     1       6.420  -0.528  26.152  0.00  0.00    +0.211 A 
ATOM      2  C   UNL     1       7.438   0.419  25.573  0.00  0.00    +0.238 A 
ATOM      3  O   UNL     1       7.473   1.606  25.878  0.00  0.00    -0.283 OA
ATOM      4  C   UNL     1       8.411  -0.132  24.600  0.00  0.00    +0.110 A 
ATOM      5  C   UNL     1       9.389   0.661  23.942  0.00  0.00    +0.142 A 
ATOM      6  C   UNL     1      10.213   0.037  22.994  0.00  0.00    +0.092 A 
ATOM      7  C   UNL     1      10.169  -1.341  22.812  0.00  0.00    +0.124 A 
ATOM      8  C   UNL     1       9.245  -2.121  23.482  0.00  0.00    +0.092 A 
ATOM      9  C   UNL     1       8.344  -1.511  24.352  0.00  0.00    +0.147 A 
ATOM     10  O   UNL     1       7.427  -2.354  24.930  0.00  0.00    -0.451 OA
ATOM     11  C   UNL     1       6.487  -1.822  25.786  0.00  0.00    +0.181 A 
ENDROOT
BRANCH  11  12
ATOM     12  C   UNL     1       5.450  -2.792  26.198  0.00  0.00    +0.025 A 
ATOM     13  C   UNL     1       4.348  -3.110  25.392  0.00  0.00    +0.015 A 
ATOM     14  C   UNL     1       3.444  -4.104  25.787  0.00  0.00    +0.050 A 
ATOM     15  C   UNL     1       3.649  -4.785  26.983  0.00  0.00    +0.161 A 
ATOM     16  C   UNL     1       4.734  -4.478  27.805  0.00  0.00    +0.201 A 
ATOM     17  C   UNL     1       5.614  -3.462  27.423  0.00  0.00    +0.064 A 
BRANCH  15  18
ATOM     18  O   UNL     1       2.772  -5.783  27.309  0.00  0.00    -0.503 OA
ATOM     19  H   UNL     1       3.270  -6.458  27.803  0.00  0.00    +0.292 HD
ENDBRANCH  15  18
BRANCH  16  20
ATOM     20  O   UNL     1       4.849  -5.203  28.963  0.00  0.00    -0.321 OA
BRANCH  20  21
ATOM     21  S   UNL     1       5.920  -6.430  29.090  0.00  0.00    +0.251 S 
ATOM     22  O   UNL     1       6.028  -6.824  30.483  0.00  0.00    -0.108 OA
ATOM     23  O   UNL     1       7.084  -6.139  28.287  0.00  0.00    -0.108 OA
BRANCH  21  24
ATOM     24  O   UNL     1       5.175  -7.622  28.317  0.00  0.00    -0.222 OA
ATOM     25  H   UNL     1       5.860  -8.119  27.821  0.00  0.00    +0.248 HD
ENDBRANCH  21  24
ENDBRANCH  20  21
ENDBRANCH  16  20
ENDBRANCH  11  12
BRANCH   1  27
ATOM     26  C   UNL     1       5.891   0.202  28.368  0.00  0.00    +0.277 C 
ATOM     27  O   UNL     1       5.447  -0.121  27.058  0.00  0.00    -0.488 OA
ENDBRANCH   1  27
BRANCH   7  28
ATOM     28  O   UNL     1      11.065  -1.960  21.993  0.00  0.00    -0.507 OA
ATOM     29  H   UNL     1      11.784  -2.321  22.543  0.00  0.00    +0.292 HD
ENDBRANCH   7  28
BRANCH   5  30
ATOM     30  O   UNL     1       9.535   1.996  24.280  0.00  0.00    -0.460 OA
BRANCH  30  31
ATOM     31  C   UNL     1       9.477   2.974  23.218  0.00  0.00    +0.339 C 
ATOM     32  O   UNL     1      10.706   3.675  23.012  0.00  0.00    -0.331 OA
ATOM     33  C   UNL     1      11.045   4.654  24.013  0.00  0.00    +0.179 C 
ATOM     34  C   UNL     1       9.928   5.701  24.223  0.00  0.00    +0.177 C 
ATOM     35  C   UNL     1       8.583   5.018  24.480  0.00  0.00    +0.180 C 
ATOM     36  C   UNL     1       8.311   3.972  23.388  0.00  0.00    +0.214 C 
BRANCH  34  37
ATOM     37  O   UNL     1       9.820   6.547  23.070  0.00  0.00    -0.386 OA
ATOM     38  H   UNL     1       9.112   7.193  23.241  0.00  0.00    +0.210 HD
ENDBRANCH  34  37
BRANCH  35  39
ATOM     39  O   UNL     1       8.552   4.512  25.815  0.00  0.00    -0.386 OA
ATOM     40  H   UNL     1       8.099   5.143  26.406  0.00  0.00    +0.210 HD
ENDBRANCH  35  39
BRANCH  36  41
ATOM     41  O   UNL     1       7.030   3.362  23.564  0.00  0.00    -0.383 OA
ATOM     42  H   UNL     1       6.574   3.795  24.306  0.00  0.00    +0.210 HD
ENDBRANCH  36  41
BRANCH  33  43
ATOM     43  C   UNL     1      12.337   5.355  23.546  0.00  0.00    +0.190 C 
BRANCH  43  44
ATOM     44  O   UNL     1      12.751   6.379  24.452  0.00  0.00    -0.392 OA
ATOM     45  H   UNL     1      12.171   6.339  25.230  0.00  0.00    +0.210 HD
ENDBRANCH  43  44
ENDBRANCH  33  43
ENDBRANCH  30  31
ENDBRANCH   5  30
TORSDOF 14
ENDMDL
MODEL 8
REMARK VINA RESULT:      -6.9      3.147      9.433
REMARK  Name = 
REMARK  15 active torsions:
REMARK  status: ('A' for Active; 'I' for Inactive)
REMARK    1  A    between atoms: C_1  and  O_2
REMARK    2  A    between atoms: O_2  and  C_3
REMARK    3  A    between atoms: C_4  and  C_30
REMARK    4  A    between atoms: C_10  and  O_15
REMARK    5  A    between atoms: C_12  and  O_14
REMARK    6  A    between atoms: O_15  and  C_16
REMARK    7  A    between atoms: C_18  and  O_29
REMARK    8  A    between atoms: C_19  and  O_28
REMARK    9  A    between atoms: C_21  and  O_27
REMARK   10  A    between atoms: C_23  and  C_25
REMARK   11  A    between atoms: C_25  and  O_26
REMARK   12  A    between atoms: C_32  and  O_37
REMARK   13  A    between atoms: C_33  and  O_36
REMARK   14  A    between atoms: O_37  and  S_38
REMARK   15  A    between atoms: S_38  and  O_41
REMARK                            x       y       z     vdW  Elec       q    Type
REMARK                         _______ _______ _______ _____ _____    ______ ____
ROOT
ATOM      1  C   UNL     1       6.512  -1.836  23.509  0.00  0.00    +0.211 A 
ATOM      2  C   UNL     1       6.993  -0.416  23.657  0.00  0.00    +0.238 A 
ATOM      3  O   UNL     1       7.886   0.047  22.956  0.00  0.00    -0.283 OA
ATOM      4  C   UNL     1       6.351   0.420  24.699  0.00  0.00    +0.110 A 
ATOM      5  C   UNL     1       6.743   1.756  24.977  0.00  0.00    +0.142 A 
ATOM      6  C   UNL     1       6.102   2.425  26.030  0.00  0.00    +0.092 A 
ATOM      7  C   UNL     1       5.019   1.847  26.683  0.00  0.00    +0.124 A 
ATOM      8  C   UNL     1       4.609   0.561  26.386  0.00  0.00    +0.092 A 
ATOM      9  C   UNL     1       5.297  -0.165  25.416  0.00  0.00    +0.147 A 
ATOM     10  O   UNL     1       4.856  -1.451  25.226  0.00  0.00    -0.451 OA
ATOM     11  C   UNL     1       5.499  -2.241  24.299  0.00  0.00    +0.181 A 
ENDROOT
BRANCH  11  12
ATOM     12  C   UNL     1       5.056  -3.651  24.316  0.00  0.00    +0.025 A 
ATOM     13  C   UNL     1       4.290  -4.217  23.287  0.00  0.00    +0.015 A 
ATOM     14  C   UNL     1       3.976  -5.581  23.305  0.00  0.00    +0.050 A 
ATOM     15  C   UNL     1       4.435  -6.379  24.349  0.00  0.00    +0.161 A 
ATOM     16  C   UNL     1       5.189  -5.835  25.388  0.00  0.00    +0.201 A 
ATOM     17  C   UNL     1       5.473  -4.467  25.383  0.00  0.00    +0.064 A 
BRANCH  15  18
ATOM     18  O   UNL     1       4.148  -7.717  24.304  0.00  0.00    -0.503 OA
ATOM     19  H   UNL     1       4.929  -8.192  24.638  0.00  0.00    +0.292 HD
ENDBRANCH  15  18
BRANCH  16  20
ATOM     20  O   UNL     1       5.593  -6.703  26.370  0.00  0.00    -0.321 OA
BRANCH  20  21
ATOM     21  S   UNL     1       5.442  -6.321  27.951  0.00  0.00    +0.251 S 
ATOM     22  O   UNL     1       4.110  -5.795  28.189  0.00  0.00    -0.108 OA
ATOM     23  O   UNL     1       6.627  -5.628  28.395  0.00  0.00    -0.108 OA
BRANCH  21  24
ATOM     24  O   UNL     1       5.516  -7.758  28.663  0.00  0.00    -0.222 OA
ATOM     25  H   UNL     1       4.602  -8.000  28.924  0.00  0.00    +0.248 HD
ENDBRANCH  21  24
ENDBRANCH  20  21
ENDBRANCH  16  20
ENDBRANCH  11  12
BRANCH   1  27
ATOM     26  C   UNL     1       8.252  -3.381  22.952  0.00  0.00    +0.277 C 
ATOM     27  O   UNL     1       7.052  -2.718  22.580  0.00  0.00    -0.488 OA
ENDBRANCH   1  27
BRANCH   7  28
ATOM     28  O   UNL     1       4.313   2.554  27.610  0.00  0.00    -0.507 OA
ATOM     29  H   UNL     1       4.222   2.004  28.409  0.00  0.00    +0.292 HD
ENDBRANCH   7  28
BRANCH   5  30
ATOM     30  O   UNL     1       7.699   2.373  24.186  0.00  0.00    -0.460 OA
BRANCH  30  31
ATOM     31  C   UNL     1       8.900   2.856  24.827  0.00  0.00    +0.339 C 
ATOM     32  O   UNL     1       9.041   4.278  24.791  0.00  0.00    -0.331 OA
ATOM     33  C   UNL     1       9.393   4.840  23.512  0.00  0.00    +0.179 C 
ATOM     34  C   UNL     1      10.679   4.218  22.921  0.00  0.00    +0.177 C 
ATOM     35  C   UNL     1      10.585   2.691  22.902  0.00  0.00    +0.180 C 
ATOM     36  C   UNL     1      10.179   2.175  24.291  0.00  0.00    +0.214 C 
BRANCH  34  37
ATOM     37  O   UNL     1      11.820   4.616  23.694  0.00  0.00    -0.386 OA
ATOM     38  H   UNL     1      11.675   4.320  24.610  0.00  0.00    +0.210 HD
ENDBRANCH  34  37
BRANCH  35  39
ATOM     39  O   UNL     1       9.729   2.278  21.836  0.00  0.00    -0.386 OA
ATOM     40  H   UNL     1       8.962   1.789  22.188  0.00  0.00    +0.210 HD
ENDBRANCH  35  39
BRANCH  36  41
ATOM     41  O   UNL     1      10.145   0.746  24.323  0.00  0.00    -0.383 OA
ATOM     42  H   UNL     1       9.359   0.439  23.839  0.00  0.00    +0.210 HD
ENDBRANCH  36  41
BRANCH  33  43
ATOM     43  C   UNL     1       9.594   6.355  23.720  0.00  0.00    +0.190 C 
BRANCH  43  44
ATOM     44  O   UNL     1      10.250   6.647  24.956  0.00  0.00    -0.392 OA
ATOM     45  H   UNL     1      10.642   5.823  25.285  0.00  0.00    +0.210 HD
ENDBRANCH  43  44
ENDBRANCH  33  43
ENDBRANCH  30  31
ENDBRANCH   5  30
TORSDOF 14
ENDMDL
MODEL 9
REMARK VINA RESULT:      -6.5      2.653      5.043
REMARK  Name = 
REMARK  15 active torsions:
REMARK  status: ('A' for Active; 'I' for Inactive)
REMARK    1  A    between atoms: C_1  and  O_2
REMARK    2  A    between atoms: O_2  and  C_3
REMARK    3  A    between atoms: C_4  and  C_30
REMARK    4  A    between atoms: C_10  and  O_15
REMARK    5  A    between atoms: C_12  and  O_14
REMARK    6  A    between atoms: O_15  and  C_16
REMARK    7  A    between atoms: C_18  and  O_29
REMARK    8  A    between atoms: C_19  and  O_28
REMARK    9  A    between atoms: C_21  and  O_27
REMARK   10  A    between atoms: C_23  and  C_25
REMARK   11  A    between atoms: C_25  and  O_26
REMARK   12  A    between atoms: C_32  and  O_37
REMARK   13  A    between atoms: C_33  and  O_36
REMARK   14  A    between atoms: O_37  and  S_38
REMARK   15  A    between atoms: S_38  and  O_41
REMARK                            x       y       z     vdW  Elec       q    Type
REMARK                         _______ _______ _______ _____ _____    ______ ____
ROOT
ATOM      1  C   UNL     1       7.395   0.416  23.164  0.00  0.00    +0.211 A 
ATOM      2  C   UNL     1       6.824  -0.891  23.649  0.00  0.00    +0.238 A 
ATOM      3  O   UNL     1       6.993  -1.942  23.043  0.00  0.00    -0.283 OA
ATOM      4  C   UNL     1       6.029  -0.868  24.901  0.00  0.00    +0.110 A 
ATOM      5  C   UNL     1       5.394  -2.018  25.440  0.00  0.00    +0.142 A 
ATOM      6  C   UNL     1       4.616  -1.859  26.597  0.00  0.00    +0.092 A 
ATOM      7  C   UNL     1       4.590  -0.644  27.273  0.00  0.00    +0.124 A 
ATOM      8  C   UNL     1       5.242   0.467  26.771  0.00  0.00    +0.092 A 
ATOM      9  C   UNL     1       5.935   0.362  25.567  0.00  0.00    +0.147 A 
ATOM     10  O   UNL     1       6.504   1.528  25.116  0.00  0.00    -0.451 OA
ATOM     11  C   UNL     1       7.188   1.510  23.921  0.00  0.00    +0.181 A 
ENDROOT
BRANCH  11  12
ATOM     12  C   UNL     1       7.595   2.854  23.455  0.00  0.00    +0.025 A 
ATOM     13  C   UNL     1       6.868   3.576  22.499  0.00  0.00    +0.015 A 
ATOM     14  C   UNL     1       7.243   4.883  22.161  0.00  0.00    +0.050 A 
ATOM     15  C   UNL     1       8.339   5.467  22.788  0.00  0.00    +0.161 A 
ATOM     16  C   UNL     1       9.083   4.763  23.734  0.00  0.00    +0.201 A 
ATOM     17  C   UNL     1       8.726   3.448  24.044  0.00  0.00    +0.064 A 
BRANCH  15  18
ATOM     18  O   UNL     1       8.643   6.762  22.467  0.00  0.00    -0.503 OA
ATOM     19  H   UNL     1       8.659   7.271  23.296  0.00  0.00    +0.292 HD
ENDBRANCH  15  18
BRANCH  16  20
ATOM     20  O   UNL     1      10.146   5.425  24.293  0.00  0.00    -0.321 OA
BRANCH  20  21
ATOM     21  S   UNL     1      11.671   5.177  23.764  0.00  0.00    +0.251 S 
ATOM     22  O   UNL     1      11.863   3.759  23.515  0.00  0.00    -0.108 OA
ATOM     23  O   UNL     1      12.592   5.942  24.571  0.00  0.00    -0.108 OA
BRANCH  21  24
ATOM     24  O   UNL     1      11.667   5.911  22.337  0.00  0.00    -0.222 OA
ATOM     25  H   UNL     1      11.263   5.291  21.693  0.00  0.00    +0.248 HD
ENDBRANCH  21  24
ENDBRANCH  20  21
ENDBRANCH  16  20
ENDBRANCH  11  12
BRANCH   1  27
ATOM     26  C   UNL     1       9.512   0.163  22.078  0.00  0.00    +0.277 C 
ATOM     27  O   UNL     1       8.140   0.521  21.995  0.00  0.00    -0.488 OA
ENDBRANCH   1  27
BRANCH   7  28
ATOM     28  O   UNL     1       3.947  -0.531  28.469  0.00  0.00    -0.507 OA
ATOM     29  H   UNL     1       3.005  -0.739  28.331  0.00  0.00    +0.292 HD
ENDBRANCH   7  28
BRANCH   5  30
ATOM     30  O   UNL     1       5.590  -3.256  24.850  0.00  0.00    -0.460 OA
BRANCH  30  31
ATOM     31  C   UNL     1       4.424  -4.023  24.480  0.00  0.00    +0.339 C 
ATOM     32  O   UNL     1       4.027  -4.981  25.464  0.00  0.00    -0.331 OA
ATOM     33  C   UNL     1       4.865  -6.147  25.577  0.00  0.00    +0.179 C 
ATOM     34  C   UNL     1       5.039  -6.889  24.233  0.00  0.00    +0.177 C 
ATOM     35  C   UNL     1       5.493  -5.925  23.134  0.00  0.00    +0.180 C 
ATOM     36  C   UNL     1       4.568  -4.700  23.098  0.00  0.00    +0.214 C 
BRANCH  34  37
ATOM     37  O   UNL     1       3.802  -7.504  23.845  0.00  0.00    -0.386 OA
ATOM     38  H   UNL     1       3.215  -7.504  24.621  0.00  0.00    +0.210 HD
ENDBRANCH  34  37
BRANCH  35  39
ATOM     39  O   UNL     1       6.879  -5.625  23.306  0.00  0.00    -0.386 OA
ATOM     40  H   UNL     1       7.427  -6.247  22.793  0.00  0.00    +0.210 HD
ENDBRANCH  35  39
BRANCH  36  41
ATOM     41  O   UNL     1       4.928  -3.810  22.039  0.00  0.00    -0.383 OA
ATOM     42  H   UNL     1       5.006  -4.319  21.214  0.00  0.00    +0.210 HD
ENDBRANCH  36  41
BRANCH  33  43
ATOM     43  C   UNL     1       4.205  -7.084  26.609  0.00  0.00    +0.190 C 
BRANCH  43  44
ATOM     44  O   UNL     1       5.076  -7.377  27.704  0.00  0.00    -0.392 OA
ATOM     45  H   UNL     1       4.732  -6.920  28.487  0.00  0.00    +0.210 HD
ENDBRANCH  43  44
ENDBRANCH  33  43
ENDBRANCH  30  31
ENDBRANCH   5  30
TORSDOF 14
ENDMDL
