MODEL 1
REMARK VINA RESULT:      -6.8      0.000      0.000
REMARK  Name = 
REMARK  11 active torsions:
REMARK  status: ('A' for Active; 'I' for Inactive)
REMARK    1  A    between atoms: C_1  and  O_2
REMARK    2  A    between atoms: O_2  and  C_3
REMARK    3  A    between atoms: C_4  and  O_28
REMARK    4  A    between atoms: C_6  and  C_9
REMARK    5  A    between atoms: C_10  and  O_23
REMARK    6  A    between atoms: C_14  and  O_22
REMARK    7  A    between atoms: C_16  and  O_20
REMARK    8  A    between atoms: O_20  and  C_21
REMARK    9  A    between atoms: O_23  and  S_24
REMARK   10  A    between atoms: S_24  and  O_27
REMARK   11  A    between atoms: O_28  and  C_29
REMARK                            x       y       z     vdW  Elec       q    Type
REMARK                         _______ _______ _______ _____ _____    ______ ____
ROOT
ATOM      1  C   UNL     1       6.675  -2.415  24.701  0.00  0.00    +0.184 A 
ATOM      2  O   UNL     1       6.571  -1.094  24.279  0.00  0.00    -0.451 OA
ATOM      3  C   UNL     1       7.516  -0.618  23.404  0.00  0.00    +0.147 A 
ATOM      4  C   UNL     1       8.680  -1.320  23.114  0.00  0.00    +0.109 A 
ATOM      5  C   UNL     1       9.599  -0.799  22.202  0.00  0.00    +0.135 A 
ATOM      6  C   UNL     1       9.365   0.430  21.585  0.00  0.00    +0.092 A 
ATOM      7  C   UNL     1       8.203   1.146  21.878  0.00  0.00    +0.127 A 
ATOM      8  C   UNL     1       8.891  -2.620  23.754  0.00  0.00    +0.241 A 
ATOM      9  O   UNL     1       9.949  -3.222  23.605  0.00  0.00    -0.283 OA
ATOM     10  C   UNL     1       7.275   0.612  22.781  0.00  0.00    +0.092 A 
ATOM     11  C   UNL     1       7.754  -3.204  24.506  0.00  0.00    +0.248 A 
ENDROOT
BRANCH   1  15
ATOM     12  C   UNL     1       2.982  -3.877  26.280  0.00  0.00    +0.162 A 
ATOM     13  C   UNL     1       3.984  -3.373  27.109  0.00  0.00    +0.050 A 
ATOM     14  C   UNL     1       5.188  -2.935  26.567  0.00  0.00    +0.015 A 
ATOM     15  C   UNL     1       5.396  -2.951  25.181  0.00  0.00    +0.025 A 
ATOM     16  C   UNL     1       4.400  -3.456  24.339  0.00  0.00    +0.061 A 
ATOM     17  C   UNL     1       3.202  -3.940  24.888  0.00  0.00    +0.162 A 
BRANCH  12  19
ATOM     18  C   UNL     1       1.781  -5.529  27.483  0.00  0.00    +0.277 C 
ATOM     19  O   UNL     1       1.764  -4.311  26.748  0.00  0.00    -0.491 OA
ENDBRANCH  12  19
BRANCH  17  20
ATOM     20  O   UNL     1       2.178  -4.450  24.128  0.00  0.00    -0.491 OA
ATOM     21  C   UNL     1       2.518  -5.588  23.337  0.00  0.00    +0.277 C 
ENDBRANCH  17  20
ENDBRANCH   1  15
BRANCH   5  22
ATOM     22  O   UNL     1      10.750  -1.449  21.844  0.00  0.00    -0.506 OA
ATOM     23  H   UNL     1      10.620  -1.837  20.949  0.00  0.00    +0.292 HD
ENDBRANCH   5  22
BRANCH   7  24
ATOM     24  O   UNL     1       7.867   2.362  21.346  0.00  0.00    -0.495 OA
ATOM     25  C   UNL     1       7.067   3.219  22.160  0.00  0.00    +0.277 C 
ENDBRANCH   7  24
BRANCH  11  26
ATOM     26  O   UNL     1       7.832  -4.562  24.727  0.00  0.00    -0.317 OA
BRANCH  26  27
ATOM     27  S   UNL     1       8.325  -5.220  26.126  0.00  0.00    +0.252 S 
ATOM     28  O   UNL     1       7.248  -6.005  26.684  0.00  0.00    -0.108 OA
ATOM     29  O   UNL     1       9.032  -4.242  26.924  0.00  0.00    -0.108 OA
BRANCH  27  30
ATOM     30  O   UNL     1       9.438  -6.290  25.655  0.00  0.00    -0.222 OA
ATOM     31  H   UNL     1       9.852  -5.955  24.836  0.00  0.00    +0.248 HD
ENDBRANCH  27  30
ENDBRANCH  26  27
ENDBRANCH  11  26
TORSDOF 8
ENDMDL
MODEL 2
REMARK VINA RESULT:      -6.7      0.766      1.765
REMARK  Name = 
REMARK  11 active torsions:
REMARK  status: ('A' for Active; 'I' for Inactive)
REMARK    1  A    between atoms: C_1  and  O_2
REMARK    2  A    between atoms: O_2  and  C_3
REMARK    3  A    between atoms: C_4  and  O_28
REMARK    4  A    between atoms: C_6  and  C_9
REMARK    5  A    between atoms: C_10  and  O_23
REMARK    6  A    between atoms: C_14  and  O_22
REMARK    7  A    between atoms: C_16  and  O_20
REMARK    8  A    between atoms: O_20  and  C_21
REMARK    9  A    between atoms: O_23  and  S_24
REMARK   10  A    between atoms: S_24  and  O_27
REMARK   11  A    between atoms: O_28  and  C_29
REMARK                            x       y       z     vdW  Elec       q    Type
REMARK                         _______ _______ _______ _____ _____    ______ ____
ROOT
ATOM      1  C   UNL     1       6.773  -2.291  24.876  0.00  0.00    +0.184 A 
ATOM      2  O   UNL     1       6.661  -0.972  24.450  0.00  0.00    -0.451 OA
ATOM      3  C   UNL     1       7.540  -0.524  23.495  0.00  0.00    +0.147 A 
ATOM      4  C   UNL     1       8.662  -1.252  23.118  0.00  0.00    +0.109 A 
ATOM      5  C   UNL     1       9.513  -0.759  22.127  0.00  0.00    +0.135 A 
ATOM      6  C   UNL     1       9.253   0.470  21.519  0.00  0.00    +0.092 A 
ATOM      7  C   UNL     1       8.134   1.212  21.899  0.00  0.00    +0.127 A 
ATOM      8  C   UNL     1       8.899  -2.551  23.752  0.00  0.00    +0.241 A 
ATOM      9  O   UNL     1       9.929  -3.175  23.523  0.00  0.00    -0.283 OA
ATOM     10  C   UNL     1       7.273   0.706  22.881  0.00  0.00    +0.092 A 
ATOM     11  C   UNL     1       7.817  -3.104  24.600  0.00  0.00    +0.248 A 
ENDROOT
BRANCH   1  15
ATOM     12  C   UNL     1       3.095  -3.839  26.408  0.00  0.00    +0.162 A 
ATOM     13  C   UNL     1       3.307  -3.676  25.038  0.00  0.00    +0.050 A 
ATOM     14  C   UNL     1       4.503  -3.139  24.573  0.00  0.00    +0.015 A 
ATOM     15  C   UNL     1       5.527  -2.796  25.465  0.00  0.00    +0.025 A 
ATOM     16  C   UNL     1       5.328  -2.952  26.841  0.00  0.00    +0.061 A 
ATOM     17  C   UNL     1       4.104  -3.452  27.314  0.00  0.00    +0.162 A 
BRANCH  12  19
ATOM     18  C   UNL     1       1.753  -5.769  26.709  0.00  0.00    +0.277 C 
ATOM     19  O   UNL     1       1.945  -4.377  26.933  0.00  0.00    -0.491 OA
ENDBRANCH  12  19
BRANCH  17  20
ATOM     20  O   UNL     1       3.832  -3.635  28.648  0.00  0.00    -0.491 OA
ATOM     21  C   UNL     1       4.673  -4.575  29.317  0.00  0.00    +0.277 C 
ENDBRANCH  17  20
ENDBRANCH   1  15
BRANCH   5  22
ATOM     22  O   UNL     1      10.616  -1.436  21.683  0.00  0.00    -0.506 OA
ATOM     23  H   UNL     1      10.522  -1.578  20.714  0.00  0.00    +0.292 HD
ENDBRANCH   5  22
BRANCH   7  24
ATOM     24  O   UNL     1       7.779   2.431  21.384  0.00  0.00    -0.495 OA
ATOM     25  C   UNL     1       6.858   3.207  22.149  0.00  0.00    +0.277 C 
ENDBRANCH   7  24
BRANCH  11  26
ATOM     26  O   UNL     1       7.885  -4.461  24.829  0.00  0.00    -0.317 OA
BRANCH  26  27
ATOM     27  S   UNL     1       8.469  -5.117  26.194  0.00  0.00    +0.252 S 
ATOM     28  O   UNL     1       7.465  -5.982  26.769  0.00  0.00    -0.108 OA
ATOM     29  O   UNL     1       9.140  -4.113  26.990  0.00  0.00    -0.108 OA
BRANCH  27  30
ATOM     30  O   UNL     1       9.631  -6.101  25.659  0.00  0.00    -0.222 OA
ATOM     31  H   UNL     1       9.640  -6.056  24.682  0.00  0.00    +0.248 HD
ENDBRANCH  27  30
ENDBRANCH  26  27
ENDBRANCH  11  26
TORSDOF 8
ENDMDL
MODEL 3
REMARK VINA RESULT:      -6.7      3.489      5.970
REMARK  Name = 
REMARK  11 active torsions:
REMARK  status: ('A' for Active; 'I' for Inactive)
REMARK    1  A    between atoms: C_1  and  O_2
REMARK    2  A    between atoms: O_2  and  C_3
REMARK    3  A    between atoms: C_4  and  O_28
REMARK    4  A    between atoms: C_6  and  C_9
REMARK    5  A    between atoms: C_10  and  O_23
REMARK    6  A    between atoms: C_14  and  O_22
REMARK    7  A    between atoms: C_16  and  O_20
REMARK    8  A    between atoms: O_20  and  C_21
REMARK    9  A    between atoms: O_23  and  S_24
REMARK   10  A    between atoms: S_24  and  O_27
REMARK   11  A    between atoms: O_28  and  C_29
REMARK                            x       y       z     vdW  Elec       q    Type
REMARK                         _______ _______ _______ _____ _____    ______ ____
ROOT
ATOM      1  C   UNL     1       8.463   0.921  23.137  0.00  0.00    +0.184 A 
ATOM      2  O   UNL     1       9.710   1.518  22.992  0.00  0.00    -0.451 OA
ATOM      3  C   UNL     1       9.819   2.861  23.252  0.00  0.00    +0.147 A 
ATOM      4  C   UNL     1       8.707   3.678  23.422  0.00  0.00    +0.109 A 
ATOM      5  C   UNL     1       8.875   5.034  23.704  0.00  0.00    +0.135 A 
ATOM      6  C   UNL     1      10.153   5.584  23.804  0.00  0.00    +0.092 A 
ATOM      7  C   UNL     1      11.275   4.773  23.626  0.00  0.00    +0.127 A 
ATOM      8  C   UNL     1       7.376   3.072  23.338  0.00  0.00    +0.241 A 
ATOM      9  O   UNL     1       6.371   3.774  23.379  0.00  0.00    -0.283 OA
ATOM     10  C   UNL     1      11.103   3.408  23.360  0.00  0.00    +0.092 A 
ATOM     11  C   UNL     1       7.300   1.593  23.287  0.00  0.00    +0.248 A 
ENDROOT
BRANCH   1  15
ATOM     12  C   UNL     1       8.802  -3.264  23.934  0.00  0.00    +0.162 A 
ATOM     13  C   UNL     1       9.444  -2.313  24.728  0.00  0.00    +0.050 A 
ATOM     14  C   UNL     1       9.340  -0.960  24.423  0.00  0.00    +0.015 A 
ATOM     15  C   UNL     1       8.556  -0.529  23.344  0.00  0.00    +0.025 A 
ATOM     16  C   UNL     1       7.909  -1.471  22.539  0.00  0.00    +0.061 A 
ATOM     17  C   UNL     1       8.049  -2.840  22.819  0.00  0.00    +0.162 A 
BRANCH  12  19
ATOM     18  C   UNL     1       9.630  -5.006  25.311  0.00  0.00    +0.277 C 
ATOM     19  O   UNL     1       8.849  -4.614  24.188  0.00  0.00    -0.491 OA
ENDBRANCH  12  19
BRANCH  17  20
ATOM     20  O   UNL     1       7.445  -3.826  22.076  0.00  0.00    -0.491 OA
ATOM     21  C   UNL     1       6.039  -3.670  21.890  0.00  0.00    +0.277 C 
ENDBRANCH  17  20
ENDBRANCH   1  15
BRANCH   5  22
ATOM     22  O   UNL     1       7.827   5.890  23.915  0.00  0.00    -0.506 OA
ATOM     23  H   UNL     1       7.579   6.294  23.053  0.00  0.00    +0.292 HD
ENDBRANCH   5  22
BRANCH   7  24
ATOM     24  O   UNL     1      12.576   5.196  23.691  0.00  0.00    -0.495 OA
ATOM     25  C   UNL     1      13.222   5.475  22.450  0.00  0.00    +0.277 C 
ENDBRANCH   7  24
BRANCH  11  26
ATOM     26  O   UNL     1       6.077   1.056  23.627  0.00  0.00    -0.317 OA
BRANCH  26  27
ATOM     27  S   UNL     1       5.603   0.794  25.157  0.00  0.00    +0.252 S 
ATOM     28  O   UNL     1       4.360   1.493  25.392  0.00  0.00    -0.108 OA
ATOM     29  O   UNL     1       6.722   0.927  26.064  0.00  0.00    -0.108 OA
BRANCH  27  30
ATOM     30  O   UNL     1       5.221  -0.774  25.158  0.00  0.00    -0.222 OA
ATOM     31  H   UNL     1       5.269  -1.098  24.237  0.00  0.00    +0.248 HD
ENDBRANCH  27  30
ENDBRANCH  26  27
ENDBRANCH  11  26
TORSDOF 8
ENDMDL
MODEL 4
REMARK VINA RESULT:      -6.6      1.882      2.463
REMARK  Name = 
REMARK  11 active torsions:
REMARK  status: ('A' for Active; 'I' for Inactive)
REMARK    1  A    between atoms: C_1  and  O_2
REMARK    2  A    between atoms: O_2  and  C_3
REMARK    3  A    between atoms: C_4  and  O_28
REMARK    4  A    between atoms: C_6  and  C_9
REMARK    5  A    between atoms: C_10  and  O_23
REMARK    6  A    between atoms: C_14  and  O_22
REMARK    7  A    between atoms: C_16  and  O_20
REMARK    8  A    between atoms: O_20  and  C_21
REMARK    9  A    between atoms: O_23  and  S_24
REMARK   10  A    between atoms: S_24  and  O_27
REMARK   11  A    between atoms: O_28  and  C_29
REMARK                            x       y       z     vdW  Elec       q    Type
REMARK                         _______ _______ _______ _____ _____    ______ ____
ROOT
ATOM      1  C   UNL     1       6.172  -2.033  24.841  0.00  0.00    +0.184 A 
ATOM      2  O   UNL     1       6.121  -0.920  24.009  0.00  0.00    -0.451 OA
ATOM      3  C   UNL     1       7.212  -0.086  23.977  0.00  0.00    +0.147 A 
ATOM      4  C   UNL     1       8.247  -0.181  24.899  0.00  0.00    +0.109 A 
ATOM      5  C   UNL     1       9.342   0.679  24.809  0.00  0.00    +0.135 A 
ATOM      6  C   UNL     1       9.402   1.646  23.805  0.00  0.00    +0.092 A 
ATOM      7  C   UNL     1       8.363   1.754  22.880  0.00  0.00    +0.127 A 
ATOM      8  C   UNL     1       8.173  -1.221  25.929  0.00  0.00    +0.241 A 
ATOM      9  O   UNL     1       9.013  -1.271  26.822  0.00  0.00    -0.283 OA
ATOM     10  C   UNL     1       7.273   0.877  22.964  0.00  0.00    +0.092 A 
ATOM     11  C   UNL     1       7.107  -2.241  25.794  0.00  0.00    +0.248 A 
ENDROOT
BRANCH   1  15
ATOM     12  C   UNL     1       3.294  -4.992  23.733  0.00  0.00    +0.162 A 
ATOM     13  C   UNL     1       3.056  -4.094  24.774  0.00  0.00    +0.050 A 
ATOM     14  C   UNL     1       4.027  -3.163  25.132  0.00  0.00    +0.015 A 
ATOM     15  C   UNL     1       5.235  -3.084  24.427  0.00  0.00    +0.025 A 
ATOM     16  C   UNL     1       5.487  -3.980  23.383  0.00  0.00    +0.061 A 
ATOM     17  C   UNL     1       4.526  -4.949  23.050  0.00  0.00    +0.162 A 
BRANCH  12  19
ATOM     18  C   UNL     1       2.115  -6.988  24.227  0.00  0.00    +0.277 C 
ATOM     19  O   UNL     1       2.373  -5.924  23.318  0.00  0.00    -0.491 OA
ENDBRANCH  12  19
BRANCH  17  20
ATOM     20  O   UNL     1       4.699  -5.862  22.038  0.00  0.00    -0.491 OA
ATOM     21  C   UNL     1       6.020  -5.931  21.501  0.00  0.00    +0.277 C 
ENDBRANCH  17  20
ENDBRANCH   1  15
BRANCH   5  22
ATOM     22  O   UNL     1      10.411   0.622  25.663  0.00  0.00    -0.506 OA
ATOM     23  H   UNL     1      10.943   1.443  25.547  0.00  0.00    +0.292 HD
ENDBRANCH   5  22
BRANCH   7  24
ATOM     24  O   UNL     1       8.302   2.664  21.859  0.00  0.00    -0.495 OA
ATOM     25  C   UNL     1       7.284   3.660  21.946  0.00  0.00    +0.277 C 
ENDBRANCH   7  24
BRANCH  11  26
ATOM     26  O   UNL     1       7.315  -3.404  26.503  0.00  0.00    -0.317 OA
BRANCH  26  27
ATOM     27  S   UNL     1       8.152  -4.671  25.930  0.00  0.00    +0.252 S 
ATOM     28  O   UNL     1       8.778  -4.299  24.682  0.00  0.00    -0.108 OA
ATOM     29  O   UNL     1       7.373  -5.885  26.046  0.00  0.00    -0.108 OA
BRANCH  27  30
ATOM     30  O   UNL     1       9.359  -4.821  26.989  0.00  0.00    -0.222 OA
ATOM     31  H   UNL     1      10.094  -5.292  26.547  0.00  0.00    +0.248 HD
ENDBRANCH  27  30
ENDBRANCH  26  27
ENDBRANCH  11  26
TORSDOF 8
ENDMDL
MODEL 5
REMARK VINA RESULT:      -6.6      2.652      6.545
REMARK  Name = 
REMARK  11 active torsions:
REMARK  status: ('A' for Active; 'I' for Inactive)
REMARK    1  A    between atoms: C_1  and  O_2
REMARK    2  A    between atoms: O_2  and  C_3
REMARK    3  A    between atoms: C_4  and  O_28
REMARK    4  A    between atoms: C_6  and  C_9
REMARK    5  A    between atoms: C_10  and  O_23
REMARK    6  A    between atoms: C_14  and  O_22
REMARK    7  A    between atoms: C_16  and  O_20
REMARK    8  A    between atoms: O_20  and  C_21
REMARK    9  A    between atoms: O_23  and  S_24
REMARK   10  A    between atoms: S_24  and  O_27
REMARK   11  A    between atoms: O_28  and  C_29
REMARK                            x       y       z     vdW  Elec       q    Type
REMARK                         _______ _______ _______ _____ _____    ______ ____
ROOT
ATOM      1  C   UNL     1       7.325  -1.099  23.857  0.00  0.00    +0.184 A 
ATOM      2  O   UNL     1       6.529  -2.159  24.278  0.00  0.00    -0.451 OA
ATOM      3  C   UNL     1       7.152  -3.300  24.719  0.00  0.00    +0.147 A 
ATOM      4  C   UNL     1       8.513  -3.519  24.543  0.00  0.00    +0.109 A 
ATOM      5  C   UNL     1       9.099  -4.689  25.028  0.00  0.00    +0.135 A 
ATOM      6  C   UNL     1       8.326  -5.651  25.680  0.00  0.00    +0.092 A 
ATOM      7  C   UNL     1       6.957  -5.443  25.853  0.00  0.00    +0.127 A 
ATOM      8  C   UNL     1       9.308  -2.483  23.879  0.00  0.00    +0.241 A 
ATOM      9  O   UNL     1      10.488  -2.682  23.612  0.00  0.00    -0.283 OA
ATOM     10  C   UNL     1       6.375  -4.259  25.379  0.00  0.00    +0.092 A 
ATOM     11  C   UNL     1       8.654  -1.178  23.626  0.00  0.00    +0.248 A 
ENDROOT
BRANCH   1  15
ATOM     12  C   UNL     1       5.242   2.616  24.212  0.00  0.00    +0.162 A 
ATOM     13  C   UNL     1       5.157   1.632  25.197  0.00  0.00    +0.050 A 
ATOM     14  C   UNL     1       5.821   0.420  25.037  0.00  0.00    +0.015 A 
ATOM     15  C   UNL     1       6.618   0.186  23.909  0.00  0.00    +0.025 A 
ATOM     16  C   UNL     1       6.711   1.163  22.912  0.00  0.00    +0.061 A 
ATOM     17  C   UNL     1       6.005   2.370  23.052  0.00  0.00    +0.162 A 
BRANCH  12  19
ATOM     18  C   UNL     1       5.129   4.706  25.325  0.00  0.00    +0.277 C 
ATOM     19  O   UNL     1       4.625   3.840  24.315  0.00  0.00    -0.491 OA
ENDBRANCH  12  19
BRANCH  17  20
ATOM     20  O   UNL     1       6.045   3.377  22.119  0.00  0.00    -0.491 OA
ATOM     21  C   UNL     1       7.200   4.214  22.178  0.00  0.00    +0.277 C 
ENDBRANCH  17  20
ENDBRANCH   1  15
BRANCH   5  22
ATOM     22  O   UNL     1      10.437  -4.957  24.919  0.00  0.00    -0.506 OA
ATOM     23  H   UNL     1      10.935  -4.209  25.321  0.00  0.00    +0.292 HD
ENDBRANCH   5  22
BRANCH   7  24
ATOM     24  O   UNL     1       6.095  -6.313  26.465  0.00  0.00    -0.495 OA
ATOM     25  C   UNL     1       4.816  -6.484  25.856  0.00  0.00    +0.277 C 
ENDBRANCH   7  24
BRANCH  11  26
ATOM     26  O   UNL     1       9.514  -0.125  23.400  0.00  0.00    -0.317 OA
BRANCH  26  27
ATOM     27  S   UNL     1      10.164   0.777  24.583  0.00  0.00    +0.252 S 
ATOM     28  O   UNL     1       9.545   2.082  24.576  0.00  0.00    -0.108 OA
ATOM     29  O   UNL     1      11.603   0.629  24.598  0.00  0.00    -0.108 OA
BRANCH  27  30
ATOM     30  O   UNL     1       9.634   0.056  25.926  0.00  0.00    -0.222 OA
ATOM     31  H   UNL     1       8.942   0.622  26.321  0.00  0.00    +0.248 HD
ENDBRANCH  27  30
ENDBRANCH  26  27
ENDBRANCH  11  26
TORSDOF 8
ENDMDL
MODEL 6
REMARK VINA RESULT:      -6.5      2.506      6.870
REMARK  Name = 
REMARK  11 active torsions:
REMARK  status: ('A' for Active; 'I' for Inactive)
REMARK    1  A    between atoms: C_1  and  O_2
REMARK    2  A    between atoms: O_2  and  C_3
REMARK    3  A    between atoms: C_4  and  O_28
REMARK    4  A    between atoms: C_6  and  C_9
REMARK    5  A    between atoms: C_10  and  O_23
REMARK    6  A    between atoms: C_14  and  O_22
REMARK    7  A    between atoms: C_16  and  O_20
REMARK    8  A    between atoms: O_20  and  C_21
REMARK    9  A    between atoms: O_23  and  S_24
REMARK   10  A    between atoms: S_24  and  O_27
REMARK   11  A    between atoms: O_28  and  C_29
REMARK                            x       y       z     vdW  Elec       q    Type
REMARK                         _______ _______ _______ _____ _____    ______ ____
ROOT
ATOM      1  C   UNL     1       7.560  -0.535  22.883  0.00  0.00    +0.184 A 
ATOM      2  O   UNL     1       6.460  -1.385  22.865  0.00  0.00    -0.451 OA
ATOM      3  C   UNL     1       6.624  -2.666  23.331  0.00  0.00    +0.147 A 
ATOM      4  C   UNL     1       7.878  -3.205  23.595  0.00  0.00    +0.109 A 
ATOM      5  C   UNL     1       7.987  -4.507  24.087  0.00  0.00    +0.135 A 
ATOM      6  C   UNL     1       6.846  -5.280  24.305  0.00  0.00    +0.092 A 
ATOM      7  C   UNL     1       5.584  -4.749  24.033  0.00  0.00    +0.127 A 
ATOM      8  C   UNL     1       9.059  -2.366  23.383  0.00  0.00    +0.241 A 
ATOM      9  O   UNL     1      10.185  -2.836  23.505  0.00  0.00    -0.283 OA
ATOM     10  C   UNL     1       5.477  -3.436  23.556  0.00  0.00    +0.092 A 
ATOM     11  C   UNL     1       8.834  -0.928  23.104  0.00  0.00    +0.248 A 
ENDROOT
BRANCH   1  15
ATOM     12  C   UNL     1       6.494   3.597  22.639  0.00  0.00    +0.162 A 
ATOM     13  C   UNL     1       7.349   3.005  21.708  0.00  0.00    +0.050 A 
ATOM     14  C   UNL     1       7.703   1.666  21.834  0.00  0.00    +0.015 A 
ATOM     15  C   UNL     1       7.173   0.881  22.867  0.00  0.00    +0.025 A 
ATOM     16  C   UNL     1       6.317   1.461  23.808  0.00  0.00    +0.061 A 
ATOM     17  C   UNL     1       5.995   2.825  23.708  0.00  0.00    +0.162 A 
BRANCH  12  19
ATOM     18  C   UNL     1       7.097   5.846  22.197  0.00  0.00    +0.277 C 
ATOM     19  O   UNL     1       6.092   4.909  22.565  0.00  0.00    -0.491 OA
ENDBRANCH  12  19
BRANCH  17  20
ATOM     20  O   UNL     1       5.162   3.467  24.591  0.00  0.00    -0.491 OA
ATOM     21  C   UNL     1       3.819   2.984  24.620  0.00  0.00    +0.277 C 
ENDBRANCH  17  20
ENDBRANCH   1  15
BRANCH   5  22
ATOM     22  O   UNL     1       9.185  -5.091  24.400  0.00  0.00    -0.506 OA
ATOM     23  H   UNL     1       9.097  -6.063  24.275  0.00  0.00    +0.292 HD
ENDBRANCH   5  22
BRANCH   7  24
ATOM     24  O   UNL     1       4.395  -5.409  24.196  0.00  0.00    -0.495 OA
ATOM     25  C   UNL     1       4.456  -6.833  24.263  0.00  0.00    +0.277 C 
ENDBRANCH   7  24
BRANCH  11  26
ATOM     26  O   UNL     1       9.921  -0.110  23.325  0.00  0.00    -0.317 OA
BRANCH  26  27
ATOM     27  S   UNL     1      10.332   0.468  24.785  0.00  0.00    +0.252 S 
ATOM     28  O   UNL     1      11.763   0.659  24.832  0.00  0.00    -0.108 OA
ATOM     29  O   UNL     1       9.637  -0.255  25.829  0.00  0.00    -0.108 OA
BRANCH  27  30
ATOM     30  O   UNL     1       9.699   1.952  24.783  0.00  0.00    -0.222 OA
ATOM     31  H   UNL     1      10.152   2.474  24.092  0.00  0.00    +0.248 HD
ENDBRANCH  27  30
ENDBRANCH  26  27
ENDBRANCH  11  26
TORSDOF 8
ENDMDL
MODEL 7
REMARK VINA RESULT:      -6.2      3.212      6.978
REMARK  Name = 
REMARK  11 active torsions:
REMARK  status: ('A' for Active; 'I' for Inactive)
REMARK    1  A    between atoms: C_1  and  O_2
REMARK    2  A    between atoms: O_2  and  C_3
REMARK    3  A    between atoms: C_4  and  O_28
REMARK    4  A    between atoms: C_6  and  C_9
REMARK    5  A    between atoms: C_10  and  O_23
REMARK    6  A    between atoms: C_14  and  O_22
REMARK    7  A    between atoms: C_16  and  O_20
REMARK    8  A    between atoms: O_20  and  C_21
REMARK    9  A    between atoms: O_23  and  S_24
REMARK   10  A    between atoms: S_24  and  O_27
REMARK   11  A    between atoms: O_28  and  C_29
REMARK                            x       y       z     vdW  Elec       q    Type
REMARK                         _______ _______ _______ _____ _____    ______ ____
ROOT
ATOM      1  C   UNL     1       7.563  -0.793  24.907  0.00  0.00    +0.184 A 
ATOM      2  O   UNL     1       6.901  -1.769  25.644  0.00  0.00    -0.451 OA
ATOM      3  C   UNL     1       7.539  -2.966  25.852  0.00  0.00    +0.147 A 
ATOM      4  C   UNL     1       8.698  -3.318  25.172  0.00  0.00    +0.109 A 
ATOM      5  C   UNL     1       9.318  -4.541  25.436  0.00  0.00    +0.135 A 
ATOM      6  C   UNL     1       8.775  -5.422  26.372  0.00  0.00    +0.092 A 
ATOM      7  C   UNL     1       7.606  -5.080  27.053  0.00  0.00    +0.127 A 
ATOM      8  C   UNL     1       9.263  -2.366  24.213  0.00  0.00    +0.241 A 
ATOM      9  O   UNL     1      10.224  -2.680  23.518  0.00  0.00    -0.283 OA
ATOM     10  C   UNL     1       6.996  -3.844  26.797  0.00  0.00    +0.092 A 
ATOM     11  C   UNL     1       8.685  -1.002  24.184  0.00  0.00    +0.248 A 
ENDROOT
BRANCH   1  15
ATOM     12  C   UNL     1       5.886   3.055  25.715  0.00  0.00    +0.162 A 
ATOM     13  C   UNL     1       5.096   1.987  25.291  0.00  0.00    +0.050 A 
ATOM     14  C   UNL     1       5.676   0.755  25.004  0.00  0.00    +0.015 A 
ATOM     15  C   UNL     1       7.052   0.556  25.180  0.00  0.00    +0.025 A 
ATOM     16  C   UNL     1       7.857   1.619  25.603  0.00  0.00    +0.061 A 
ATOM     17  C   UNL     1       7.278   2.875  25.850  0.00  0.00    +0.162 A 
BRANCH  12  19
ATOM     18  C   UNL     1       4.505   4.335  27.155  0.00  0.00    +0.277 C 
ATOM     19  O   UNL     1       5.375   4.292  26.030  0.00  0.00    -0.491 OA
ENDBRANCH  12  19
BRANCH  17  20
ATOM     20  O   UNL     1       8.000   3.967  26.267  0.00  0.00    -0.491 OA
ATOM     21  C   UNL     1       8.661   4.691  25.230  0.00  0.00    +0.277 C 
ENDBRANCH  17  20
ENDBRANCH   1  15
BRANCH   5  22
ATOM     22  O   UNL     1      10.478  -4.939  24.828  0.00  0.00    -0.506 OA
ATOM     23  H   UNL     1      10.312  -5.009  23.861  0.00  0.00    +0.292 HD
ENDBRANCH   5  22
BRANCH   7  24
ATOM     24  O   UNL     1       6.974  -5.861  27.984  0.00  0.00    -0.495 OA
ATOM     25  C   UNL     1       5.599  -6.158  27.745  0.00  0.00    +0.277 C 
ENDBRANCH   7  24
BRANCH  11  26
ATOM     26  O   UNL     1       9.481  -0.039  23.603  0.00  0.00    -0.317 OA
BRANCH  26  27
ATOM     27  S   UNL     1       9.255   0.532  22.101  0.00  0.00    +0.252 S 
ATOM     28  O   UNL     1      10.240   1.554  21.831  0.00  0.00    -0.108 OA
ATOM     29  O   UNL     1       7.848   0.762  21.854  0.00  0.00    -0.108 OA
BRANCH  27  30
ATOM     30  O   UNL     1       9.666  -0.719  21.169  0.00  0.00    -0.222 OA
ATOM     31  H   UNL     1       9.260  -1.524  21.545  0.00  0.00    +0.248 HD
ENDBRANCH  27  30
ENDBRANCH  26  27
ENDBRANCH  11  26
TORSDOF 8
ENDMDL
MODEL 8
REMARK VINA RESULT:      -6.2      2.777      7.245
REMARK  Name = 
REMARK  11 active torsions:
REMARK  status: ('A' for Active; 'I' for Inactive)
REMARK    1  A    between atoms: C_1  and  O_2
REMARK    2  A    between atoms: O_2  and  C_3
REMARK    3  A    between atoms: C_4  and  O_28
REMARK    4  A    between atoms: C_6  and  C_9
REMARK    5  A    between atoms: C_10  and  O_23
REMARK    6  A    between atoms: C_14  and  O_22
REMARK    7  A    between atoms: C_16  and  O_20
REMARK    8  A    between atoms: O_20  and  C_21
REMARK    9  A    between atoms: O_23  and  S_24
REMARK   10  A    between atoms: S_24  and  O_27
REMARK   11  A    between atoms: O_28  and  C_29
REMARK                            x       y       z     vdW  Elec       q    Type
REMARK                         _______ _______ _______ _____ _____    ______ ____
ROOT
ATOM      1  C   UNL     1       8.582  -1.776  24.753  0.00  0.00    +0.184 A 
ATOM      2  O   UNL     1       8.524  -2.746  23.758  0.00  0.00    -0.451 OA
ATOM      3  C   UNL     1       7.644  -3.787  23.920  0.00  0.00    +0.147 A 
ATOM      4  C   UNL     1       6.993  -4.029  25.124  0.00  0.00    +0.109 A 
ATOM      5  C   UNL     1       6.093  -5.090  25.229  0.00  0.00    +0.135 A 
ATOM      6  C   UNL     1       5.849  -5.922  24.136  0.00  0.00    +0.092 A 
ATOM      7  C   UNL     1       6.506  -5.692  22.926  0.00  0.00    +0.127 A 
ATOM      8  C   UNL     1       7.246  -3.126  26.250  0.00  0.00    +0.241 A 
ATOM      9  O   UNL     1       6.773  -3.365  27.356  0.00  0.00    -0.283 OA
ATOM     10  C   UNL     1       7.396  -4.615  22.819  0.00  0.00    +0.092 A 
ATOM     11  C   UNL     1       8.015  -1.890  25.974  0.00  0.00    +0.248 A 
ENDROOT
BRANCH   1  15
ATOM     12  C   UNL     1      10.358   1.872  23.408  0.00  0.00    +0.162 A 
ATOM     13  C   UNL     1      10.953   1.090  24.398  0.00  0.00    +0.050 A 
ATOM     14  C   UNL     1      10.334  -0.076  24.838  0.00  0.00    +0.015 A 
ATOM     15  C   UNL     1       9.129  -0.505  24.264  0.00  0.00    +0.025 A 
ATOM     16  C   UNL     1       8.521   0.271  23.272  0.00  0.00    +0.061 A 
ATOM     17  C   UNL     1       9.123   1.471  22.859  0.00  0.00    +0.162 A 
BRANCH  12  19
ATOM     18  C   UNL     1      10.724   4.196  23.701  0.00  0.00    +0.277 C 
ATOM     19  O   UNL     1      10.924   3.025  22.918  0.00  0.00    -0.491 OA
ENDBRANCH  12  19
BRANCH  17  20
ATOM     20  O   UNL     1       8.588   2.287  21.892  0.00  0.00    -0.491 OA
ATOM     21  C   UNL     1       7.183   2.513  21.997  0.00  0.00    +0.277 C 
ENDBRANCH  17  20
ENDBRANCH   1  15
BRANCH   5  22
ATOM     22  O   UNL     1       5.393  -5.368  26.372  0.00  0.00    -0.506 OA
ATOM     23  H   UNL     1       4.643  -4.734  26.437  0.00  0.00    +0.292 HD
ENDBRANCH   5  22
BRANCH   7  24
ATOM     24  O   UNL     1       6.357  -6.441  21.789  0.00  0.00    -0.495 OA
ATOM     25  C   UNL     1       6.130  -5.726  20.575  0.00  0.00    +0.277 C 
ENDBRANCH   7  24
BRANCH  11  26
ATOM     26  O   UNL     1       7.877  -0.891  26.914  0.00  0.00    -0.317 OA
BRANCH  26  27
ATOM     27  S   UNL     1       6.721   0.246  26.856  0.00  0.00    +0.252 S 
ATOM     28  O   UNL     1       6.112   0.367  28.161  0.00  0.00    -0.108 OA
ATOM     29  O   UNL     1       5.916   0.090  25.665  0.00  0.00    -0.108 OA
BRANCH  27  30
ATOM     30  O   UNL     1       7.558   1.609  26.645  0.00  0.00    -0.222 OA
ATOM     31  H   UNL     1       8.467   1.460  26.972  0.00  0.00    +0.248 HD
ENDBRANCH  27  30
ENDBRANCH  26  27
ENDBRANCH  11  26
TORSDOF 8
ENDMDL
MODEL 9
REMARK VINA RESULT:      -6.2      2.461      3.618
REMARK  Name = 
REMARK  11 active torsions:
REMARK  status: ('A' for Active; 'I' for Inactive)
REMARK    1  A    between atoms: C_1  and  O_2
REMARK    2  A    between atoms: O_2  and  C_3
REMARK    3  A    between atoms: C_4  and  O_28
REMARK    4  A    between atoms: C_6  and  C_9
REMARK    5  A    between atoms: C_10  and  O_23
REMARK    6  A    between atoms: C_14  and  O_22
REMARK    7  A    between atoms: C_16  and  O_20
REMARK    8  A    between atoms: O_20  and  C_21
REMARK    9  A    between atoms: O_23  and  S_24
REMARK   10  A    between atoms: S_24  and  O_27
REMARK   11  A    between atoms: O_28  and  C_29
REMARK                            x       y       z     vdW  Elec       q    Type
REMARK                         _______ _______ _______ _____ _____    ______ ____
ROOT
ATOM      1  C   UNL     1       8.354  -2.234  24.593  0.00  0.00    +0.184 A 
ATOM      2  O   UNL     1       8.720  -1.010  25.142  0.00  0.00    -0.451 OA
ATOM      3  C   UNL     1       8.851   0.065  24.298  0.00  0.00    +0.147 A 
ATOM      4  C   UNL     1       8.861  -0.074  22.916  0.00  0.00    +0.109 A 
ATOM      5  C   UNL     1       8.977   1.055  22.103  0.00  0.00    +0.135 A 
ATOM      6  C   UNL     1       9.097   2.325  22.668  0.00  0.00    +0.092 A 
ATOM      7  C   UNL     1       9.097   2.472  24.056  0.00  0.00    +0.127 A 
ATOM      8  C   UNL     1       8.708  -1.415  22.346  0.00  0.00    +0.241 A 
ATOM      9  O   UNL     1       8.815  -1.591  21.137  0.00  0.00    -0.283 OA
ATOM     10  C   UNL     1       8.963   1.338  24.868  0.00  0.00    +0.092 A 
ATOM     11  C   UNL     1       8.340  -2.512  23.271  0.00  0.00    +0.248 A 
ENDROOT
BRANCH   1  15
ATOM     12  C   UNL     1       6.788  -4.963  27.486  0.00  0.00    +0.162 A 
ATOM     13  C   UNL     1       7.926  -5.264  26.736  0.00  0.00    +0.050 A 
ATOM     14  C   UNL     1       8.391  -4.369  25.779  0.00  0.00    +0.015 A 
ATOM     15  C   UNL     1       7.755  -3.136  25.585  0.00  0.00    +0.025 A 
ATOM     16  C   UNL     1       6.612  -2.822  26.328  0.00  0.00    +0.061 A 
ATOM     17  C   UNL     1       6.115  -3.744  27.263  0.00  0.00    +0.162 A 
BRANCH  12  19
ATOM     18  C   UNL     1       5.347  -6.769  28.016  0.00  0.00    +0.277 C 
ATOM     19  O   UNL     1       6.285  -5.795  28.458  0.00  0.00    -0.491 OA
ENDBRANCH  12  19
BRANCH  17  20
ATOM     20  O   UNL     1       5.001  -3.510  28.031  0.00  0.00    -0.491 OA
ATOM     21  C   UNL     1       3.772  -3.428  27.309  0.00  0.00    +0.277 C 
ENDBRANCH  17  20
ENDBRANCH   1  15
BRANCH   5  22
ATOM     22  O   UNL     1       8.962   0.997  20.735  0.00  0.00    -0.506 OA
ATOM     23  H   UNL     1       9.821   1.343  20.402  0.00  0.00    +0.292 HD
ENDBRANCH   5  22
BRANCH   7  24
ATOM     24  O   UNL     1       9.217   3.660  24.727  0.00  0.00    -0.495 OA
ATOM     25  C   UNL     1       8.783   4.832  24.038  0.00  0.00    +0.277 C 
ENDBRANCH   7  24
BRANCH  11  26
ATOM     26  O   UNL     1       7.804  -3.631  22.671  0.00  0.00    -0.317 OA
BRANCH  26  27
ATOM     27  S   UNL     1       6.229  -3.793  22.311  0.00  0.00    +0.252 S 
ATOM     28  O   UNL     1       5.546  -4.383  23.439  0.00  0.00    -0.108 OA
ATOM     29  O   UNL     1       6.068  -4.324  20.975  0.00  0.00    -0.108 OA
BRANCH  27  30
ATOM     30  O   UNL     1       5.710  -2.267  22.243  0.00  0.00    -0.222 OA
ATOM     31  H   UNL     1       4.782  -2.276  21.937  0.00  0.00    +0.248 HD
ENDBRANCH  27  30
ENDBRANCH  26  27
ENDBRANCH  11  26
TORSDOF 8
ENDMDL
