MODEL 1
REMARK VINA RESULT:      -7.4      0.000      0.000
REMARK  Name = 
REMARK  16 active torsions:
REMARK  status: ('A' for Active; 'I' for Inactive)
REMARK    1  A    between atoms: C_1  and  C_2
REMARK    2  A    between atoms: C_3  and  O_48
REMARK    3  A    between atoms: C_5  and  O_47
REMARK    4  A    between atoms: C_6  and  O_46
REMARK    5  A    between atoms: C_8  and  O_11
REMARK    6  A    between atoms: O_11  and  C_12
REMARK    7  A    between atoms: C_14  and  O_24
REMARK    8  A    between atoms: C_17  and  C_23
REMARK    9  A    between atoms: C_18  and  O_22
REMARK   10  A    between atoms: C_20  and  O_21
REMARK   11  A    between atoms: O_24  and  C_25
REMARK   12  A    between atoms: C_26  and  C_38
REMARK   13  A    between atoms: C_30  and  O_37
REMARK   14  A    between atoms: C_32  and  O_36
REMARK   15  A    between atoms: C_40  and  O_45
REMARK   16  A    between atoms: C_41  and  O_44
REMARK                            x       y       z     vdW  Elec       q    Type
REMARK                         _______ _______ _______ _____ _____    ______ ____
ROOT
ATOM      1  O   UNL     1       6.716   2.017  24.264  0.00  0.00    -0.453 OA
ENDROOT
BRANCH   1   2
ATOM      2  C   UNL     1       8.037   2.355  23.923  0.00  0.00    +0.214 A 
ATOM      3  C   UNL     1       8.388   3.799  23.716  0.00  0.00    +0.238 A 
ATOM      4  O   UNL     1       7.518   4.636  23.512  0.00  0.00    -0.283 OA
ATOM      5  C   UNL     1       9.803   4.170  23.663  0.00  0.00    +0.109 A 
ATOM      6  C   UNL     1      10.724   3.143  23.487  0.00  0.00    +0.147 A 
ATOM      7  C   UNL     1      12.089   3.448  23.376  0.00  0.00    +0.092 A 
ATOM      8  C   UNL     1      12.501   4.785  23.416  0.00  0.00    +0.124 A 
ATOM      9  C   UNL     1      11.582   5.814  23.579  0.00  0.00    +0.091 A 
ATOM     10  O   UNL     1      10.341   1.828  23.352  0.00  0.00    -0.451 OA
ATOM     11  C   UNL     1      10.236   5.504  23.718  0.00  0.00    +0.135 A 
ATOM     12  C   UNL     1       9.005   1.461  23.580  0.00  0.00    +0.181 A 
BRANCH  12  13
ATOM     13  C   UNL     1       8.781  -0.015  23.342  0.00  0.00    +0.025 A 
ATOM     14  C   UNL     1       7.635  -0.491  22.661  0.00  0.00    +0.015 A 
ATOM     15  C   UNL     1       7.369  -1.868  22.519  0.00  0.00    +0.050 A 
ATOM     16  C   UNL     1       8.254  -2.784  23.046  0.00  0.00    +0.158 A 
ATOM     17  C   UNL     1       9.382  -2.355  23.720  0.00  0.00    +0.159 A 
ATOM     18  C   UNL     1       9.633  -0.989  23.903  0.00  0.00    +0.060 A 
BRANCH  16  19
ATOM     19  O   UNL     1       8.017  -4.123  22.908  0.00  0.00    -0.503 OA
ATOM     20  H   UNL     1       7.163  -4.173  22.421  0.00  0.00    +0.292 HD
ENDBRANCH  16  19
BRANCH  17  21
ATOM     21  O   UNL     1      10.238  -3.307  24.203  0.00  0.00    -0.503 OA
ATOM     22  H   UNL     1       9.700  -4.063  24.498  0.00  0.00    +0.292 HD
ENDBRANCH  17  21
ENDBRANCH  12  13
BRANCH   8  23
ATOM     23  O   UNL     1      13.808   5.150  23.294  0.00  0.00    -0.507 OA
ATOM     24  H   UNL     1      13.921   6.063  23.608  0.00  0.00    +0.292 HD
ENDBRANCH   8  23
BRANCH  11  25
ATOM     25  O   UNL     1       9.350   6.527  23.913  0.00  0.00    -0.506 OA
ATOM     26  H   UNL     1       9.808   7.309  24.257  0.00  0.00    +0.292 HD
ENDBRANCH  11  25
ENDBRANCH   1   2
BRANCH   1  33
ATOM     27  C   UNL     1       4.649   2.471  25.662  0.00  0.00    +0.221 C 
ATOM     28  C   UNL     1       4.429   1.255  26.573  0.00  0.00    +0.180 C 
ATOM     29  C   UNL     1       5.377   1.310  27.778  0.00  0.00    +0.174 C 
ATOM     30  C   UNL     1       6.840   1.409  27.335  0.00  0.00    +0.150 C 
ATOM     31  C   UNL     1       7.426   0.159  26.684  0.00  0.00    +0.041 C 
ATOM     32  O   UNL     1       7.034   2.583  26.553  0.00  0.00    -0.334 OA
ATOM     33  C   UNL     1       6.185   2.741  25.403  0.00  0.00    +0.340 C 
BRANCH  28  34
ATOM     34  O   UNL     1       4.557   0.033  25.833  0.00  0.00    -0.386 OA
ATOM     35  H   UNL     1       5.418   0.064  25.376  0.00  0.00    +0.210 HD
ENDBRANCH  28  34
BRANCH  29  36
ATOM     36  O   UNL     1       5.146   0.212  28.661  0.00  0.00    -0.387 OA
ATOM     37  H   UNL     1       5.630  -0.557  28.315  0.00  0.00    +0.210 HD
ENDBRANCH  29  36
BRANCH  27  38
ATOM     38  O   UNL     1       3.949   2.363  24.414  0.00  0.00    -0.337 OA
BRANCH  38  42
ATOM     39  C   UNL     1       0.443   4.566  23.438  0.00  0.00    +0.041 C 
ATOM     40  C   UNL     1       1.365   3.910  22.412  0.00  0.00    +0.149 C 
ATOM     41  O   UNL     1       2.244   2.969  23.024  0.00  0.00    -0.343 OA
ATOM     42  C   UNL     1       3.278   3.507  23.864  0.00  0.00    +0.282 C 
ATOM     43  C   UNL     1       4.171   4.515  23.083  0.00  0.00    +0.201 C 
ATOM     44  C   UNL     1       3.297   5.549  22.329  0.00  0.00    +0.179 C 
ATOM     45  C   UNL     1       2.130   4.923  21.553  0.00  0.00    +0.174 C 
BRANCH  43  46
ATOM     46  O   UNL     1       5.073   3.833  22.200  0.00  0.00    -0.384 OA
ATOM     47  H   UNL     1       5.076   4.314  21.354  0.00  0.00    +0.210 HD
ENDBRANCH  43  46
BRANCH  44  48
ATOM     48  O   UNL     1       4.104   6.308  21.408  0.00  0.00    -0.386 OA
ATOM     49  H   UNL     1       4.535   7.006  21.944  0.00  0.00    +0.210 HD
ENDBRANCH  44  48
BRANCH  45  50
ATOM     50  O   UNL     1       2.682   4.318  20.369  0.00  0.00    -0.387 OA
ATOM     51  H   UNL     1       3.429   4.871  20.074  0.00  0.00    +0.210 HD
ENDBRANCH  45  50
ENDBRANCH  38  42
ENDBRANCH  27  38
ENDBRANCH   1  33
TORSDOF 14
ENDMDL
MODEL 2
REMARK VINA RESULT:      -7.4      3.785      7.563
REMARK  Name = 
REMARK  16 active torsions:
REMARK  status: ('A' for Active; 'I' for Inactive)
REMARK    1  A    between atoms: C_1  and  C_2
REMARK    2  A    between atoms: C_3  and  O_48
REMARK    3  A    between atoms: C_5  and  O_47
REMARK    4  A    between atoms: C_6  and  O_46
REMARK    5  A    between atoms: C_8  and  O_11
REMARK    6  A    between atoms: O_11  and  C_12
REMARK    7  A    between atoms: C_14  and  O_24
REMARK    8  A    between atoms: C_17  and  C_23
REMARK    9  A    between atoms: C_18  and  O_22
REMARK   10  A    between atoms: C_20  and  O_21
REMARK   11  A    between atoms: O_24  and  C_25
REMARK   12  A    between atoms: C_26  and  C_38
REMARK   13  A    between atoms: C_30  and  O_37
REMARK   14  A    between atoms: C_32  and  O_36
REMARK   15  A    between atoms: C_40  and  O_45
REMARK   16  A    between atoms: C_41  and  O_44
REMARK                            x       y       z     vdW  Elec       q    Type
REMARK                         _______ _______ _______ _____ _____    ______ ____
ROOT
ATOM      1  O   UNL     1       6.442  -3.202  25.349  0.00  0.00    -0.453 OA
ENDROOT
BRANCH   1   2
ATOM      2  C   UNL     1       5.935  -2.402  26.388  0.00  0.00    +0.214 A 
ATOM      3  C   UNL     1       6.689  -1.169  26.789  0.00  0.00    +0.238 A 
ATOM      4  O   UNL     1       7.865  -1.021  26.482  0.00  0.00    -0.283 OA
ATOM      5  C   UNL     1       6.016  -0.190  27.645  0.00  0.00    +0.109 A 
ATOM      6  C   UNL     1       4.855  -0.602  28.290  0.00  0.00    +0.147 A 
ATOM      7  C   UNL     1       4.199   0.279  29.164  0.00  0.00    +0.092 A 
ATOM      8  C   UNL     1       4.740   1.550  29.394  0.00  0.00    +0.124 A 
ATOM      9  C   UNL     1       5.906   1.959  28.762  0.00  0.00    +0.091 A 
ATOM     10  O   UNL     1       4.351  -1.875  28.155  0.00  0.00    -0.451 OA
ATOM     11  C   UNL     1       6.535   1.093  27.875  0.00  0.00    +0.135 A 
ATOM     12  C   UNL     1       4.898  -2.747  27.200  0.00  0.00    +0.181 A 
BRANCH  12  13
ATOM     13  C   UNL     1       4.235  -4.105  27.236  0.00  0.00    +0.025 A 
ATOM     14  C   UNL     1       2.952  -4.318  26.677  0.00  0.00    +0.015 A 
ATOM     15  C   UNL     1       2.284  -5.555  26.792  0.00  0.00    +0.050 A 
ATOM     16  C   UNL     1       2.899  -6.595  27.455  0.00  0.00    +0.158 A 
ATOM     17  C   UNL     1       4.151  -6.421  28.014  0.00  0.00    +0.159 A 
ATOM     18  C   UNL     1       4.804  -5.184  27.943  0.00  0.00    +0.060 A 
BRANCH  16  19
ATOM     19  O   UNL     1       2.271  -7.803  27.565  0.00  0.00    -0.503 OA
ATOM     20  H   UNL     1       1.918  -7.981  26.663  0.00  0.00    +0.292 HD
ENDBRANCH  16  19
BRANCH  17  21
ATOM     21  O   UNL     1       4.724  -7.494  28.641  0.00  0.00    -0.503 OA
ATOM     22  H   UNL     1       5.505  -7.171  29.124  0.00  0.00    +0.292 HD
ENDBRANCH  17  21
ENDBRANCH  12  13
BRANCH   8  23
ATOM     23  O   UNL     1       4.164   2.444  30.245  0.00  0.00    -0.507 OA
ATOM     24  H   UNL     1       3.431   2.896  29.794  0.00  0.00    +0.292 HD
ENDBRANCH   8  23
BRANCH  11  25
ATOM     25  O   UNL     1       7.662   1.525  27.233  0.00  0.00    -0.506 OA
ATOM     26  H   UNL     1       8.258   0.781  27.059  0.00  0.00    +0.292 HD
ENDBRANCH  11  25
ENDBRANCH   1   2
BRANCH   1  33
ATOM     27  C   UNL     1       6.915  -2.920  22.873  0.00  0.00    +0.221 C 
ATOM     28  C   UNL     1       7.137  -4.319  22.280  0.00  0.00    +0.180 C 
ATOM     29  C   UNL     1       5.792  -5.021  22.045  0.00  0.00    +0.174 C 
ATOM     30  C   UNL     1       4.965  -5.092  23.333  0.00  0.00    +0.150 C 
ATOM     31  C   UNL     1       5.490  -6.036  24.411  0.00  0.00    +0.041 C 
ATOM     32  O   UNL     1       4.711  -3.779  23.822  0.00  0.00    -0.334 OA
ATOM     33  C   UNL     1       5.857  -2.941  24.048  0.00  0.00    +0.340 C 
BRANCH  28  34
ATOM     34  O   UNL     1       8.017  -5.091  23.109  0.00  0.00    -0.386 OA
ATOM     35  H   UNL     1       7.971  -4.711  24.007  0.00  0.00    +0.210 HD
ENDBRANCH  28  34
BRANCH  29  36
ATOM     36  O   UNL     1       5.982  -6.301  21.445  0.00  0.00    -0.387 OA
ATOM     37  H   UNL     1       6.075  -6.955  22.159  0.00  0.00    +0.210 HD
ENDBRANCH  29  36
BRANCH  27  38
ATOM     38  O   UNL     1       8.133  -2.306  23.316  0.00  0.00    -0.337 OA
BRANCH  38  42
ATOM     39  C   UNL     1       6.485   1.555  24.005  0.00  0.00    +0.041 C 
ATOM     40  C   UNL     1       6.920   1.033  22.638  0.00  0.00    +0.149 C 
ATOM     41  O   UNL     1       7.104  -0.381  22.651  0.00  0.00    -0.343 OA
ATOM     42  C   UNL     1       8.233  -0.875  23.390  0.00  0.00    +0.282 C 
ATOM     43  C   UNL     1       9.563  -0.254  22.872  0.00  0.00    +0.201 C 
ATOM     44  C   UNL     1       9.440   1.288  22.763  0.00  0.00    +0.179 C 
ATOM     45  C   UNL     1       8.149   1.758  22.078  0.00  0.00    +0.174 C 
BRANCH  43  46
ATOM     46  O   UNL     1       9.962  -0.846  21.628  0.00  0.00    -0.384 OA
ATOM     47  H   UNL     1       9.518  -1.709  21.557  0.00  0.00    +0.210 HD
ENDBRANCH  43  46
BRANCH  44  48
ATOM     48  O   UNL     1      10.563   1.829  22.044  0.00  0.00    -0.386 OA
ATOM     49  H   UNL     1      11.335   1.282  22.304  0.00  0.00    +0.210 HD
ENDBRANCH  44  48
BRANCH  45  50
ATOM     50  O   UNL     1       8.311   1.532  20.665  0.00  0.00    -0.387 OA
ATOM     51  H   UNL     1       7.522   1.886  20.215  0.00  0.00    +0.210 HD
ENDBRANCH  45  50
ENDBRANCH  38  42
ENDBRANCH  27  38
ENDBRANCH   1  33
TORSDOF 14
ENDMDL
MODEL 3
REMARK VINA RESULT:      -7.3      3.660      8.211
REMARK  Name = 
REMARK  16 active torsions:
REMARK  status: ('A' for Active; 'I' for Inactive)
REMARK    1  A    between atoms: C_1  and  C_2
REMARK    2  A    between atoms: C_3  and  O_48
REMARK    3  A    between atoms: C_5  and  O_47
REMARK    4  A    between atoms: C_6  and  O_46
REMARK    5  A    between atoms: C_8  and  O_11
REMARK    6  A    between atoms: O_11  and  C_12
REMARK    7  A    between atoms: C_14  and  O_24
REMARK    8  A    between atoms: C_17  and  C_23
REMARK    9  A    between atoms: C_18  and  O_22
REMARK   10  A    between atoms: C_20  and  O_21
REMARK   11  A    between atoms: O_24  and  C_25
REMARK   12  A    between atoms: C_26  and  C_38
REMARK   13  A    between atoms: C_30  and  O_37
REMARK   14  A    between atoms: C_32  and  O_36
REMARK   15  A    between atoms: C_40  and  O_45
REMARK   16  A    between atoms: C_41  and  O_44
REMARK                            x       y       z     vdW  Elec       q    Type
REMARK                         _______ _______ _______ _____ _____    ______ ____
ROOT
ATOM      1  O   UNL     1       6.394  -1.773  24.825  0.00  0.00    -0.453 OA
ENDROOT
BRANCH   1   2
ATOM      2  C   UNL     1       5.930  -0.627  25.493  0.00  0.00    +0.214 A 
ATOM      3  C   UNL     1       4.617  -0.689  26.217  0.00  0.00    +0.238 A 
ATOM      4  O   UNL     1       3.804  -1.572  25.974  0.00  0.00    -0.283 OA
ATOM      5  C   UNL     1       4.286   0.389  27.151  0.00  0.00    +0.109 A 
ATOM      6  C   UNL     1       5.046   1.552  27.074  0.00  0.00    +0.147 A 
ATOM      7  C   UNL     1       4.737   2.637  27.909  0.00  0.00    +0.092 A 
ATOM      8  C   UNL     1       3.651   2.542  28.787  0.00  0.00    +0.124 A 
ATOM      9  C   UNL     1       2.883   1.387  28.856  0.00  0.00    +0.091 A 
ATOM     10  O   UNL     1       6.060   1.708  26.157  0.00  0.00    -0.451 OA
ATOM     11  C   UNL     1       3.211   0.306  28.049  0.00  0.00    +0.135 A 
ATOM     12  C   UNL     1       6.486   0.612  25.391  0.00  0.00    +0.181 A 
BRANCH  12  13
ATOM     13  C   UNL     1       7.578   0.998  24.419  0.00  0.00    +0.025 A 
ATOM     14  C   UNL     1       8.858   1.406  24.866  0.00  0.00    +0.015 A 
ATOM     15  C   UNL     1       9.850   1.861  23.974  0.00  0.00    +0.050 A 
ATOM     16  C   UNL     1       9.577   1.900  22.623  0.00  0.00    +0.158 A 
ATOM     17  C   UNL     1       8.336   1.511  22.152  0.00  0.00    +0.159 A 
ATOM     18  C   UNL     1       7.330   1.097  23.035  0.00  0.00    +0.060 A 
BRANCH  16  19
ATOM     19  O   UNL     1      10.531   2.327  21.743  0.00  0.00    -0.503 OA
ATOM     20  H   UNL     1      11.320   2.506  22.303  0.00  0.00    +0.292 HD
ENDBRANCH  16  19
BRANCH  17  21
ATOM     21  O   UNL     1       8.128   1.548  20.800  0.00  0.00    -0.503 OA
ATOM     22  H   UNL     1       8.926   1.196  20.369  0.00  0.00    +0.292 HD
ENDBRANCH  17  21
ENDBRANCH  12  13
BRANCH   8  23
ATOM     23  O   UNL     1       3.286   3.565  29.609  0.00  0.00    -0.507 OA
ATOM     24  H   UNL     1       3.988   4.237  29.623  0.00  0.00    +0.292 HD
ENDBRANCH   8  23
BRANCH  11  25
ATOM     25  O   UNL     1       2.467  -0.836  28.156  0.00  0.00    -0.506 OA
ATOM     26  H   UNL     1       2.703  -1.318  28.963  0.00  0.00    +0.292 HD
ENDBRANCH  11  25
ENDBRANCH   1   2
BRANCH   1  33
ATOM     27  C   UNL     1       6.165  -4.298  24.919  0.00  0.00    +0.221 C 
ATOM     28  C   UNL     1       7.390  -4.902  24.219  0.00  0.00    +0.180 C 
ATOM     29  C   UNL     1       8.607  -4.878  25.154  0.00  0.00    +0.174 C 
ATOM     30  C   UNL     1       8.901  -3.461  25.655  0.00  0.00    +0.150 C 
ATOM     31  C   UNL     1       9.439  -2.483  24.613  0.00  0.00    +0.041 C 
ATOM     32  O   UNL     1       7.775  -2.952  26.364  0.00  0.00    -0.334 OA
ATOM     33  C   UNL     1       6.519  -2.949  25.665  0.00  0.00    +0.340 C 
BRANCH  28  34
ATOM     34  O   UNL     1       7.647  -4.237  22.974  0.00  0.00    -0.386 OA
ATOM     35  H   UNL     1       8.304  -3.538  23.153  0.00  0.00    +0.210 HD
ENDBRANCH  28  34
BRANCH  29  36
ATOM     36  O   UNL     1       9.740  -5.485  24.534  0.00  0.00    -0.387 OA
ATOM     37  H   UNL     1      10.540  -5.099  24.930  0.00  0.00    +0.210 HD
ENDBRANCH  29  36
BRANCH  27  38
ATOM     38  O   UNL     1       5.061  -4.092  24.025  0.00  0.00    -0.337 OA
BRANCH  38  42
ATOM     39  C   UNL     1       1.613  -5.050  26.326  0.00  0.00    +0.041 C 
ATOM     40  C   UNL     1       2.767  -6.013  26.057  0.00  0.00    +0.149 C 
ATOM     41  O   UNL     1       3.917  -5.329  25.565  0.00  0.00    -0.343 OA
ATOM     42  C   UNL     1       3.826  -4.795  24.234  0.00  0.00    +0.282 C 
ATOM     43  C   UNL     1       3.488  -5.909  23.200  0.00  0.00    +0.201 C 
ATOM     44  C   UNL     1       2.281  -6.752  23.681  0.00  0.00    +0.179 C 
ATOM     45  C   UNL     1       2.375  -7.186  25.150  0.00  0.00    +0.174 C 
BRANCH  43  46
ATOM     46  O   UNL     1       4.635  -6.726  22.925  0.00  0.00    -0.384 OA
ATOM     47  H   UNL     1       5.426  -6.214  23.168  0.00  0.00    +0.210 HD
ENDBRANCH  43  46
BRANCH  44  48
ATOM     48  O   UNL     1       2.138  -7.930  22.864  0.00  0.00    -0.386 OA
ATOM     49  H   UNL     1       2.767  -8.586  23.230  0.00  0.00    +0.210 HD
ENDBRANCH  44  48
BRANCH  45  50
ATOM     50  O   UNL     1       3.331  -8.261  25.216  0.00  0.00    -0.387 OA
ATOM     51  H   UNL     1       4.180  -7.924  24.874  0.00  0.00    +0.210 HD
ENDBRANCH  45  50
ENDBRANCH  38  42
ENDBRANCH  27  38
ENDBRANCH   1  33
TORSDOF 14
ENDMDL
MODEL 4
REMARK VINA RESULT:      -7.2      2.783      8.255
REMARK  Name = 
REMARK  16 active torsions:
REMARK  status: ('A' for Active; 'I' for Inactive)
REMARK    1  A    between atoms: C_1  and  C_2
REMARK    2  A    between atoms: C_3  and  O_48
REMARK    3  A    between atoms: C_5  and  O_47
REMARK    4  A    between atoms: C_6  and  O_46
REMARK    5  A    between atoms: C_8  and  O_11
REMARK    6  A    between atoms: O_11  and  C_12
REMARK    7  A    between atoms: C_14  and  O_24
REMARK    8  A    between atoms: C_17  and  C_23
REMARK    9  A    between atoms: C_18  and  O_22
REMARK   10  A    between atoms: C_20  and  O_21
REMARK   11  A    between atoms: O_24  and  C_25
REMARK   12  A    between atoms: C_26  and  C_38
REMARK   13  A    between atoms: C_30  and  O_37
REMARK   14  A    between atoms: C_32  and  O_36
REMARK   15  A    between atoms: C_40  and  O_45
REMARK   16  A    between atoms: C_41  and  O_44
REMARK                            x       y       z     vdW  Elec       q    Type
REMARK                         _______ _______ _______ _____ _____    ______ ____
ROOT
ATOM      1  O   UNL     1       7.063   0.243  24.337  0.00  0.00    -0.453 OA
ENDROOT
BRANCH   1   2
ATOM      2  C   UNL     1       6.318   0.927  25.312  0.00  0.00    +0.214 A 
ATOM      3  C   UNL     1       5.180   0.219  25.987  0.00  0.00    +0.238 A 
ATOM      4  O   UNL     1       4.683  -0.786  25.496  0.00  0.00    -0.283 OA
ATOM      5  C   UNL     1       4.610   0.815  27.197  0.00  0.00    +0.109 A 
ATOM      6  C   UNL     1       4.932   2.141  27.465  0.00  0.00    +0.147 A 
ATOM      7  C   UNL     1       4.370   2.778  28.582  0.00  0.00    +0.092 A 
ATOM      8  C   UNL     1       3.472   2.076  29.394  0.00  0.00    +0.124 A 
ATOM      9  C   UNL     1       3.138   0.756  29.122  0.00  0.00    +0.091 A 
ATOM     10  O   UNL     1       5.738   2.884  26.633  0.00  0.00    -0.451 OA
ATOM     11  C   UNL     1       3.720   0.122  28.032  0.00  0.00    +0.135 A 
ATOM     12  C   UNL     1       6.422   2.258  25.578  0.00  0.00    +0.181 A 
BRANCH  12  13
ATOM     13  C   UNL     1       7.220   3.250  24.762  0.00  0.00    +0.025 A 
ATOM     14  C   UNL     1       8.517   3.657  25.153  0.00  0.00    +0.015 A 
ATOM     15  C   UNL     1       9.230   4.652  24.453  0.00  0.00    +0.050 A 
ATOM     16  C   UNL     1       8.656   5.241  23.346  0.00  0.00    +0.158 A 
ATOM     17  C   UNL     1       7.389   4.868  22.937  0.00  0.00    +0.159 A 
ATOM     18  C   UNL     1       6.657   3.911  23.651  0.00  0.00    +0.060 A 
BRANCH  16  19
ATOM     19  O   UNL     1       9.337   6.199  22.649  0.00  0.00    -0.503 OA
ATOM     20  H   UNL     1      10.033   5.701  22.162  0.00  0.00    +0.292 HD
ENDBRANCH  16  19
BRANCH  17  21
ATOM     21  O   UNL     1       6.878   5.468  21.819  0.00  0.00    -0.503 OA
ATOM     22  H   UNL     1       7.391   6.280  21.659  0.00  0.00    +0.292 HD
ENDBRANCH  17  21
ENDBRANCH  12  13
BRANCH   8  23
ATOM     23  O   UNL     1       2.876   2.642  30.481  0.00  0.00    -0.507 OA
ATOM     24  H   UNL     1       3.538   3.138  30.993  0.00  0.00    +0.292 HD
ENDBRANCH   8  23
BRANCH  11  25
ATOM     25  O   UNL     1       3.409  -1.189  27.799  0.00  0.00    -0.506 OA
ATOM     26  H   UNL     1       3.112  -1.308  26.884  0.00  0.00    +0.292 HD
ENDBRANCH  11  25
ENDBRANCH   1   2
BRANCH   1  33
ATOM     27  C   UNL     1       8.163  -2.042  24.403  0.00  0.00    +0.221 C 
ATOM     28  C   UNL     1       8.899  -2.242  23.071  0.00  0.00    +0.180 C 
ATOM     29  C   UNL     1      10.236  -1.488  23.078  0.00  0.00    +0.174 C 
ATOM     30  C   UNL     1      10.037   0.000  23.381  0.00  0.00    +0.150 C 
ATOM     31  C   UNL     1       9.359   0.819  22.285  0.00  0.00    +0.041 C 
ATOM     32  O   UNL     1       9.420   0.161  24.654  0.00  0.00    -0.334 OA
ATOM     33  C   UNL     1       8.175  -0.528  24.859  0.00  0.00    +0.340 C 
BRANCH  28  34
ATOM     34  O   UNL     1       8.066  -1.864  21.966  0.00  0.00    -0.386 OA
ATOM     35  H   UNL     1       7.186  -2.254  22.125  0.00  0.00    +0.210 HD
ENDBRANCH  28  34
BRANCH  29  36
ATOM     36  O   UNL     1      10.954  -1.709  21.865  0.00  0.00    -0.387 OA
ATOM     37  H   UNL     1      11.230  -2.641  21.846  0.00  0.00    +0.210 HD
ENDBRANCH  29  36
BRANCH  27  38
ATOM     38  O   UNL     1       6.817  -2.539  24.374  0.00  0.00    -0.337 OA
BRANCH  38  42
ATOM     39  C   UNL     1       6.934  -5.958  21.846  0.00  0.00    +0.041 C 
ATOM     40  C   UNL     1       5.655  -5.229  22.255  0.00  0.00    +0.149 C 
ATOM     41  O   UNL     1       5.938  -3.946  22.807  0.00  0.00    -0.343 OA
ATOM     42  C   UNL     1       6.568  -3.925  24.099  0.00  0.00    +0.282 C 
ATOM     43  C   UNL     1       5.716  -4.691  25.154  0.00  0.00    +0.201 C 
ATOM     44  C   UNL     1       5.305  -6.085  24.616  0.00  0.00    +0.179 C 
ATOM     45  C   UNL     1       4.759  -6.058  23.182  0.00  0.00    +0.174 C 
BRANCH  43  46
ATOM     46  O   UNL     1       4.578  -3.918  25.560  0.00  0.00    -0.384 OA
ATOM     47  H   UNL     1       4.896  -3.216  26.155  0.00  0.00    +0.210 HD
ENDBRANCH  43  46
BRANCH  44  48
ATOM     48  O   UNL     1       4.311  -6.677  25.474  0.00  0.00    -0.386 OA
ATOM     49  H   UNL     1       4.540  -6.393  26.383  0.00  0.00    +0.210 HD
ENDBRANCH  44  48
BRANCH  45  50
ATOM     50  O   UNL     1       3.419  -5.534  23.247  0.00  0.00    -0.387 OA
ATOM     51  H   UNL     1       3.007  -5.871  24.064  0.00  0.00    +0.210 HD
ENDBRANCH  45  50
ENDBRANCH  38  42
ENDBRANCH  27  38
ENDBRANCH   1  33
TORSDOF 14
ENDMDL
MODEL 5
REMARK VINA RESULT:      -7.2      2.519      6.246
REMARK  Name = 
REMARK  16 active torsions:
REMARK  status: ('A' for Active; 'I' for Inactive)
REMARK    1  A    between atoms: C_1  and  C_2
REMARK    2  A    between atoms: C_3  and  O_48
REMARK    3  A    between atoms: C_5  and  O_47
REMARK    4  A    between atoms: C_6  and  O_46
REMARK    5  A    between atoms: C_8  and  O_11
REMARK    6  A    between atoms: O_11  and  C_12
REMARK    7  A    between atoms: C_14  and  O_24
REMARK    8  A    between atoms: C_17  and  C_23
REMARK    9  A    between atoms: C_18  and  O_22
REMARK   10  A    between atoms: C_20  and  O_21
REMARK   11  A    between atoms: O_24  and  C_25
REMARK   12  A    between atoms: C_26  and  C_38
REMARK   13  A    between atoms: C_30  and  O_37
REMARK   14  A    between atoms: C_32  and  O_36
REMARK   15  A    between atoms: C_40  and  O_45
REMARK   16  A    between atoms: C_41  and  O_44
REMARK                            x       y       z     vdW  Elec       q    Type
REMARK                         _______ _______ _______ _____ _____    ______ ____
ROOT
ATOM      1  O   UNL     1       5.455   0.113  24.813  0.00  0.00    -0.453 OA
ENDROOT
BRANCH   1   2
ATOM      2  C   UNL     1       5.901  -1.119  24.305  0.00  0.00    +0.214 A 
ATOM      3  C   UNL     1       5.105  -2.357  24.597  0.00  0.00    +0.238 A 
ATOM      4  O   UNL     1       4.290  -2.382  25.510  0.00  0.00    -0.283 OA
ATOM      5  C   UNL     1       5.395  -3.568  23.827  0.00  0.00    +0.109 A 
ATOM      6  C   UNL     1       6.586  -3.594  23.109  0.00  0.00    +0.147 A 
ATOM      7  C   UNL     1       6.940  -4.752  22.398  0.00  0.00    +0.092 A 
ATOM      8  C   UNL     1       6.101  -5.871  22.443  0.00  0.00    +0.124 A 
ATOM      9  C   UNL     1       4.917  -5.851  23.169  0.00  0.00    +0.091 A 
ATOM     10  O   UNL     1       7.475  -2.544  23.121  0.00  0.00    -0.451 OA
ATOM     11  C   UNL     1       4.558  -4.694  23.848  0.00  0.00    +0.135 A 
ATOM     12  C   UNL     1       7.110  -1.324  23.713  0.00  0.00    +0.181 A 
BRANCH  12  13
ATOM     13  C   UNL     1       8.234  -0.315  23.657  0.00  0.00    +0.025 A 
ATOM     14  C   UNL     1       9.154  -0.170  24.723  0.00  0.00    +0.015 A 
ATOM     15  C   UNL     1      10.145   0.832  24.722  0.00  0.00    +0.050 A 
ATOM     16  C   UNL     1      10.235   1.692  23.649  0.00  0.00    +0.158 A 
ATOM     17  C   UNL     1       9.352   1.580  22.591  0.00  0.00    +0.159 A 
ATOM     18  C   UNL     1       8.337   0.614  22.602  0.00  0.00    +0.060 A 
BRANCH  16  19
ATOM     19  O   UNL     1      11.197   2.662  23.626  0.00  0.00    -0.503 OA
ATOM     20  H   UNL     1      12.006   2.199  23.308  0.00  0.00    +0.292 HD
ENDBRANCH  16  19
BRANCH  17  21
ATOM     21  O   UNL     1       9.502   2.445  21.541  0.00  0.00    -0.503 OA
ATOM     22  H   UNL     1      10.306   2.185  21.058  0.00  0.00    +0.292 HD
ENDBRANCH  17  21
ENDBRANCH  12  13
BRANCH   8  23
ATOM     23  O   UNL     1       6.395  -7.030  21.792  0.00  0.00    -0.507 OA
ATOM     24  H   UNL     1       5.743  -7.710  22.028  0.00  0.00    +0.292 HD
ENDBRANCH   8  23
BRANCH  11  25
ATOM     25  O   UNL     1       3.372  -4.679  24.527  0.00  0.00    -0.506 OA
ATOM     26  H   UNL     1       3.469  -4.202  25.366  0.00  0.00    +0.292 HD
ENDBRANCH  11  25
ENDBRANCH   1   2
BRANCH   1  33
ATOM     27  C   UNL     1       6.315   2.262  25.851  0.00  0.00    +0.221 C 
ATOM     28  C   UNL     1       5.191   2.838  26.724  0.00  0.00    +0.180 C 
ATOM     29  C   UNL     1       5.124   2.100  28.067  0.00  0.00    +0.174 C 
ATOM     30  C   UNL     1       4.949   0.591  27.868  0.00  0.00    +0.150 C 
ATOM     31  C   UNL     1       3.592   0.142  27.331  0.00  0.00    +0.041 C 
ATOM     32  O   UNL     1       6.041   0.068  27.119  0.00  0.00    -0.334 OA
ATOM     33  C   UNL     1       6.302   0.681  25.844  0.00  0.00    +0.340 C 
BRANCH  28  34
ATOM     34  O   UNL     1       3.939   2.815  26.025  0.00  0.00    -0.386 OA
ATOM     35  H   UNL     1       4.015   3.443  25.282  0.00  0.00    +0.210 HD
ENDBRANCH  28  34
BRANCH  29  36
ATOM     36  O   UNL     1       4.117   2.661  28.909  0.00  0.00    -0.387 OA
ATOM     37  H   UNL     1       4.177   3.629  28.843  0.00  0.00    +0.210 HD
ENDBRANCH  29  36
BRANCH  27  38
ATOM     38  O   UNL     1       6.286   2.762  24.507  0.00  0.00    -0.337 OA
BRANCH  38  42
ATOM     39  C   UNL     1       5.904   6.895  25.438  0.00  0.00    +0.041 C 
ATOM     40  C   UNL     1       5.244   6.215  24.241  0.00  0.00    +0.149 C 
ATOM     41  O   UNL     1       5.259   4.795  24.372  0.00  0.00    -0.343 OA
ATOM     42  C   UNL     1       6.538   4.152  24.249  0.00  0.00    +0.282 C 
ATOM     43  C   UNL     1       7.209   4.485  22.885  0.00  0.00    +0.201 C 
ATOM     44  C   UNL     1       7.186   6.013  22.624  0.00  0.00    +0.179 C 
ATOM     45  C   UNL     1       5.823   6.666  22.896  0.00  0.00    +0.174 C 
BRANCH  43  46
ATOM     46  O   UNL     1       6.601   3.751  21.815  0.00  0.00    -0.384 OA
ATOM     47  H   UNL     1       5.815   3.303  22.174  0.00  0.00    +0.210 HD
ENDBRANCH  43  46
BRANCH  44  48
ATOM     48  O   UNL     1       7.564   6.292  21.263  0.00  0.00    -0.386 OA
ATOM     49  H   UNL     1       7.226   7.192  21.071  0.00  0.00    +0.210 HD
ENDBRANCH  44  48
BRANCH  45  50
ATOM     50  O   UNL     1       4.961   6.323  21.795  0.00  0.00    -0.387 OA
ATOM     51  H   UNL     1       4.579   7.151  21.448  0.00  0.00    +0.210 HD
ENDBRANCH  45  50
ENDBRANCH  38  42
ENDBRANCH  27  38
ENDBRANCH   1  33
TORSDOF 14
ENDMDL
MODEL 6
REMARK VINA RESULT:      -7.1      2.741      6.677
REMARK  Name = 
REMARK  16 active torsions:
REMARK  status: ('A' for Active; 'I' for Inactive)
REMARK    1  A    between atoms: C_1  and  C_2
REMARK    2  A    between atoms: C_3  and  O_48
REMARK    3  A    between atoms: C_5  and  O_47
REMARK    4  A    between atoms: C_6  and  O_46
REMARK    5  A    between atoms: C_8  and  O_11
REMARK    6  A    between atoms: O_11  and  C_12
REMARK    7  A    between atoms: C_14  and  O_24
REMARK    8  A    between atoms: C_17  and  C_23
REMARK    9  A    between atoms: C_18  and  O_22
REMARK   10  A    between atoms: C_20  and  O_21
REMARK   11  A    between atoms: O_24  and  C_25
REMARK   12  A    between atoms: C_26  and  C_38
REMARK   13  A    between atoms: C_30  and  O_37
REMARK   14  A    between atoms: C_32  and  O_36
REMARK   15  A    between atoms: C_40  and  O_45
REMARK   16  A    between atoms: C_41  and  O_44
REMARK                            x       y       z     vdW  Elec       q    Type
REMARK                         _______ _______ _______ _____ _____    ______ ____
ROOT
ATOM      1  O   UNL     1       7.151  -0.763  25.205  0.00  0.00    -0.453 OA
ENDROOT
BRANCH   1   2
ATOM      2  C   UNL     1       5.928  -0.621  25.882  0.00  0.00    +0.214 A 
ATOM      3  C   UNL     1       5.755   0.523  26.837  0.00  0.00    +0.238 A 
ATOM      4  O   UNL     1       6.724   1.123  27.285  0.00  0.00    -0.283 OA
ATOM      5  C   UNL     1       4.404   0.843  27.302  0.00  0.00    +0.109 A 
ATOM      6  C   UNL     1       3.416  -0.113  27.090  0.00  0.00    +0.147 A 
ATOM      7  C   UNL     1       2.115   0.119  27.563  0.00  0.00    +0.092 A 
ATOM      8  C   UNL     1       1.838   1.298  28.265  0.00  0.00    +0.124 A 
ATOM      9  C   UNL     1       2.826   2.249  28.489  0.00  0.00    +0.091 A 
ATOM     10  O   UNL     1       3.680  -1.321  26.486  0.00  0.00    -0.451 OA
ATOM     11  C   UNL     1       4.104   2.027  27.993  0.00  0.00    +0.135 A 
ATOM     12  C   UNL     1       4.930  -1.546  25.887  0.00  0.00    +0.181 A 
BRANCH  12  13
ATOM     13  C   UNL     1       5.033  -2.942  25.315  0.00  0.00    +0.025 A 
ATOM     14  C   UNL     1       4.570  -3.245  24.013  0.00  0.00    +0.015 A 
ATOM     15  C   UNL     1       4.573  -4.562  23.508  0.00  0.00    +0.050 A 
ATOM     16  C   UNL     1       5.052  -5.587  24.296  0.00  0.00    +0.158 A 
ATOM     17  C   UNL     1       5.511  -5.326  25.574  0.00  0.00    +0.159 A 
ATOM     18  C   UNL     1       5.472  -4.028  26.100  0.00  0.00    +0.060 A 
BRANCH  16  19
ATOM     19  O   UNL     1       5.073  -6.866  23.818  0.00  0.00    -0.503 OA
ATOM     20  H   UNL     1       4.226  -6.959  23.324  0.00  0.00    +0.292 HD
ENDBRANCH  16  19
BRANCH  17  21
ATOM     21  O   UNL     1       5.996  -6.376  26.304  0.00  0.00    -0.503 OA
ATOM     22  H   UNL     1       5.856  -7.186  25.783  0.00  0.00    +0.292 HD
ENDBRANCH  17  21
ENDBRANCH  12  13
BRANCH   8  23
ATOM     23  O   UNL     1       0.603   1.575  28.767  0.00  0.00    -0.507 OA
ATOM     24  H   UNL     1       0.386   2.508  28.601  0.00  0.00    +0.292 HD
ENDBRANCH   8  23
BRANCH  11  25
ATOM     25  O   UNL     1       5.055   2.989  28.191  0.00  0.00    -0.506 OA
ATOM     26  H   UNL     1       4.636   3.850  28.348  0.00  0.00    +0.292 HD
ENDBRANCH  11  25
ENDBRANCH   1   2
BRANCH   1  33
ATOM     27  C   UNL     1       8.373   0.733  23.561  0.00  0.00    +0.221 C 
ATOM     28  C   UNL     1       9.605  -0.035  23.060  0.00  0.00    +0.180 C 
ATOM     29  C   UNL     1       9.201  -1.054  21.986  0.00  0.00    +0.174 C 
ATOM     30  C   UNL     1       8.124  -2.013  22.502  0.00  0.00    +0.150 C 
ATOM     31  C   UNL     1       8.576  -3.017  23.559  0.00  0.00    +0.041 C 
ATOM     32  O   UNL     1       6.965  -1.282  22.890  0.00  0.00    -0.334 OA
ATOM     33  C   UNL     1       7.157  -0.233  23.855  0.00  0.00    +0.340 C 
BRANCH  28  34
ATOM     34  O   UNL     1      10.305  -0.644  24.154  0.00  0.00    -0.386 OA
ATOM     35  H   UNL     1      11.188  -0.896  23.823  0.00  0.00    +0.210 HD
ENDBRANCH  28  34
BRANCH  29  36
ATOM     36  O   UNL     1      10.344  -1.738  21.475  0.00  0.00    -0.387 OA
ATOM     37  H   UNL     1      10.603  -1.307  20.643  0.00  0.00    +0.210 HD
ENDBRANCH  29  36
BRANCH  27  38
ATOM     38  O   UNL     1       8.653   1.539  24.714  0.00  0.00    -0.337 OA
BRANCH  38  42
ATOM     39  C   UNL     1       6.010   4.828  25.261  0.00  0.00    +0.041 C 
ATOM     40  C   UNL     1       6.533   4.356  23.906  0.00  0.00    +0.149 C 
ATOM     41  O   UNL     1       7.106   3.053  23.991  0.00  0.00    -0.343 OA
ATOM     42  C   UNL     1       8.350   2.943  24.702  0.00  0.00    +0.282 C 
ATOM     43  C   UNL     1       9.436   3.873  24.088  0.00  0.00    +0.201 C 
ATOM     44  C   UNL     1       8.883   5.309  23.899  0.00  0.00    +0.179 C 
ATOM     45  C   UNL     1       7.493   5.355  23.249  0.00  0.00    +0.174 C 
BRANCH  43  46
ATOM     46  O   UNL     1       9.948   3.333  22.862  0.00  0.00    -0.384 OA
ATOM     47  H   UNL     1       9.293   2.697  22.524  0.00  0.00    +0.210 HD
ENDBRANCH  43  46
BRANCH  44  48
ATOM     48  O   UNL     1       9.788   6.091  23.098  0.00  0.00    -0.386 OA
ATOM     49  H   UNL     1      10.066   6.841  23.665  0.00  0.00    +0.210 HD
ENDBRANCH  44  48
BRANCH  45  50
ATOM     50  O   UNL     1       7.670   5.088  21.845  0.00  0.00    -0.387 OA
ATOM     51  H   UNL     1       7.762   4.123  21.736  0.00  0.00    +0.210 HD
ENDBRANCH  45  50
ENDBRANCH  38  42
ENDBRANCH  27  38
ENDBRANCH   1  33
TORSDOF 14
ENDMDL
MODEL 7
REMARK VINA RESULT:      -7.1      3.247      6.186
REMARK  Name = 
REMARK  16 active torsions:
REMARK  status: ('A' for Active; 'I' for Inactive)
REMARK    1  A    between atoms: C_1  and  C_2
REMARK    2  A    between atoms: C_3  and  O_48
REMARK    3  A    between atoms: C_5  and  O_47
REMARK    4  A    between atoms: C_6  and  O_46
REMARK    5  A    between atoms: C_8  and  O_11
REMARK    6  A    between atoms: O_11  and  C_12
REMARK    7  A    between atoms: C_14  and  O_24
REMARK    8  A    between atoms: C_17  and  C_23
REMARK    9  A    between atoms: C_18  and  O_22
REMARK   10  A    between atoms: C_20  and  O_21
REMARK   11  A    between atoms: O_24  and  C_25
REMARK   12  A    between atoms: C_26  and  C_38
REMARK   13  A    between atoms: C_30  and  O_37
REMARK   14  A    between atoms: C_32  and  O_36
REMARK   15  A    between atoms: C_40  and  O_45
REMARK   16  A    between atoms: C_41  and  O_44
REMARK                            x       y       z     vdW  Elec       q    Type
REMARK                         _______ _______ _______ _____ _____    ______ ____
ROOT
ATOM      1  O   UNL     1       6.684  -0.325  26.225  0.00  0.00    -0.453 OA
ENDROOT
BRANCH   1   2
ATOM      2  C   UNL     1       7.578   0.355  25.380  0.00  0.00    +0.214 A 
ATOM      3  C   UNL     1       7.557   1.855  25.356  0.00  0.00    +0.238 A 
ATOM      4  O   UNL     1       6.593   2.479  25.781  0.00  0.00    -0.283 OA
ATOM      5  C   UNL     1       8.674   2.556  24.719  0.00  0.00    +0.109 A 
ATOM      6  C   UNL     1       9.514   1.805  23.904  0.00  0.00    +0.147 A 
ATOM      7  C   UNL     1      10.568   2.437  23.226  0.00  0.00    +0.092 A 
ATOM      8  C   UNL     1      10.740   3.820  23.360  0.00  0.00    +0.124 A 
ATOM      9  C   UNL     1       9.895   4.575  24.163  0.00  0.00    +0.091 A 
ATOM     10  O   UNL     1       9.313   0.462  23.681  0.00  0.00    -0.451 OA
ATOM     11  C   UNL     1       8.872   3.939  24.854  0.00  0.00    +0.135 A 
ATOM     12  C   UNL     1       8.353  -0.237  24.430  0.00  0.00    +0.181 A 
BRANCH  12  13
ATOM     13  C   UNL     1       8.259  -1.686  24.008  0.00  0.00    +0.025 A 
ATOM     14  C   UNL     1       7.317  -2.116  23.044  0.00  0.00    +0.015 A 
ATOM     15  C   UNL     1       7.155  -3.478  22.715  0.00  0.00    +0.050 A 
ATOM     16  C   UNL     1       7.943  -4.421  23.339  0.00  0.00    +0.158 A 
ATOM     17  C   UNL     1       8.872  -4.035  24.287  0.00  0.00    +0.159 A 
ATOM     18  C   UNL     1       9.011  -2.690  24.651  0.00  0.00    +0.060 A 
BRANCH  16  19
ATOM     19  O   UNL     1       7.807  -5.744  23.024  0.00  0.00    -0.503 OA
ATOM     20  H   UNL     1       7.157  -5.756  22.285  0.00  0.00    +0.292 HD
ENDBRANCH  16  19
BRANCH  17  21
ATOM     21  O   UNL     1       9.643  -5.011  24.858  0.00  0.00    -0.503 OA
ATOM     22  H   UNL     1       9.187  -5.861  24.727  0.00  0.00    +0.292 HD
ENDBRANCH  17  21
ENDBRANCH  12  13
BRANCH   8  23
ATOM     23  O   UNL     1      11.731   4.497  22.714  0.00  0.00    -0.507 OA
ATOM     24  H   UNL     1      12.124   5.150  23.317  0.00  0.00    +0.292 HD
ENDBRANCH   8  23
BRANCH  11  25
ATOM     25  O   UNL     1       8.072   4.691  25.668  0.00  0.00    -0.506 OA
ATOM     26  H   UNL     1       8.523   5.511  25.921  0.00  0.00    +0.292 HD
ENDBRANCH  11  25
ENDBRANCH   1   2
BRANCH   1  33
ATOM     27  C   UNL     1       4.832  -2.053  26.090  0.00  0.00    +0.221 C 
ATOM     28  C   UNL     1       3.965  -1.904  27.348  0.00  0.00    +0.180 C 
ATOM     29  C   UNL     1       3.004  -0.718  27.199  0.00  0.00    +0.174 C 
ATOM     30  C   UNL     1       3.759   0.579  26.892  0.00  0.00    +0.150 C 
ATOM     31  C   UNL     1       4.595   1.150  28.035  0.00  0.00    +0.041 C 
ATOM     32  O   UNL     1       4.497   0.440  25.682  0.00  0.00    -0.334 OA
ATOM     33  C   UNL     1       5.415  -0.664  25.610  0.00  0.00    +0.340 C 
BRANCH  28  34
ATOM     34  O   UNL     1       4.783  -1.800  28.522  0.00  0.00    -0.386 OA
ATOM     35  H   UNL     1       4.180  -1.773  29.289  0.00  0.00    +0.210 HD
ENDBRANCH  28  34
BRANCH  29  36
ATOM     36  O   UNL     1       2.156  -0.600  28.340  0.00  0.00    -0.387 OA
ATOM     37  H   UNL     1       2.548  -1.122  29.060  0.00  0.00    +0.210 HD
ENDBRANCH  29  36
BRANCH  27  38
ATOM     38  O   UNL     1       5.894  -3.003  26.257  0.00  0.00    -0.337 OA
BRANCH  38  42
ATOM     39  C   UNL     1       4.462  -6.283  23.957  0.00  0.00    +0.041 C 
ATOM     40  C   UNL     1       3.809  -5.778  25.242  0.00  0.00    +0.149 C 
ATOM     41  O   UNL     1       4.287  -4.483  25.599  0.00  0.00    -0.343 OA
ATOM     42  C   UNL     1       5.647  -4.403  26.056  0.00  0.00    +0.282 C 
ATOM     43  C   UNL     1       5.884  -5.325  27.288  0.00  0.00    +0.201 C 
ATOM     44  C   UNL     1       5.337  -6.750  27.017  0.00  0.00    +0.179 C 
ATOM     45  C   UNL     1       3.928  -6.766  26.408  0.00  0.00    +0.174 C 
BRANCH  43  46
ATOM     46  O   UNL     1       5.321  -4.755  28.477  0.00  0.00    -0.384 OA
ATOM     47  H   UNL     1       6.056  -4.410  29.014  0.00  0.00    +0.210 HD
ENDBRANCH  43  46
BRANCH  44  48
ATOM     48  O   UNL     1       5.318  -7.517  28.235  0.00  0.00    -0.386 OA
ATOM     49  H   UNL     1       4.383  -7.527  28.530  0.00  0.00    +0.210 HD
ENDBRANCH  44  48
BRANCH  45  50
ATOM     50  O   UNL     1       3.003  -6.461  27.469  0.00  0.00    -0.387 OA
ATOM     51  H   UNL     1       3.524  -6.282  28.274  0.00  0.00    +0.210 HD
ENDBRANCH  45  50
ENDBRANCH  38  42
ENDBRANCH  27  38
ENDBRANCH   1  33
TORSDOF 14
ENDMDL
MODEL 8
REMARK VINA RESULT:      -7.1      3.062      4.900
REMARK  Name = 
REMARK  16 active torsions:
REMARK  status: ('A' for Active; 'I' for Inactive)
REMARK    1  A    between atoms: C_1  and  C_2
REMARK    2  A    between atoms: C_3  and  O_48
REMARK    3  A    between atoms: C_5  and  O_47
REMARK    4  A    between atoms: C_6  and  O_46
REMARK    5  A    between atoms: C_8  and  O_11
REMARK    6  A    between atoms: O_11  and  C_12
REMARK    7  A    between atoms: C_14  and  O_24
REMARK    8  A    between atoms: C_17  and  C_23
REMARK    9  A    between atoms: C_18  and  O_22
REMARK   10  A    between atoms: C_20  and  O_21
REMARK   11  A    between atoms: O_24  and  C_25
REMARK   12  A    between atoms: C_26  and  C_38
REMARK   13  A    between atoms: C_30  and  O_37
REMARK   14  A    between atoms: C_32  and  O_36
REMARK   15  A    between atoms: C_40  and  O_45
REMARK   16  A    between atoms: C_41  and  O_44
REMARK                            x       y       z     vdW  Elec       q    Type
REMARK                         _______ _______ _______ _____ _____    ______ ____
ROOT
ATOM      1  O   UNL     1       5.317  -0.885  25.080  0.00  0.00    -0.453 OA
ENDROOT
BRANCH   1   2
ATOM      2  C   UNL     1       6.425  -0.244  24.499  0.00  0.00    +0.214 A 
ATOM      3  C   UNL     1       6.497   1.254  24.533  0.00  0.00    +0.238 A 
ATOM      4  O   UNL     1       5.498   1.929  24.744  0.00  0.00    -0.283 OA
ATOM      5  C   UNL     1       7.772   1.896  24.207  0.00  0.00    +0.109 A 
ATOM      6  C   UNL     1       8.737   1.113  23.583  0.00  0.00    +0.147 A 
ATOM      7  C   UNL     1       9.958   1.692  23.200  0.00  0.00    +0.092 A 
ATOM      8  C   UNL     1      10.173   3.056  23.428  0.00  0.00    +0.124 A 
ATOM      9  C   UNL     1       9.206   3.843  24.040  0.00  0.00    +0.091 A 
ATOM     10  O   UNL     1       8.518  -0.207  23.263  0.00  0.00    -0.451 OA
ATOM     11  C   UNL     1       8.013   3.258  24.443  0.00  0.00    +0.135 A 
ATOM     12  C   UNL     1       7.368  -0.861  23.735  0.00  0.00    +0.181 A 
BRANCH  12  13
ATOM     13  C   UNL     1       7.293  -2.288  23.242  0.00  0.00    +0.025 A 
ATOM     14  C   UNL     1       6.346  -2.687  22.269  0.00  0.00    +0.015 A 
ATOM     15  C   UNL     1       6.203  -4.033  21.875  0.00  0.00    +0.050 A 
ATOM     16  C   UNL     1       7.015  -4.993  22.441  0.00  0.00    +0.158 A 
ATOM     17  C   UNL     1       7.949  -4.638  23.397  0.00  0.00    +0.159 A 
ATOM     18  C   UNL     1       8.070  -3.310  23.826  0.00  0.00    +0.060 A 
BRANCH  16  19
ATOM     19  O   UNL     1       6.898  -6.300  22.062  0.00  0.00    -0.503 OA
ATOM     20  H   UNL     1       7.777  -6.695  22.263  0.00  0.00    +0.292 HD
ENDBRANCH  16  19
BRANCH  17  21
ATOM     21  O   UNL     1       8.744  -5.627  23.909  0.00  0.00    -0.503 OA
ATOM     22  H   UNL     1       9.080  -6.152  23.162  0.00  0.00    +0.292 HD
ENDBRANCH  17  21
ENDBRANCH  12  13
BRANCH   8  23
ATOM     23  O   UNL     1      11.327   3.682  23.064  0.00  0.00    -0.507 OA
ATOM     24  H   UNL     1      11.795   3.143  22.405  0.00  0.00    +0.292 HD
ENDBRANCH   8  23
BRANCH  11  25
ATOM     25  O   UNL     1       7.087   4.040  25.076  0.00  0.00    -0.506 OA
ATOM     26  H   UNL     1       6.242   4.014  24.601  0.00  0.00    +0.292 HD
ENDBRANCH  11  25
ENDBRANCH   1   2
BRANCH   1  33
ATOM     27  C   UNL     1       4.705  -0.926  27.541  0.00  0.00    +0.221 C 
ATOM     28  C   UNL     1       3.369  -1.670  27.675  0.00  0.00    +0.180 C 
ATOM     29  C   UNL     1       3.592  -3.187  27.604  0.00  0.00    +0.174 C 
ATOM     30  C   UNL     1       4.319  -3.586  26.316  0.00  0.00    +0.150 C 
ATOM     31  C   UNL     1       3.515  -3.447  25.026  0.00  0.00    +0.041 C 
ATOM     32  O   UNL     1       5.586  -2.939  26.251  0.00  0.00    -0.334 OA
ATOM     33  C   UNL     1       5.585  -1.505  26.363  0.00  0.00    +0.340 C 
BRANCH  28  34
ATOM     34  O   UNL     1       2.428  -1.211  26.696  0.00  0.00    -0.386 OA
ATOM     35  H   UNL     1       2.260  -0.267  26.880  0.00  0.00    +0.210 HD
ENDBRANCH  28  34
BRANCH  29  36
ATOM     36  O   UNL     1       2.364  -3.893  27.780  0.00  0.00    -0.387 OA
ATOM     37  H   UNL     1       2.428  -4.405  28.604  0.00  0.00    +0.210 HD
ENDBRANCH  29  36
BRANCH  27  38
ATOM     38  O   UNL     1       4.537   0.490  27.381  0.00  0.00    -0.337 OA
BRANCH  38  42
ATOM     39  C   UNL     1       3.978   3.856  29.923  0.00  0.00    +0.041 C 
ATOM     40  C   UNL     1       4.986   3.796  28.777  0.00  0.00    +0.149 C 
ATOM     41  O   UNL     1       4.718   2.705  27.899  0.00  0.00    -0.343 OA
ATOM     42  C   UNL     1       4.968   1.388  28.416  0.00  0.00    +0.282 C 
ATOM     43  C   UNL     1       6.445   1.235  28.884  0.00  0.00    +0.201 C 
ATOM     44  C   UNL     1       6.852   2.417  29.801  0.00  0.00    +0.179 C 
ATOM     45  C   UNL     1       6.443   3.792  29.256  0.00  0.00    +0.174 C 
BRANCH  43  46
ATOM     46  O   UNL     1       7.331   1.098  27.765  0.00  0.00    -0.384 OA
ATOM     47  H   UNL     1       6.789   0.890  26.984  0.00  0.00    +0.210 HD
ENDBRANCH  43  46
BRANCH  44  48
ATOM     48  O   UNL     1       8.275   2.414  30.016  0.00  0.00    -0.386 OA
ATOM     49  H   UNL     1       8.679   2.352  29.125  0.00  0.00    +0.210 HD
ENDBRANCH  44  48
BRANCH  45  50
ATOM     50  O   UNL     1       7.360   4.118  28.194  0.00  0.00    -0.387 OA
ATOM     51  H   UNL     1       8.037   3.417  28.161  0.00  0.00    +0.210 HD
ENDBRANCH  45  50
ENDBRANCH  38  42
ENDBRANCH  27  38
ENDBRANCH   1  33
TORSDOF 14
ENDMDL
MODEL 9
REMARK VINA RESULT:      -7.0      2.555      6.433
REMARK  Name = 
REMARK  16 active torsions:
REMARK  status: ('A' for Active; 'I' for Inactive)
REMARK    1  A    between atoms: C_1  and  C_2
REMARK    2  A    between atoms: C_3  and  O_48
REMARK    3  A    between atoms: C_5  and  O_47
REMARK    4  A    between atoms: C_6  and  O_46
REMARK    5  A    between atoms: C_8  and  O_11
REMARK    6  A    between atoms: O_11  and  C_12
REMARK    7  A    between atoms: C_14  and  O_24
REMARK    8  A    between atoms: C_17  and  C_23
REMARK    9  A    between atoms: C_18  and  O_22
REMARK   10  A    between atoms: C_20  and  O_21
REMARK   11  A    between atoms: O_24  and  C_25
REMARK   12  A    between atoms: C_26  and  C_38
REMARK   13  A    between atoms: C_30  and  O_37
REMARK   14  A    between atoms: C_32  and  O_36
REMARK   15  A    between atoms: C_40  and  O_45
REMARK   16  A    between atoms: C_41  and  O_44
REMARK                            x       y       z     vdW  Elec       q    Type
REMARK                         _______ _______ _______ _____ _____    ______ ____
ROOT
ATOM      1  O   UNL     1       7.345   0.011  25.023  0.00  0.00    -0.453 OA
ENDROOT
BRANCH   1   2
ATOM      2  C   UNL     1       6.120   0.298  25.650  0.00  0.00    +0.214 A 
ATOM      3  C   UNL     1       5.869   1.689  26.152  0.00  0.00    +0.238 A 
ATOM      4  O   UNL     1       6.794   2.472  26.329  0.00  0.00    -0.283 OA
ATOM      5  C   UNL     1       4.501   2.058  26.523  0.00  0.00    +0.109 A 
ATOM      6  C   UNL     1       3.587   1.024  26.692  0.00  0.00    +0.147 A 
ATOM      7  C   UNL     1       2.276   1.318  27.099  0.00  0.00    +0.092 A 
ATOM      8  C   UNL     1       1.917   2.646  27.355  0.00  0.00    +0.124 A 
ATOM      9  C   UNL     1       2.832   3.680  27.200  0.00  0.00    +0.091 A 
ATOM     10  O   UNL     1       3.936  -0.298  26.537  0.00  0.00    -0.451 OA
ATOM     11  C   UNL     1       4.119   3.386  26.768  0.00  0.00    +0.135 A 
ATOM     12  C   UNL     1       5.195  -0.633  26.011  0.00  0.00    +0.181 A 
BRANCH  12  13
ATOM     13  C   UNL     1       5.399  -2.130  25.958  0.00  0.00    +0.025 A 
ATOM     14  C   UNL     1       4.598  -2.959  25.137  0.00  0.00    +0.015 A 
ATOM     15  C   UNL     1       4.715  -4.364  25.154  0.00  0.00    +0.050 A 
ATOM     16  C   UNL     1       5.645  -4.954  25.983  0.00  0.00    +0.158 A 
ATOM     17  C   UNL     1       6.443  -4.174  26.800  0.00  0.00    +0.159 A 
ATOM     18  C   UNL     1       6.304  -2.780  26.822  0.00  0.00    +0.060 A 
BRANCH  16  19
ATOM     19  O   UNL     1       5.780  -6.313  26.003  0.00  0.00    -0.503 OA
ATOM     20  H   UNL     1       5.906  -6.534  26.954  0.00  0.00    +0.292 HD
ENDBRANCH  16  19
BRANCH  17  21
ATOM     21  O   UNL     1       7.364  -4.811  27.586  0.00  0.00    -0.503 OA
ATOM     22  H   UNL     1       8.059  -4.166  27.807  0.00  0.00    +0.292 HD
ENDBRANCH  17  21
ENDBRANCH  12  13
BRANCH   8  23
ATOM     23  O   UNL     1       0.669   2.997  27.772  0.00  0.00    -0.507 OA
ATOM     24  H   UNL     1       0.377   2.389  28.472  0.00  0.00    +0.292 HD
ENDBRANCH   8  23
BRANCH  11  25
ATOM     25  O   UNL     1       4.995   4.419  26.585  0.00  0.00    -0.506 OA
ATOM     26  H   UNL     1       4.527   5.267  26.608  0.00  0.00    +0.292 HD
ENDBRANCH  11  25
ENDBRANCH   1   2
BRANCH   1  33
ATOM     27  C   UNL     1       8.508   1.079  23.038  0.00  0.00    +0.221 C 
ATOM     28  C   UNL     1       9.775   0.263  22.748  0.00  0.00    +0.180 C 
ATOM     29  C   UNL     1       9.423  -1.018  21.978  0.00  0.00    +0.174 C 
ATOM     30  C   UNL     1       8.387  -1.856  22.733  0.00  0.00    +0.150 C 
ATOM     31  C   UNL     1       8.877  -2.528  24.013  0.00  0.00    +0.041 C 
ATOM     32  O   UNL     1       7.195  -1.101  22.925  0.00  0.00    -0.334 OA
ATOM     33  C   UNL     1       7.335   0.170  23.581  0.00  0.00    +0.340 C 
BRANCH  28  34
ATOM     34  O   UNL     1      10.496  -0.009  23.958  0.00  0.00    -0.386 OA
ATOM     35  H   UNL     1      10.826  -0.925  23.895  0.00  0.00    +0.210 HD
ENDBRANCH  28  34
BRANCH  29  36
ATOM     36  O   UNL     1      10.598  -1.760  21.656  0.00  0.00    -0.387 OA
ATOM     37  H   UNL     1      11.369  -1.242  21.944  0.00  0.00    +0.210 HD
ENDBRANCH  29  36
BRANCH  27  38
ATOM     38  O   UNL     1       8.746   2.170  23.940  0.00  0.00    -0.337 OA
BRANCH  38  42
ATOM     39  C   UNL     1      10.347   6.101  23.648  0.00  0.00    +0.041 C 
ATOM     40  C   UNL     1       9.062   5.744  24.392  0.00  0.00    +0.149 C 
ATOM     41  O   UNL     1       8.957   4.340  24.614  0.00  0.00    -0.343 OA
ATOM     42  C   UNL     1       8.717   3.522  23.457  0.00  0.00    +0.282 C 
ATOM     43  C   UNL     1       7.419   3.958  22.717  0.00  0.00    +0.201 C 
ATOM     44  C   UNL     1       7.412   5.491  22.484  0.00  0.00    +0.179 C 
ATOM     45  C   UNL     1       7.802   6.307  23.724  0.00  0.00    +0.174 C 
BRANCH  43  46
ATOM     46  O   UNL     1       6.249   3.520  23.421  0.00  0.00    -0.384 OA
ATOM     47  H   UNL     1       5.682   3.049  22.786  0.00  0.00    +0.210 HD
ENDBRANCH  43  46
BRANCH  44  48
ATOM     48  O   UNL     1       6.111   5.922  22.043  0.00  0.00    -0.386 OA
ATOM     49  H   UNL     1       5.493   5.694  22.769  0.00  0.00    +0.210 HD
ENDBRANCH  44  48
BRANCH  45  50
ATOM     50  O   UNL     1       6.669   6.296  24.614  0.00  0.00    -0.387 OA
ATOM     51  H   UNL     1       6.132   5.510  24.401  0.00  0.00    +0.210 HD
ENDBRANCH  45  50
ENDBRANCH  38  42
ENDBRANCH  27  38
ENDBRANCH   1  33
TORSDOF 14
ENDMDL
