MODEL 1
REMARK VINA RESULT:      -7.3      0.000      0.000
REMARK  Name = 
REMARK  11 active torsions:
REMARK  status: ('A' for Active; 'I' for Inactive)
REMARK    1  A    between atoms: C_4  and  O_37
REMARK    2  A    between atoms: C_6  and  C_7
REMARK    3  A    between atoms: C_8  and  O_20
REMARK    4  A    between atoms: C_12  and  O_19
REMARK    5  A    between atoms: C_14  and  O_18
REMARK    6  A    between atoms: O_20  and  C_21
REMARK    7  A    between atoms: C_23  and  O_36
REMARK    8  A    between atoms: C_25  and  O_35
REMARK    9  A    between atoms: C_27  and  O_34
REMARK   10  A    between atoms: C_29  and  C_32
REMARK   11  A    between atoms: C_32  and  O_33
REMARK                            x       y       z     vdW  Elec       q    Type
REMARK                         _______ _______ _______ _____ _____    ______ ____
ROOT
ATOM      1  C   UNL     1       6.109  -1.693  25.262  0.00  0.00    +0.181 A 
ATOM      2  O   UNL     1       5.591  -2.752  26.008  0.00  0.00    -0.451 OA
ATOM      3  C   UNL     1       5.345  -3.950  25.402  0.00  0.00    +0.147 A 
ATOM      4  C   UNL     1       5.329  -4.099  24.024  0.00  0.00    +0.109 A 
ATOM      5  C   UNL     1       4.948  -5.324  23.459  0.00  0.00    +0.135 A 
ATOM      6  C   UNL     1       4.644  -6.412  24.275  0.00  0.00    +0.091 A 
ATOM      7  C   UNL     1       4.725  -6.264  25.657  0.00  0.00    +0.124 A 
ATOM      8  C   UNL     1       5.773  -2.962  23.212  0.00  0.00    +0.238 A 
ATOM      9  O   UNL     1       5.701  -3.032  21.989  0.00  0.00    -0.283 OA
ATOM     10  C   UNL     1       5.064  -5.040  26.226  0.00  0.00    +0.092 A 
ATOM     11  C   UNL     1       6.344  -1.778  23.934  0.00  0.00    +0.214 A 
ENDROOT
BRANCH   1  13
ATOM     12  C   UNL     1       5.658   0.704  25.881  0.00  0.00    +0.011 A 
ATOM     13  C   UNL     1       6.354  -0.491  26.123  0.00  0.00    +0.024 A 
ATOM     14  C   UNL     1       7.296  -0.470  27.157  0.00  0.00    +0.056 A 
ATOM     15  C   UNL     1       7.451   0.672  27.941  0.00  0.00    +0.110 A 
ATOM     16  C   UNL     1       6.783   1.891  27.725  0.00  0.00    -0.066 A 
ATOM     17  O   UNL     1       6.988   2.921  28.454  0.00  0.00    -0.871 OA
ATOM     18  C   UNL     1       5.890   1.861  26.650  0.00  0.00    -0.004 A 
BRANCH  15  19
ATOM     19  O   UNL     1       8.304   0.626  29.020  0.00  0.00    -0.507 OA
ATOM     20  H   UNL     1       9.079   0.209  28.566  0.00  0.00    +0.292 HD
ENDBRANCH  15  19
ENDBRANCH   1  13
BRANCH   5  21
ATOM     21  O   UNL     1       4.855  -5.526  22.107  0.00  0.00    -0.506 OA
ATOM     22  H   UNL     1       5.167  -6.440  21.914  0.00  0.00    +0.292 HD
ENDBRANCH   5  21
BRANCH   7  23
ATOM     23  O   UNL     1       4.468  -7.305  26.499  0.00  0.00    -0.507 OA
ATOM     24  H   UNL     1       3.864  -7.001  27.197  0.00  0.00    +0.292 HD
ENDBRANCH   7  23
BRANCH  11  25
ATOM     25  O   UNL     1       7.017  -0.871  23.133  0.00  0.00    -0.453 OA
BRANCH  25  26
ATOM     26  C   UNL     1       8.452  -1.013  23.098  0.00  0.00    +0.340 C 
ATOM     27  O   UNL     1       8.965  -0.090  24.051  0.00  0.00    -0.331 OA
ATOM     28  C   UNL     1       9.891   0.938  23.712  0.00  0.00    +0.179 C 
ATOM     29  C   UNL     1      10.176   1.198  22.216  0.00  0.00    +0.177 C 
ATOM     30  C   UNL     1       9.145   0.565  21.287  0.00  0.00    +0.180 C 
ATOM     31  C   UNL     1       9.000  -0.899  21.663  0.00  0.00    +0.214 C 
BRANCH  29  32
ATOM     32  O   UNL     1      10.329   2.587  21.904  0.00  0.00    -0.386 OA
ATOM     33  H   UNL     1      11.193   2.845  22.287  0.00  0.00    +0.210 HD
ENDBRANCH  29  32
BRANCH  30  34
ATOM     34  O   UNL     1       7.909   1.284  21.314  0.00  0.00    -0.386 OA
ATOM     35  H   UNL     1       7.224   0.734  21.746  0.00  0.00    +0.210 HD
ENDBRANCH  30  34
BRANCH  31  36
ATOM     36  O   UNL     1      10.282  -1.543  21.550  0.00  0.00    -0.383 OA
ATOM     37  H   UNL     1      10.155  -2.451  21.210  0.00  0.00    +0.210 HD
ENDBRANCH  31  36
BRANCH  28  38
ATOM     38  C   UNL     1       9.410   2.180  24.473  0.00  0.00    +0.190 C 
BRANCH  38  39
ATOM     39  O   UNL     1       8.153   2.617  23.946  0.00  0.00    -0.392 OA
ATOM     40  H   UNL     1       7.777   1.829  23.506  0.00  0.00    +0.210 HD
ENDBRANCH  38  39
ENDBRANCH  28  38
ENDBRANCH  25  26
ENDBRANCH  11  25
TORSDOF 11
ENDMDL
MODEL 2
REMARK VINA RESULT:      -6.7      1.726      5.050
REMARK  Name = 
REMARK  11 active torsions:
REMARK  status: ('A' for Active; 'I' for Inactive)
REMARK    1  A    between atoms: C_4  and  O_37
REMARK    2  A    between atoms: C_6  and  C_7
REMARK    3  A    between atoms: C_8  and  O_20
REMARK    4  A    between atoms: C_12  and  O_19
REMARK    5  A    between atoms: C_14  and  O_18
REMARK    6  A    between atoms: O_20  and  C_21
REMARK    7  A    between atoms: C_23  and  O_36
REMARK    8  A    between atoms: C_25  and  O_35
REMARK    9  A    between atoms: C_27  and  O_34
REMARK   10  A    between atoms: C_29  and  C_32
REMARK   11  A    between atoms: C_32  and  O_33
REMARK                            x       y       z     vdW  Elec       q    Type
REMARK                         _______ _______ _______ _____ _____    ______ ____
ROOT
ATOM      1  C   UNL     1       7.996  -1.555  24.157  0.00  0.00    +0.181 A 
ATOM      2  O   UNL     1       7.940  -2.377  23.031  0.00  0.00    -0.451 OA
ATOM      3  C   UNL     1       7.203  -3.526  23.067  0.00  0.00    +0.147 A 
ATOM      4  C   UNL     1       6.718  -4.063  24.249  0.00  0.00    +0.109 A 
ATOM      5  C   UNL     1       6.075  -5.308  24.237  0.00  0.00    +0.135 A 
ATOM      6  C   UNL     1       5.866  -5.981  23.035  0.00  0.00    +0.091 A 
ATOM      7  C   UNL     1       6.304  -5.399  21.849  0.00  0.00    +0.124 A 
ATOM      8  C   UNL     1       6.856  -3.260  25.468  0.00  0.00    +0.238 A 
ATOM      9  O   UNL     1       6.506  -3.736  26.543  0.00  0.00    -0.283 OA
ATOM     10  C   UNL     1       6.979  -4.182  21.857  0.00  0.00    +0.092 A 
ATOM     11  C   UNL     1       7.381  -1.863  25.321  0.00  0.00    +0.214 A 
ENDROOT
BRANCH   1  13
ATOM     12  C   UNL     1       9.971  -0.073  24.641  0.00  0.00    +0.011 A 
ATOM     13  C   UNL     1       8.811  -0.326  23.892  0.00  0.00    +0.024 A 
ATOM     14  C   UNL     1       8.452   0.641  22.946  0.00  0.00    +0.056 A 
ATOM     15  C   UNL     1       9.273   1.745  22.727  0.00  0.00    +0.110 A 
ATOM     16  C   UNL     1      10.435   2.041  23.462  0.00  0.00    -0.066 A 
ATOM     17  O   UNL     1      11.134   3.088  23.243  0.00  0.00    -0.871 OA
ATOM     18  C   UNL     1      10.740   1.090  24.440  0.00  0.00    -0.004 A 
BRANCH  15  19
ATOM     19  O   UNL     1       8.953   2.620  21.713  0.00  0.00    -0.507 OA
ATOM     20  H   UNL     1       9.872   2.908  21.484  0.00  0.00    +0.292 HD
ENDBRANCH  15  19
ENDBRANCH   1  13
BRANCH   5  21
ATOM     21  O   UNL     1       5.621  -5.925  25.373  0.00  0.00    -0.506 OA
ATOM     22  H   UNL     1       6.322  -5.848  26.061  0.00  0.00    +0.292 HD
ENDBRANCH   5  21
BRANCH   7  23
ATOM     23  O   UNL     1       6.098  -6.001  20.643  0.00  0.00    -0.507 OA
ATOM     24  H   UNL     1       6.411  -5.409  19.939  0.00  0.00    +0.292 HD
ENDBRANCH   7  23
BRANCH  11  25
ATOM     25  O   UNL     1       7.213  -1.053  26.430  0.00  0.00    -0.453 OA
BRANCH  25  26
ATOM     26  C   UNL     1       5.922  -0.423  26.554  0.00  0.00    +0.340 C 
ATOM     27  O   UNL     1       5.957   0.721  25.710  0.00  0.00    -0.331 OA
ATOM     28  C   UNL     1       5.724   2.044  26.186  0.00  0.00    +0.179 C 
ATOM     29  C   UNL     1       5.649   2.264  27.714  0.00  0.00    +0.177 C 
ATOM     30  C   UNL     1       6.206   1.095  28.520  0.00  0.00    +0.180 C 
ATOM     31  C   UNL     1       5.546  -0.180  28.028  0.00  0.00    +0.214 C 
BRANCH  29  32
ATOM     32  O   UNL     1       6.261   3.487  28.137  0.00  0.00    -0.386 OA
ATOM     33  H   UNL     1       7.217   3.373  27.958  0.00  0.00    +0.210 HD
ENDBRANCH  29  32
BRANCH  30  34
ATOM     34  O   UNL     1       7.635   1.056  28.460  0.00  0.00    -0.386 OA
ATOM     35  H   UNL     1       7.954   0.241  28.897  0.00  0.00    +0.210 HD
ENDBRANCH  30  34
BRANCH  31  36
ATOM     36  O   UNL     1       4.120  -0.062  28.182  0.00  0.00    -0.383 OA
ATOM     37  H   UNL     1       3.845   0.843  27.935  0.00  0.00    +0.210 HD
ENDBRANCH  31  36
BRANCH  28  38
ATOM     38  C   UNL     1       6.774   2.916  25.488  0.00  0.00    +0.190 C 
BRANCH  38  39
ATOM     39  O   UNL     1       8.075   2.622  26.009  0.00  0.00    -0.392 OA
ATOM     40  H   UNL     1       7.989   2.732  26.977  0.00  0.00    +0.210 HD
ENDBRANCH  38  39
ENDBRANCH  28  38
ENDBRANCH  25  26
ENDBRANCH  11  25
TORSDOF 11
ENDMDL
MODEL 3
REMARK VINA RESULT:      -6.6      2.736      8.334
REMARK  Name = 
REMARK  11 active torsions:
REMARK  status: ('A' for Active; 'I' for Inactive)
REMARK    1  A    between atoms: C_4  and  O_37
REMARK    2  A    between atoms: C_6  and  C_7
REMARK    3  A    between atoms: C_8  and  O_20
REMARK    4  A    between atoms: C_12  and  O_19
REMARK    5  A    between atoms: C_14  and  O_18
REMARK    6  A    between atoms: O_20  and  C_21
REMARK    7  A    between atoms: C_23  and  O_36
REMARK    8  A    between atoms: C_25  and  O_35
REMARK    9  A    between atoms: C_27  and  O_34
REMARK   10  A    between atoms: C_29  and  C_32
REMARK   11  A    between atoms: C_32  and  O_33
REMARK                            x       y       z     vdW  Elec       q    Type
REMARK                         _______ _______ _______ _____ _____    ______ ____
ROOT
ATOM      1  C   UNL     1       9.111   1.616  23.795  0.00  0.00    +0.181 A 
ATOM      2  O   UNL     1      10.397   1.996  23.411  0.00  0.00    -0.451 OA
ATOM      3  C   UNL     1      10.777   3.303  23.519  0.00  0.00    +0.147 A 
ATOM      4  C   UNL     1       9.870   4.327  23.740  0.00  0.00    +0.109 A 
ATOM      5  C   UNL     1      10.303   5.660  23.718  0.00  0.00    +0.135 A 
ATOM      6  C   UNL     1      11.652   5.959  23.536  0.00  0.00    +0.091 A 
ATOM      7  C   UNL     1      12.560   4.916  23.377  0.00  0.00    +0.124 A 
ATOM      8  C   UNL     1       8.486   3.955  24.047  0.00  0.00    +0.238 A 
ATOM      9  O   UNL     1       7.640   4.836  24.173  0.00  0.00    -0.283 OA
ATOM     10  C   UNL     1      12.132   3.592  23.358  0.00  0.00    +0.092 A 
ATOM     11  C   UNL     1       8.187   2.498  24.238  0.00  0.00    +0.214 A 
ENDROOT
BRANCH   1  13
ATOM     12  C   UNL     1       9.937  -0.751  24.015  0.00  0.00    +0.011 A 
ATOM     13  C   UNL     1       8.914   0.138  23.648  0.00  0.00    +0.024 A 
ATOM     14  C   UNL     1       7.755  -0.429  23.107  0.00  0.00    +0.056 A 
ATOM     15  C   UNL     1       7.623  -1.814  23.029  0.00  0.00    +0.110 A 
ATOM     16  C   UNL     1       8.626  -2.737  23.374  0.00  0.00    -0.066 A 
ATOM     17  O   UNL     1       8.466  -4.000  23.251  0.00  0.00    -0.871 OA
ATOM     18  C   UNL     1       9.796  -2.143  23.858  0.00  0.00    -0.004 A 
BRANCH  15  19
ATOM     19  O   UNL     1       6.428  -2.344  22.598  0.00  0.00    -0.507 OA
ATOM     20  H   UNL     1       6.790  -3.138  22.128  0.00  0.00    +0.292 HD
ENDBRANCH  15  19
ENDBRANCH   1  13
BRANCH   5  21
ATOM     21  O   UNL     1       9.454   6.724  23.871  0.00  0.00    -0.506 OA
ATOM     22  H   UNL     1       8.755   6.657  23.180  0.00  0.00    +0.292 HD
ENDBRANCH   5  21
BRANCH   7  23
ATOM     23  O   UNL     1      13.894   5.153  23.226  0.00  0.00    -0.507 OA
ATOM     24  H   UNL     1      14.109   6.008  23.635  0.00  0.00    +0.292 HD
ENDBRANCH   7  23
BRANCH  11  25
ATOM     25  O   UNL     1       6.959   2.221  24.813  0.00  0.00    -0.453 OA
BRANCH  25  26
ATOM     26  C   UNL     1       6.971   2.006  26.239  0.00  0.00    +0.340 C 
ATOM     27  O   UNL     1       7.029   0.597  26.427  0.00  0.00    -0.331 OA
ATOM     28  C   UNL     1       6.048  -0.128  27.163  0.00  0.00    +0.179 C 
ATOM     29  C   UNL     1       4.759   0.613  27.584  0.00  0.00    +0.177 C 
ATOM     30  C   UNL     1       4.544   1.922  26.832  0.00  0.00    +0.180 C 
ATOM     31  C   UNL     1       5.814   2.746  26.936  0.00  0.00    +0.214 C 
BRANCH  29  32
ATOM     32  O   UNL     1       3.586  -0.202  27.493  0.00  0.00    -0.386 OA
ATOM     33  H   UNL     1       3.386  -0.472  28.413  0.00  0.00    +0.210 HD
ENDBRANCH  29  32
BRANCH  30  34
ATOM     34  O   UNL     1       4.128   1.686  25.483  0.00  0.00    -0.386 OA
ATOM     35  H   UNL     1       4.527   2.362  24.899  0.00  0.00    +0.210 HD
ENDBRANCH  30  34
BRANCH  31  36
ATOM     36  O   UNL     1       6.113   2.976  28.325  0.00  0.00    -0.383 OA
ATOM     37  H   UNL     1       6.173   2.116  28.786  0.00  0.00    +0.210 HD
ENDBRANCH  31  36
BRANCH  28  38
ATOM     38  C   UNL     1       5.790  -1.400  26.346  0.00  0.00    +0.190 C 
BRANCH  38  39
ATOM     39  O   UNL     1       5.030  -1.082  25.176  0.00  0.00    -0.392 OA
ATOM     40  H   UNL     1       4.442  -1.851  25.041  0.00  0.00    +0.210 HD
ENDBRANCH  38  39
ENDBRANCH  28  38
ENDBRANCH  25  26
ENDBRANCH  11  25
TORSDOF 11
ENDMDL
MODEL 4
REMARK VINA RESULT:      -6.4      1.879      5.362
REMARK  Name = 
REMARK  11 active torsions:
REMARK  status: ('A' for Active; 'I' for Inactive)
REMARK    1  A    between atoms: C_4  and  O_37
REMARK    2  A    between atoms: C_6  and  C_7
REMARK    3  A    between atoms: C_8  and  O_20
REMARK    4  A    between atoms: C_12  and  O_19
REMARK    5  A    between atoms: C_14  and  O_18
REMARK    6  A    between atoms: O_20  and  C_21
REMARK    7  A    between atoms: C_23  and  O_36
REMARK    8  A    between atoms: C_25  and  O_35
REMARK    9  A    between atoms: C_27  and  O_34
REMARK   10  A    between atoms: C_29  and  C_32
REMARK   11  A    between atoms: C_32  and  O_33
REMARK                            x       y       z     vdW  Elec       q    Type
REMARK                         _______ _______ _______ _____ _____    ______ ____
ROOT
ATOM      1  C   UNL     1       8.041  -1.480  24.157  0.00  0.00    +0.181 A 
ATOM      2  O   UNL     1       7.911  -2.277  23.020  0.00  0.00    -0.451 OA
ATOM      3  C   UNL     1       7.164  -3.419  23.075  0.00  0.00    +0.147 A 
ATOM      4  C   UNL     1       6.744  -3.976  24.272  0.00  0.00    +0.109 A 
ATOM      5  C   UNL     1       6.087  -5.215  24.272  0.00  0.00    +0.135 A 
ATOM      6  C   UNL     1       5.800  -5.860  23.071  0.00  0.00    +0.091 A 
ATOM      7  C   UNL     1       6.175  -5.257  21.874  0.00  0.00    +0.124 A 
ATOM      8  C   UNL     1       6.961  -3.201  25.497  0.00  0.00    +0.238 A 
ATOM      9  O   UNL     1       6.669  -3.696  26.581  0.00  0.00    -0.283 OA
ATOM     10  C   UNL     1       6.863  -4.047  21.867  0.00  0.00    +0.092 A 
ATOM     11  C   UNL     1       7.492  -1.807  25.348  0.00  0.00    +0.214 A 
ENDROOT
BRANCH   1  13
ATOM     12  C   UNL     1      10.015   0.013  24.611  0.00  0.00    +0.011 A 
ATOM     13  C   UNL     1       8.853  -0.253  23.871  0.00  0.00    +0.024 A 
ATOM     14  C   UNL     1       8.489   0.698  22.911  0.00  0.00    +0.056 A 
ATOM     15  C   UNL     1       9.307   1.800  22.672  0.00  0.00    +0.110 A 
ATOM     16  C   UNL     1      10.471   2.109  23.398  0.00  0.00    -0.066 A 
ATOM     17  O   UNL     1      11.168   3.154  23.160  0.00  0.00    -0.871 OA
ATOM     18  C   UNL     1      10.781   1.174  24.390  0.00  0.00    -0.004 A 
BRANCH  15  19
ATOM     19  O   UNL     1       8.982   2.659  21.646  0.00  0.00    -0.507 OA
ATOM     20  H   UNL     1       8.043   2.836  21.907  0.00  0.00    +0.292 HD
ENDBRANCH  15  19
ENDBRANCH   1  13
BRANCH   5  21
ATOM     21  O   UNL     1       5.693  -5.851  25.420  0.00  0.00    -0.506 OA
ATOM     22  H   UNL     1       6.165  -6.715  25.465  0.00  0.00    +0.292 HD
ENDBRANCH   5  21
BRANCH   7  23
ATOM     23  O   UNL     1       5.892  -5.832  20.670  0.00  0.00    -0.507 OA
ATOM     24  H   UNL     1       6.521  -6.556  20.513  0.00  0.00    +0.292 HD
ENDBRANCH   7  23
BRANCH  11  25
ATOM     25  O   UNL     1       7.398  -1.019  26.482  0.00  0.00    -0.453 OA
BRANCH  25  26
ATOM     26  C   UNL     1       6.633   0.195  26.338  0.00  0.00    +0.340 C 
ATOM     27  O   UNL     1       6.947   1.000  27.468  0.00  0.00    -0.331 OA
ATOM     28  C   UNL     1       5.962   1.471  28.382  0.00  0.00    +0.179 C 
ATOM     29  C   UNL     1       4.530   0.904  28.266  0.00  0.00    +0.177 C 
ATOM     30  C   UNL     1       4.451  -0.365  27.423  0.00  0.00    +0.180 C 
ATOM     31  C   UNL     1       5.140  -0.099  26.097  0.00  0.00    +0.214 C 
BRANCH  29  32
ATOM     32  O   UNL     1       3.905   0.687  29.536  0.00  0.00    -0.386 OA
ATOM     33  H   UNL     1       4.637   0.489  30.155  0.00  0.00    +0.210 HD
ENDBRANCH  29  32
BRANCH  30  34
ATOM     34  O   UNL     1       4.984  -1.491  28.125  0.00  0.00    -0.386 OA
ATOM     35  H   UNL     1       4.295  -2.182  28.200  0.00  0.00    +0.210 HD
ENDBRANCH  30  34
BRANCH  31  36
ATOM     36  O   UNL     1       4.496   1.011  25.445  0.00  0.00    -0.383 OA
ATOM     37  H   UNL     1       3.630   1.171  25.869  0.00  0.00    +0.210 HD
ENDBRANCH  31  36
BRANCH  28  38
ATOM     38  C   UNL     1       6.585   1.293  29.773  0.00  0.00    +0.190 C 
BRANCH  38  39
ATOM     39  O   UNL     1       8.010   1.227  29.663  0.00  0.00    -0.392 OA
ATOM     40  H   UNL     1       8.304   2.159  29.627  0.00  0.00    +0.210 HD
ENDBRANCH  38  39
ENDBRANCH  28  38
ENDBRANCH  25  26
ENDBRANCH  11  25
TORSDOF 11
ENDMDL
MODEL 5
REMARK VINA RESULT:      -6.4      2.006      5.277
REMARK  Name = 
REMARK  11 active torsions:
REMARK  status: ('A' for Active; 'I' for Inactive)
REMARK    1  A    between atoms: C_4  and  O_37
REMARK    2  A    between atoms: C_6  and  C_7
REMARK    3  A    between atoms: C_8  and  O_20
REMARK    4  A    between atoms: C_12  and  O_19
REMARK    5  A    between atoms: C_14  and  O_18
REMARK    6  A    between atoms: O_20  and  C_21
REMARK    7  A    between atoms: C_23  and  O_36
REMARK    8  A    between atoms: C_25  and  O_35
REMARK    9  A    between atoms: C_27  and  O_34
REMARK   10  A    between atoms: C_29  and  C_32
REMARK   11  A    between atoms: C_32  and  O_33
REMARK                            x       y       z     vdW  Elec       q    Type
REMARK                         _______ _______ _______ _____ _____    ______ ____
ROOT
ATOM      1  C   UNL     1       5.737  -1.984  24.643  0.00  0.00    +0.181 A 
ATOM      2  O   UNL     1       4.857  -2.341  25.665  0.00  0.00    -0.451 OA
ATOM      3  C   UNL     1       4.289  -1.370  26.439  0.00  0.00    +0.147 A 
ATOM      4  C   UNL     1       4.742  -0.061  26.443  0.00  0.00    +0.109 A 
ATOM      5  C   UNL     1       4.201   0.862  27.350  0.00  0.00    +0.135 A 
ATOM      6  C   UNL     1       3.167   0.485  28.205  0.00  0.00    +0.091 A 
ATOM      7  C   UNL     1       2.681  -0.817  28.145  0.00  0.00    +0.124 A 
ATOM      8  C   UNL     1       5.744   0.315  25.442  0.00  0.00    +0.238 A 
ATOM      9  O   UNL     1       6.223   1.445  25.465  0.00  0.00    -0.283 OA
ATOM     10  C   UNL     1       3.240  -1.750  27.276  0.00  0.00    +0.092 A 
ATOM     11  C   UNL     1       6.099  -0.704  24.401  0.00  0.00    +0.214 A 
ENDROOT
BRANCH   1  13
ATOM     12  C   UNL     1       7.099  -4.093  24.475  0.00  0.00    +0.011 A 
ATOM     13  C   UNL     1       6.204  -3.188  23.883  0.00  0.00    +0.024 A 
ATOM     14  C   UNL     1       5.828  -3.452  22.561  0.00  0.00    +0.056 A 
ATOM     15  C   UNL     1       6.273  -4.608  21.924  0.00  0.00    +0.110 A 
ATOM     16  C   UNL     1       7.178  -5.532  22.476  0.00  0.00    -0.066 A 
ATOM     17  O   UNL     1       7.582  -6.561  21.833  0.00  0.00    -0.871 OA
ATOM     18  C   UNL     1       7.584  -5.215  23.776  0.00  0.00    -0.004 A 
BRANCH  15  19
ATOM     19  O   UNL     1       5.797  -4.897  20.665  0.00  0.00    -0.507 OA
ATOM     20  H   UNL     1       5.685  -5.875  20.780  0.00  0.00    +0.292 HD
ENDBRANCH  15  19
ENDBRANCH   1  13
BRANCH   5  21
ATOM     21  O   UNL     1       4.639   2.156  27.448  0.00  0.00    -0.506 OA
ATOM     22  H   UNL     1       3.849   2.745  27.443  0.00  0.00    +0.292 HD
ENDBRANCH   5  21
BRANCH   7  23
ATOM     23  O   UNL     1       1.651  -1.228  28.939  0.00  0.00    -0.507 OA
ATOM     24  H   UNL     1       0.898  -1.471  28.375  0.00  0.00    +0.292 HD
ENDBRANCH   7  23
BRANCH  11  25
ATOM     25  O   UNL     1       6.809  -0.215  23.318  0.00  0.00    -0.453 OA
BRANCH  25  26
ATOM     26  C   UNL     1       8.199  -0.592  23.261  0.00  0.00    +0.340 C 
ATOM     27  O   UNL     1       8.890   0.305  24.122  0.00  0.00    -0.331 OA
ATOM     28  C   UNL     1       9.956   1.139  23.678  0.00  0.00    +0.179 C 
ATOM     29  C   UNL     1      10.224   1.233  22.159  0.00  0.00    +0.177 C 
ATOM     30  C   UNL     1       9.070   0.707  21.311  0.00  0.00    +0.180 C 
ATOM     31  C   UNL     1       8.705  -0.679  21.808  0.00  0.00    +0.214 C 
BRANCH  29  32
ATOM     32  O   UNL     1      10.587   2.550  21.732  0.00  0.00    -0.386 OA
ATOM     33  H   UNL     1      11.564   2.578  21.780  0.00  0.00    +0.210 HD
ENDBRANCH  29  32
BRANCH  30  34
ATOM     34  O   UNL     1       7.968   1.619  21.309  0.00  0.00    -0.386 OA
ATOM     35  H   UNL     1       7.270   1.281  20.713  0.00  0.00    +0.210 HD
ENDBRANCH  30  34
BRANCH  31  36
ATOM     36  O   UNL     1       9.862  -1.532  21.717  0.00  0.00    -0.383 OA
ATOM     37  H   UNL     1      10.447  -1.358  22.480  0.00  0.00    +0.210 HD
ENDBRANCH  31  36
BRANCH  28  38
ATOM     38  C   UNL     1       9.710   2.498  24.346  0.00  0.00    +0.190 C 
BRANCH  38  39
ATOM     39  O   UNL     1       8.447   3.024  23.928  0.00  0.00    -0.392 OA
ATOM     40  H   UNL     1       8.024   2.297  23.429  0.00  0.00    +0.210 HD
ENDBRANCH  38  39
ENDBRANCH  28  38
ENDBRANCH  25  26
ENDBRANCH  11  25
TORSDOF 11
ENDMDL
MODEL 6
REMARK VINA RESULT:      -6.3      2.519      3.541
REMARK  Name = 
REMARK  11 active torsions:
REMARK  status: ('A' for Active; 'I' for Inactive)
REMARK    1  A    between atoms: C_4  and  O_37
REMARK    2  A    between atoms: C_6  and  C_7
REMARK    3  A    between atoms: C_8  and  O_20
REMARK    4  A    between atoms: C_12  and  O_19
REMARK    5  A    between atoms: C_14  and  O_18
REMARK    6  A    between atoms: O_20  and  C_21
REMARK    7  A    between atoms: C_23  and  O_36
REMARK    8  A    between atoms: C_25  and  O_35
REMARK    9  A    between atoms: C_27  and  O_34
REMARK   10  A    between atoms: C_29  and  C_32
REMARK   11  A    between atoms: C_32  and  O_33
REMARK                            x       y       z     vdW  Elec       q    Type
REMARK                         _______ _______ _______ _____ _____    ______ ____
ROOT
ATOM      1  C   UNL     1       6.714  -0.651  26.560  0.00  0.00    +0.181 A 
ATOM      2  O   UNL     1       6.183  -1.877  26.958  0.00  0.00    -0.451 OA
ATOM      3  C   UNL     1       6.903  -3.022  26.765  0.00  0.00    +0.147 A 
ATOM      4  C   UNL     1       8.023  -3.069  25.951  0.00  0.00    +0.109 A 
ATOM      5  C   UNL     1       8.648  -4.297  25.693  0.00  0.00    +0.135 A 
ATOM      6  C   UNL     1       8.184  -5.463  26.299  0.00  0.00    +0.091 A 
ATOM      7  C   UNL     1       7.095  -5.389  27.163  0.00  0.00    +0.124 A 
ATOM      8  C   UNL     1       8.543  -1.799  25.436  0.00  0.00    +0.238 A 
ATOM      9  O   UNL     1       9.488  -1.810  24.652  0.00  0.00    -0.283 OA
ATOM     10  C   UNL     1       6.445  -4.180  27.393  0.00  0.00    +0.092 A 
ATOM     11  C   UNL     1       7.911  -0.536  25.940  0.00  0.00    +0.214 A 
ENDROOT
BRANCH   1  13
ATOM     12  C   UNL     1       6.036   1.265  28.044  0.00  0.00    +0.011 A 
ATOM     13  C   UNL     1       5.793   0.479  26.907  0.00  0.00    +0.024 A 
ATOM     14  C   UNL     1       4.643   0.782  26.169  0.00  0.00    +0.056 A 
ATOM     15  C   UNL     1       3.847   1.868  26.528  0.00  0.00    +0.110 A 
ATOM     16  C   UNL     1       4.049   2.671  27.664  0.00  0.00    -0.066 A 
ATOM     17  O   UNL     1       3.267   3.636  27.967  0.00  0.00    -0.871 OA
ATOM     18  C   UNL     1       5.172   2.312  28.416  0.00  0.00    -0.004 A 
BRANCH  15  19
ATOM     19  O   UNL     1       2.787   2.209  25.720  0.00  0.00    -0.507 OA
ATOM     20  H   UNL     1       2.908   3.192  25.740  0.00  0.00    +0.292 HD
ENDBRANCH  15  19
ENDBRANCH   1  13
BRANCH   5  21
ATOM     21  O   UNL     1       9.723  -4.427  24.855  0.00  0.00    -0.506 OA
ATOM     22  H   UNL     1       9.382  -4.582  23.944  0.00  0.00    +0.292 HD
ENDBRANCH   5  21
BRANCH   7  23
ATOM     23  O   UNL     1       6.621  -6.495  27.805  0.00  0.00    -0.507 OA
ATOM     24  H   UNL     1       7.375  -7.008  28.143  0.00  0.00    +0.292 HD
ENDBRANCH   7  23
BRANCH  11  25
ATOM     25  O   UNL     1       8.616   0.623  25.667  0.00  0.00    -0.453 OA
BRANCH  25  26
ATOM     26  C   UNL     1       7.986   1.535  24.745  0.00  0.00    +0.340 C 
ATOM     27  O   UNL     1       7.863   0.832  23.514  0.00  0.00    -0.331 OA
ATOM     28  C   UNL     1       8.431   1.300  22.295  0.00  0.00    +0.179 C 
ATOM     29  C   UNL     1       9.403   2.500  22.357  0.00  0.00    +0.177 C 
ATOM     30  C   UNL     1       9.913   2.789  23.765  0.00  0.00    +0.180 C 
ATOM     31  C   UNL     1       8.718   2.889  24.694  0.00  0.00    +0.214 C 
BRANCH  29  32
ATOM     32  O   UNL     1      10.505   2.380  21.451  0.00  0.00    -0.386 OA
ATOM     33  H   UNL     1      10.282   2.961  20.694  0.00  0.00    +0.210 HD
ENDBRANCH  29  32
BRANCH  30  34
ATOM     34  O   UNL     1      10.876   1.816  24.179  0.00  0.00    -0.386 OA
ATOM     35  H   UNL     1      11.373   1.498  23.398  0.00  0.00    +0.210 HD
ENDBRANCH  30  34
BRANCH  31  36
ATOM     36  O   UNL     1       7.842   3.930  24.224  0.00  0.00    -0.383 OA
ATOM     37  H   UNL     1       7.850   3.938  23.247  0.00  0.00    +0.210 HD
ENDBRANCH  31  36
BRANCH  28  38
ATOM     38  C   UNL     1       9.030   0.056  21.625  0.00  0.00    +0.190 C 
BRANCH  38  39
ATOM     39  O   UNL     1      10.160  -0.403  22.373  0.00  0.00    -0.392 OA
ATOM     40  H   UNL     1       9.830  -0.509  23.287  0.00  0.00    +0.210 HD
ENDBRANCH  38  39
ENDBRANCH  28  38
ENDBRANCH  25  26
ENDBRANCH  11  25
TORSDOF 11
ENDMDL
MODEL 7
REMARK VINA RESULT:      -6.3      2.298      7.782
REMARK  Name = 
REMARK  11 active torsions:
REMARK  status: ('A' for Active; 'I' for Inactive)
REMARK    1  A    between atoms: C_4  and  O_37
REMARK    2  A    between atoms: C_6  and  C_7
REMARK    3  A    between atoms: C_8  and  O_20
REMARK    4  A    between atoms: C_12  and  O_19
REMARK    5  A    between atoms: C_14  and  O_18
REMARK    6  A    between atoms: O_20  and  C_21
REMARK    7  A    between atoms: C_23  and  O_36
REMARK    8  A    between atoms: C_25  and  O_35
REMARK    9  A    between atoms: C_27  and  O_34
REMARK   10  A    between atoms: C_29  and  C_32
REMARK   11  A    between atoms: C_32  and  O_33
REMARK                            x       y       z     vdW  Elec       q    Type
REMARK                         _______ _______ _______ _____ _____    ______ ____
ROOT
ATOM      1  C   UNL     1       7.218  -0.864  23.625  0.00  0.00    +0.181 A 
ATOM      2  O   UNL     1       8.352  -0.204  23.153  0.00  0.00    -0.451 OA
ATOM      3  C   UNL     1       8.531   1.121  23.433  0.00  0.00    +0.147 A 
ATOM      4  C   UNL     1       7.515   1.919  23.935  0.00  0.00    +0.109 A 
ATOM      5  C   UNL     1       7.721   3.297  24.085  0.00  0.00    +0.135 A 
ATOM      6  C   UNL     1       8.962   3.860  23.790  0.00  0.00    +0.091 A 
ATOM      7  C   UNL     1       9.990   3.035  23.346  0.00  0.00    +0.124 A 
ATOM      8  C   UNL     1       6.272   1.260  24.345  0.00  0.00    +0.238 A 
ATOM      9  O   UNL     1       5.325   1.944  24.723  0.00  0.00    -0.283 OA
ATOM     10  C   UNL     1       9.781   1.672  23.156  0.00  0.00    +0.092 A 
ATOM     11  C   UNL     1       6.242  -0.239  24.322  0.00  0.00    +0.214 A 
ENDROOT
BRANCH   1  13
ATOM     12  C   UNL     1       6.412  -2.796  22.228  0.00  0.00    +0.011 A 
ATOM     13  C   UNL     1       7.240  -2.316  23.255  0.00  0.00    +0.024 A 
ATOM     14  C   UNL     1       8.027  -3.263  23.920  0.00  0.00    +0.056 A 
ATOM     15  C   UNL     1       8.025  -4.592  23.503  0.00  0.00    +0.110 A 
ATOM     16  C   UNL     1       7.204  -5.115  22.489  0.00  0.00    -0.066 A 
ATOM     17  O   UNL     1       7.217  -6.352  22.168  0.00  0.00    -0.871 OA
ATOM     18  C   UNL     1       6.385  -4.160  21.879  0.00  0.00    -0.004 A 
BRANCH  15  19
ATOM     19  O   UNL     1       8.892  -5.477  24.103  0.00  0.00    -0.507 OA
ATOM     20  H   UNL     1       9.312  -4.848  24.742  0.00  0.00    +0.292 HD
ENDBRANCH  15  19
ENDBRANCH   1  13
BRANCH   5  21
ATOM     21  O   UNL     1       6.746   4.155  24.522  0.00  0.00    -0.506 OA
ATOM     22  H   UNL     1       6.423   4.668  23.745  0.00  0.00    +0.292 HD
ENDBRANCH   5  21
BRANCH   7  23
ATOM     23  O   UNL     1      11.230   3.530  23.071  0.00  0.00    -0.507 OA
ATOM     24  H   UNL     1      11.449   3.333  22.145  0.00  0.00    +0.292 HD
ENDBRANCH   7  23
BRANCH  11  25
ATOM     25  O   UNL     1       5.176  -0.815  24.991  0.00  0.00    -0.453 OA
BRANCH  25  26
ATOM     26  C   UNL     1       5.377  -1.053  26.399  0.00  0.00    +0.340 C 
ATOM     27  O   UNL     1       5.966  -2.343  26.504  0.00  0.00    -0.331 OA
ATOM     28  C   UNL     1       5.382  -3.403  27.255  0.00  0.00    +0.179 C 
ATOM     29  C   UNL     1       3.947  -3.210  27.794  0.00  0.00    +0.177 C 
ATOM     30  C   UNL     1       3.206  -2.053  27.131  0.00  0.00    +0.180 C 
ATOM     31  C   UNL     1       4.084  -0.818  27.205  0.00  0.00    +0.214 C 
BRANCH  29  32
ATOM     32  O   UNL     1       3.156  -4.401  27.728  0.00  0.00    -0.386 OA
ATOM     33  H   UNL     1       2.243  -4.118  27.945  0.00  0.00    +0.210 HD
ENDBRANCH  29  32
BRANCH  30  34
ATOM     34  O   UNL     1       2.805  -2.387  25.798  0.00  0.00    -0.386 OA
ATOM     35  H   UNL     1       3.482  -2.069  25.167  0.00  0.00    +0.210 HD
ENDBRANCH  30  34
BRANCH  31  36
ATOM     36  O   UNL     1       4.383  -0.535  28.584  0.00  0.00    -0.383 OA
ATOM     37  H   UNL     1       5.351  -0.567  28.714  0.00  0.00    +0.210 HD
ENDBRANCH  31  36
BRANCH  28  38
ATOM     38  C   UNL     1       5.552  -4.655  26.386  0.00  0.00    +0.190 C 
BRANCH  38  39
ATOM     39  O   UNL     1       4.831  -4.497  25.160  0.00  0.00    -0.392 OA
ATOM     40  H   UNL     1       5.228  -3.712  24.734  0.00  0.00    +0.210 HD
ENDBRANCH  38  39
ENDBRANCH  28  38
ENDBRANCH  25  26
ENDBRANCH  11  25
TORSDOF 11
ENDMDL
MODEL 8
REMARK VINA RESULT:      -6.3      2.321      6.654
REMARK  Name = 
REMARK  11 active torsions:
REMARK  status: ('A' for Active; 'I' for Inactive)
REMARK    1  A    between atoms: C_4  and  O_37
REMARK    2  A    between atoms: C_6  and  C_7
REMARK    3  A    between atoms: C_8  and  O_20
REMARK    4  A    between atoms: C_12  and  O_19
REMARK    5  A    between atoms: C_14  and  O_18
REMARK    6  A    between atoms: O_20  and  C_21
REMARK    7  A    between atoms: C_23  and  O_36
REMARK    8  A    between atoms: C_25  and  O_35
REMARK    9  A    between atoms: C_27  and  O_34
REMARK   10  A    between atoms: C_29  and  C_32
REMARK   11  A    between atoms: C_32  and  O_33
REMARK                            x       y       z     vdW  Elec       q    Type
REMARK                         _______ _______ _______ _____ _____    ______ ____
ROOT
ATOM      1  C   UNL     1       5.969  -0.478  24.901  0.00  0.00    +0.181 A 
ATOM      2  O   UNL     1       5.816   0.909  24.895  0.00  0.00    -0.451 OA
ATOM      3  C   UNL     1       6.309   1.639  23.852  0.00  0.00    +0.147 A 
ATOM      4  C   UNL     1       7.191   1.110  22.923  0.00  0.00    +0.109 A 
ATOM      5  C   UNL     1       7.760   1.942  21.948  0.00  0.00    +0.135 A 
ATOM      6  C   UNL     1       7.396   3.285  21.869  0.00  0.00    +0.091 A 
ATOM      7  C   UNL     1       6.461   3.786  22.770  0.00  0.00    +0.124 A 
ATOM      8  C   UNL     1       7.448  -0.332  22.974  0.00  0.00    +0.238 A 
ATOM      9  O   UNL     1       8.280  -0.822  22.217  0.00  0.00    -0.283 OA
ATOM     10  C   UNL     1       5.923   2.976  23.766  0.00  0.00    +0.092 A 
ATOM     11  C   UNL     1       6.632  -1.147  23.932  0.00  0.00    +0.214 A 
ENDROOT
BRANCH   1  13
ATOM     12  C   UNL     1       4.277  -0.415  26.763  0.00  0.00    +0.011 A 
ATOM     13  C   UNL     1       5.314  -1.091  26.102  0.00  0.00    +0.024 A 
ATOM     14  C   UNL     1       5.714  -2.315  26.650  0.00  0.00    +0.056 A 
ATOM     15  C   UNL     1       5.040  -2.845  27.748  0.00  0.00    +0.110 A 
ATOM     16  C   UNL     1       4.006  -2.195  28.446  0.00  0.00    -0.066 A 
ATOM     17  O   UNL     1       3.443  -2.712  29.471  0.00  0.00    -0.871 OA
ATOM     18  C   UNL     1       3.664  -0.948  27.913  0.00  0.00    -0.004 A 
BRANCH  15  19
ATOM     19  O   UNL     1       5.383  -4.100  28.195  0.00  0.00    -0.507 OA
ATOM     20  H   UNL     1       5.736  -3.840  29.083  0.00  0.00    +0.292 HD
ENDBRANCH  15  19
ENDBRANCH   1  13
BRANCH   5  21
ATOM     21  O   UNL     1       8.681   1.500  21.036  0.00  0.00    -0.506 OA
ATOM     22  H   UNL     1       8.962   0.594  21.302  0.00  0.00    +0.292 HD
ENDBRANCH   5  21
BRANCH   7  23
ATOM     23  O   UNL     1       6.049   5.084  22.717  0.00  0.00    -0.507 OA
ATOM     24  H   UNL     1       6.450   5.571  23.457  0.00  0.00    +0.292 HD
ENDBRANCH   7  23
BRANCH  11  25
ATOM     25  O   UNL     1       6.690  -2.516  23.736  0.00  0.00    -0.453 OA
BRANCH  25  26
ATOM     26  C   UNL     1       5.765  -3.048  22.766  0.00  0.00    +0.340 C 
ATOM     27  O   UNL     1       4.633  -3.496  23.501  0.00  0.00    -0.331 OA
ATOM     28  C   UNL     1       4.162  -4.840  23.457  0.00  0.00    +0.179 C 
ATOM     29  C   UNL     1       5.044  -5.898  22.759  0.00  0.00    +0.177 C 
ATOM     30  C   UNL     1       6.479  -5.433  22.534  0.00  0.00    +0.180 C 
ATOM     31  C   UNL     1       6.440  -4.082  21.844  0.00  0.00    +0.214 C 
BRANCH  29  32
ATOM     32  O   UNL     1       5.039  -7.165  23.426  0.00  0.00    -0.386 OA
ATOM     33  H   UNL     1       5.467  -7.003  24.292  0.00  0.00    +0.210 HD
ENDBRANCH  29  32
BRANCH  30  34
ATOM     34  O   UNL     1       7.222  -5.425  23.757  0.00  0.00    -0.386 OA
ATOM     35  H   UNL     1       6.923  -4.678  24.313  0.00  0.00    +0.210 HD
ENDBRANCH  30  34
BRANCH  31  36
ATOM     36  O   UNL     1       5.723  -4.208  20.602  0.00  0.00    -0.383 OA
ATOM     37  H   UNL     1       5.529  -3.317  20.253  0.00  0.00    +0.210 HD
ENDBRANCH  31  36
BRANCH  28  38
ATOM     38  C   UNL     1       3.808  -5.191  24.908  0.00  0.00    +0.190 C 
BRANCH  38  39
ATOM     39  O   UNL     1       4.992  -5.565  25.620  0.00  0.00    -0.392 OA
ATOM     40  H   UNL     1       5.377  -6.299  25.102  0.00  0.00    +0.210 HD
ENDBRANCH  38  39
ENDBRANCH  28  38
ENDBRANCH  25  26
ENDBRANCH  11  25
TORSDOF 11
ENDMDL
MODEL 9
REMARK VINA RESULT:      -6.2      1.453      2.358
REMARK  Name = 
REMARK  11 active torsions:
REMARK  status: ('A' for Active; 'I' for Inactive)
REMARK    1  A    between atoms: C_4  and  O_37
REMARK    2  A    between atoms: C_6  and  C_7
REMARK    3  A    between atoms: C_8  and  O_20
REMARK    4  A    between atoms: C_12  and  O_19
REMARK    5  A    between atoms: C_14  and  O_18
REMARK    6  A    between atoms: O_20  and  C_21
REMARK    7  A    between atoms: C_23  and  O_36
REMARK    8  A    between atoms: C_25  and  O_35
REMARK    9  A    between atoms: C_27  and  O_34
REMARK   10  A    between atoms: C_29  and  C_32
REMARK   11  A    between atoms: C_32  and  O_33
REMARK                            x       y       z     vdW  Elec       q    Type
REMARK                         _______ _______ _______ _____ _____    ______ ____
ROOT
ATOM      1  C   UNL     1       6.295  -2.029  25.476  0.00  0.00    +0.181 A 
ATOM      2  O   UNL     1       5.431  -3.122  25.535  0.00  0.00    -0.451 OA
ATOM      3  C   UNL     1       5.598  -4.166  24.670  0.00  0.00    +0.147 A 
ATOM      4  C   UNL     1       6.416  -4.084  23.555  0.00  0.00    +0.109 A 
ATOM      5  C   UNL     1       6.452  -5.143  22.637  0.00  0.00    +0.135 A 
ATOM      6  C   UNL     1       5.715  -6.303  22.870  0.00  0.00    +0.091 A 
ATOM      7  C   UNL     1       4.947  -6.393  24.027  0.00  0.00    +0.124 A 
ATOM      8  C   UNL     1       7.263  -2.895  23.417  0.00  0.00    +0.238 A 
ATOM      9  O   UNL     1       7.943  -2.755  22.406  0.00  0.00    -0.283 OA
ATOM     10  C   UNL     1       4.875  -5.331  24.923  0.00  0.00    +0.092 A 
ATOM     11  C   UNL     1       7.285  -1.926  24.561  0.00  0.00    +0.214 A 
ENDROOT
BRANCH   1  13
ATOM     12  C   UNL     1       4.640  -0.679  26.806  0.00  0.00    +0.011 A 
ATOM     13  C   UNL     1       5.974  -1.024  26.540  0.00  0.00    +0.024 A 
ATOM     14  C   UNL     1       6.954  -0.352  27.279  0.00  0.00    +0.056 A 
ATOM     15  C   UNL     1       6.585   0.547  28.277  0.00  0.00    +0.110 A 
ATOM     16  C   UNL     1       5.263   0.929  28.566  0.00  0.00    -0.066 A 
ATOM     17  O   UNL     1       4.982   1.786  29.472  0.00  0.00    -0.871 OA
ATOM     18  C   UNL     1       4.306   0.286  27.775  0.00  0.00    -0.004 A 
BRANCH  15  19
ATOM     19  O   UNL     1       7.568   1.108  29.061  0.00  0.00    -0.507 OA
ATOM     20  H   UNL     1       7.955   1.718  28.384  0.00  0.00    +0.292 HD
ENDBRANCH  15  19
ENDBRANCH   1  13
BRANCH   5  21
ATOM     21  O   UNL     1       7.193  -5.108  21.485  0.00  0.00    -0.506 OA
ATOM     22  H   UNL     1       6.587  -4.885  20.740  0.00  0.00    +0.292 HD
ENDBRANCH   5  21
BRANCH   7  23
ATOM     23  O   UNL     1       4.231  -7.517  24.318  0.00  0.00    -0.507 OA
ATOM     24  H   UNL     1       4.159  -8.059  23.515  0.00  0.00    +0.292 HD
ENDBRANCH   7  23
BRANCH  11  25
ATOM     25  O   UNL     1       8.306  -0.992  24.519  0.00  0.00    -0.453 OA
BRANCH  25  26
ATOM     26  C   UNL     1       7.900   0.368  24.264  0.00  0.00    +0.340 C 
ATOM     27  O   UNL     1       7.665   0.455  22.864  0.00  0.00    -0.331 OA
ATOM     28  C   UNL     1       8.347   1.378  22.020  0.00  0.00    +0.179 C 
ATOM     29  C   UNL     1       9.543   2.159  22.610  0.00  0.00    +0.177 C 
ATOM     30  C   UNL     1      10.068   1.562  23.912  0.00  0.00    +0.180 C 
ATOM     31  C   UNL     1       8.896   1.380  24.860  0.00  0.00    +0.214 C 
BRANCH  29  32
ATOM     32  O   UNL     1      10.619   2.329  21.681  0.00  0.00    -0.386 OA
ATOM     33  H   UNL     1      11.435   2.303  22.222  0.00  0.00    +0.210 HD
ENDBRANCH  29  32
BRANCH  30  34
ATOM     34  O   UNL     1      10.799   0.356  23.675  0.00  0.00    -0.386 OA
ATOM     35  H   UNL     1      10.913   0.231  22.711  0.00  0.00    +0.210 HD
ENDBRANCH  30  34
BRANCH  31  36
ATOM     36  O   UNL     1       8.264   2.655  25.078  0.00  0.00    -0.383 OA
ATOM     37  H   UNL     1       7.503   2.536  25.679  0.00  0.00    +0.210 HD
ENDBRANCH  31  36
BRANCH  28  38
ATOM     38  C   UNL     1       8.693   0.587  20.752  0.00  0.00    +0.190 C 
BRANCH  38  39
ATOM     39  O   UNL     1       9.473  -0.563  21.094  0.00  0.00    -0.392 OA
ATOM     40  H   UNL     1       9.783  -0.395  22.006  0.00  0.00    +0.210 HD
ENDBRANCH  38  39
ENDBRANCH  28  38
ENDBRANCH  25  26
ENDBRANCH  11  25
TORSDOF 11
ENDMDL
