MODEL 1
REMARK VINA RESULT:      -7.2      0.000      0.000
REMARK  Name = 
REMARK  7 active torsions:
REMARK  status: ('A' for Active; 'I' for Inactive)
REMARK    1  A    between atoms: C_4  and  O_25
REMARK    2  A    between atoms: C_6  and  C_7
REMARK    3  A    between atoms: C_8  and  O_20
REMARK    4  A    between atoms: C_12  and  O_19
REMARK    5  A    between atoms: C_14  and  O_18
REMARK    6  A    between atoms: O_20  and  S_21
REMARK    7  A    between atoms: O_25  and  S_26
REMARK                            x       y       z     vdW  Elec       q    Type
REMARK                         _______ _______ _______ _____ _____    ______ ____
ROOT
ATOM      1  C   UNL     1       8.503   1.561  23.765  0.00  0.00    +0.184 A 
ATOM      2  O   UNL     1       9.835   1.973  23.790  0.00  0.00    -0.451 OA
ATOM      3  C   UNL     1      10.132   3.299  23.676  0.00  0.00    +0.147 A 
ATOM      4  C   UNL     1       9.156   4.271  23.553  0.00  0.00    +0.109 A 
ATOM      5  C   UNL     1       9.529   5.619  23.423  0.00  0.00    +0.135 A 
ATOM      6  C   UNL     1      10.870   5.989  23.406  0.00  0.00    +0.091 A 
ATOM      7  C   UNL     1      11.841   5.002  23.531  0.00  0.00    +0.124 A 
ATOM      8  C   UNL     1       7.749   3.855  23.525  0.00  0.00    +0.241 A 
ATOM      9  O   UNL     1       6.943   4.760  23.339  0.00  0.00    -0.283 OA
ATOM     10  C   UNL     1      11.484   3.662  23.672  0.00  0.00    +0.092 A 
ATOM     11  C   UNL     1       7.441   2.396  23.671  0.00  0.00    +0.244 A 
ENDROOT
BRANCH   1  13
ATOM     12  C   UNL     1       9.144  -0.514  24.963  0.00  0.00    +0.011 A 
ATOM     13  C   UNL     1       8.439   0.087  23.921  0.00  0.00    +0.025 A 
ATOM     14  C   UNL     1       7.890  -0.744  22.931  0.00  0.00    +0.059 A 
ATOM     15  C   UNL     1       8.105  -2.145  22.947  0.00  0.00    +0.148 A 
ATOM     16  C   UNL     1       8.868  -2.782  23.985  0.00  0.00    -0.062 A 
ATOM     17  O   UNL     1       9.138  -4.034  24.055  0.00  0.00    -0.871 OA
ATOM     18  C   UNL     1       9.344  -1.902  24.981  0.00  0.00    -0.004 A 
BRANCH  15  19
ATOM     19  O   UNL     1       7.597  -2.997  21.970  0.00  0.00    -0.361 OA
BRANCH  19  20
ATOM     20  S   UNL     1       6.171  -3.791  22.035  0.00  0.00    +0.042 S 
ATOM     21  O   UNL     1       6.499  -5.169  22.419  0.00  0.00    -0.259 OA
ATOM     22  O   UNL     1       5.633  -3.701  20.672  0.00  0.00    -0.336 OA
ATOM     23  O   UNL     1       5.336  -3.096  23.018  0.00  0.00    -0.336 OA
ENDBRANCH  19  20
ENDBRANCH  15  19
ENDBRANCH   1  13
BRANCH   5  24
ATOM     24  O   UNL     1       8.618   6.640  23.300  0.00  0.00    -0.506 OA
ATOM     25  H   UNL     1       7.753   6.215  23.068  0.00  0.00    +0.292 HD
ENDBRANCH   5  24
BRANCH   7  26
ATOM     26  O   UNL     1      13.168   5.324  23.513  0.00  0.00    -0.507 OA
ATOM     27  H   UNL     1      13.287   6.133  24.038  0.00  0.00    +0.292 HD
ENDBRANCH   7  26
BRANCH  11  28
ATOM     28  O   UNL     1       6.132   1.923  23.677  0.00  0.00    -0.353 OA
BRANCH  28  29
ATOM     29  S   UNL     1       5.248   1.647  25.033  0.00  0.00    +0.043 S 
ATOM     30  O   UNL     1       3.967   2.302  24.762  0.00  0.00    -0.259 OA
ATOM     31  O   UNL     1       5.985   2.285  26.124  0.00  0.00    -0.336 OA
ATOM     32  O   UNL     1       5.125   0.189  25.119  0.00  0.00    -0.336 OA
ENDBRANCH  28  29
ENDBRANCH  11  28
TORSDOF 7
ENDMDL
MODEL 2
REMARK VINA RESULT:      -7.2      1.410      1.920
REMARK  Name = 
REMARK  7 active torsions:
REMARK  status: ('A' for Active; 'I' for Inactive)
REMARK    1  A    between atoms: C_4  and  O_25
REMARK    2  A    between atoms: C_6  and  C_7
REMARK    3  A    between atoms: C_8  and  O_20
REMARK    4  A    between atoms: C_12  and  O_19
REMARK    5  A    between atoms: C_14  and  O_18
REMARK    6  A    between atoms: O_20  and  S_21
REMARK    7  A    between atoms: O_25  and  S_26
REMARK                            x       y       z     vdW  Elec       q    Type
REMARK                         _______ _______ _______ _____ _____    ______ ____
ROOT
ATOM      1  C   UNL     1       7.779   0.025  24.253  0.00  0.00    +0.184 A 
ATOM      2  O   UNL     1       9.056   0.539  24.032  0.00  0.00    -0.451 OA
ATOM      3  C   UNL     1       9.239   1.890  23.973  0.00  0.00    +0.147 A 
ATOM      4  C   UNL     1       8.200   2.786  24.144  0.00  0.00    +0.109 A 
ATOM      5  C   UNL     1       8.451   4.166  24.056  0.00  0.00    +0.135 A 
ATOM      6  C   UNL     1       9.731   4.642  23.788  0.00  0.00    +0.091 A 
ATOM      7  C   UNL     1      10.766   3.728  23.618  0.00  0.00    +0.124 A 
ATOM      8  C   UNL     1       6.849   2.263  24.378  0.00  0.00    +0.241 A 
ATOM      9  O   UNL     1       5.968   3.113  24.446  0.00  0.00    -0.283 OA
ATOM     10  C   UNL     1      10.532   2.358  23.715  0.00  0.00    +0.092 A 
ATOM     11  C   UNL     1       6.671   0.778  24.458  0.00  0.00    +0.244 A 
ENDROOT
BRANCH   1  13
ATOM     12  C   UNL     1       8.538  -2.078  25.327  0.00  0.00    +0.011 A 
ATOM     13  C   UNL     1       7.843  -1.457  24.291  0.00  0.00    +0.025 A 
ATOM     14  C   UNL     1       7.431  -2.248  23.206  0.00  0.00    +0.059 A 
ATOM     15  C   UNL     1       7.773  -3.621  23.128  0.00  0.00    +0.148 A 
ATOM     16  C   UNL     1       8.529  -4.272  24.162  0.00  0.00    -0.062 A 
ATOM     17  O   UNL     1       8.910  -5.498  24.152  0.00  0.00    -0.871 OA
ATOM     18  C   UNL     1       8.864  -3.440  25.251  0.00  0.00    -0.004 A 
BRANCH  15  19
ATOM     19  O   UNL     1       7.404  -4.430  22.058  0.00  0.00    -0.361 OA
BRANCH  19  20
ATOM     20  S   UNL     1       5.957  -5.163  21.862  0.00  0.00    +0.042 S 
ATOM     21  O   UNL     1       5.961  -6.306  22.782  0.00  0.00    -0.259 OA
ATOM     22  O   UNL     1       5.936  -5.577  20.453  0.00  0.00    -0.336 OA
ATOM     23  O   UNL     1       4.925  -4.170  22.172  0.00  0.00    -0.336 OA
ENDBRANCH  19  20
ENDBRANCH  15  19
ENDBRANCH   1  13
BRANCH   5  24
ATOM     24  O   UNL     1       7.473   5.118  24.217  0.00  0.00    -0.506 OA
ATOM     25  H   UNL     1       7.941   5.990  24.267  0.00  0.00    +0.292 HD
ENDBRANCH   5  24
BRANCH   7  26
ATOM     26  O   UNL     1      12.034   4.155  23.348  0.00  0.00    -0.507 OA
ATOM     27  H   UNL     1      12.084   5.101  23.565  0.00  0.00    +0.292 HD
ENDBRANCH   7  26
BRANCH  11  28
ATOM     28  O   UNL     1       5.428   0.203  24.700  0.00  0.00    -0.353 OA
BRANCH  28  29
ATOM     29  S   UNL     1       4.807  -0.081  26.194  0.00  0.00    +0.043 S 
ATOM     30  O   UNL     1       4.300  -1.452  26.113  0.00  0.00    -0.259 OA
ATOM     31  O   UNL     1       3.741   0.904  26.374  0.00  0.00    -0.336 OA
ATOM     32  O   UNL     1       5.944   0.044  27.110  0.00  0.00    -0.336 OA
ENDBRANCH  28  29
ENDBRANCH  11  28
TORSDOF 7
ENDMDL
MODEL 3
REMARK VINA RESULT:      -7.1      1.494      2.354
REMARK  Name = 
REMARK  7 active torsions:
REMARK  status: ('A' for Active; 'I' for Inactive)
REMARK    1  A    between atoms: C_4  and  O_25
REMARK    2  A    between atoms: C_6  and  C_7
REMARK    3  A    between atoms: C_8  and  O_20
REMARK    4  A    between atoms: C_12  and  O_19
REMARK    5  A    between atoms: C_14  and  O_18
REMARK    6  A    between atoms: O_20  and  S_21
REMARK    7  A    between atoms: O_25  and  S_26
REMARK                            x       y       z     vdW  Elec       q    Type
REMARK                         _______ _______ _______ _____ _____    ______ ____
ROOT
ATOM      1  C   UNL     1       8.872   1.387  23.462  0.00  0.00    +0.184 A 
ATOM      2  O   UNL     1      10.163   1.915  23.480  0.00  0.00    -0.451 OA
ATOM      3  C   UNL     1      10.339   3.265  23.560  0.00  0.00    +0.147 A 
ATOM      4  C   UNL     1       9.277   4.147  23.645  0.00  0.00    +0.109 A 
ATOM      5  C   UNL     1       9.525   5.529  23.708  0.00  0.00    +0.135 A 
ATOM      6  C   UNL     1      10.826   6.022  23.677  0.00  0.00    +0.091 A 
ATOM      7  C   UNL     1      11.883   5.123  23.593  0.00  0.00    +0.124 A 
ATOM      8  C   UNL     1       7.912   3.610  23.627  0.00  0.00    +0.241 A 
ATOM      9  O   UNL     1       7.022   4.453  23.629  0.00  0.00    -0.283 OA
ATOM     10  C   UNL     1      11.651   3.750  23.541  0.00  0.00    +0.092 A 
ATOM     11  C   UNL     1       7.739   2.123  23.558  0.00  0.00    +0.244 A 
ENDROOT
BRANCH   1  13
ATOM     12  C   UNL     1       8.873  -0.712  22.140  0.00  0.00    +0.011 A 
ATOM     13  C   UNL     1       8.944  -0.092  23.388  0.00  0.00    +0.025 A 
ATOM     14  C   UNL     1       8.849  -0.901  24.531  0.00  0.00    +0.059 A 
ATOM     15  C   UNL     1       8.615  -2.296  24.427  0.00  0.00    +0.148 A 
ATOM     16  C   UNL     1       8.491  -2.948  23.153  0.00  0.00    -0.062 A 
ATOM     17  O   UNL     1       8.244  -4.194  22.972  0.00  0.00    -0.871 OA
ATOM     18  C   UNL     1       8.653  -2.094  22.042  0.00  0.00    -0.004 A 
BRANCH  15  19
ATOM     19  O   UNL     1       8.490  -3.124  25.538  0.00  0.00    -0.361 OA
BRANCH  19  20
ATOM     20  S   UNL     1       7.123  -3.386  26.393  0.00  0.00    +0.042 S 
ATOM     21  O   UNL     1       6.831  -2.120  27.075  0.00  0.00    -0.259 OA
ATOM     22  O   UNL     1       7.469  -4.462  27.329  0.00  0.00    -0.336 OA
ATOM     23  O   UNL     1       6.087  -3.784  25.435  0.00  0.00    -0.336 OA
ENDBRANCH  19  20
ENDBRANCH  15  19
ENDBRANCH   1  13
BRANCH   5  24
ATOM     24  O   UNL     1       8.524   6.466  23.796  0.00  0.00    -0.506 OA
ATOM     25  H   UNL     1       7.895   6.136  24.487  0.00  0.00    +0.292 HD
ENDBRANCH   5  24
BRANCH   7  26
ATOM     26  O   UNL     1      13.174   5.567  23.554  0.00  0.00    -0.507 OA
ATOM     27  H   UNL     1      13.257   6.299  24.188  0.00  0.00    +0.292 HD
ENDBRANCH   7  26
BRANCH  11  28
ATOM     28  O   UNL     1       6.479   1.534  23.560  0.00  0.00    -0.353 OA
BRANCH  28  29
ATOM     29  S   UNL     1       5.620   1.177  24.914  0.00  0.00    +0.043 S 
ATOM     30  O   UNL     1       5.381  -0.264  24.813  0.00  0.00    -0.259 OA
ATOM     31  O   UNL     1       4.388   1.960  24.819  0.00  0.00    -0.336 OA
ATOM     32  O   UNL     1       6.504   1.523  26.030  0.00  0.00    -0.336 OA
ENDBRANCH  28  29
ENDBRANCH  11  28
TORSDOF 7
ENDMDL
MODEL 4
REMARK VINA RESULT:      -7.0      3.580      6.080
REMARK  Name = 
REMARK  7 active torsions:
REMARK  status: ('A' for Active; 'I' for Inactive)
REMARK    1  A    between atoms: C_4  and  O_25
REMARK    2  A    between atoms: C_6  and  C_7
REMARK    3  A    between atoms: C_8  and  O_20
REMARK    4  A    between atoms: C_12  and  O_19
REMARK    5  A    between atoms: C_14  and  O_18
REMARK    6  A    between atoms: O_20  and  S_21
REMARK    7  A    between atoms: O_25  and  S_26
REMARK                            x       y       z     vdW  Elec       q    Type
REMARK                         _______ _______ _______ _____ _____    ______ ____
ROOT
ATOM      1  C   UNL     1       6.478  -2.436  24.341  0.00  0.00    +0.184 A 
ATOM      2  O   UNL     1       6.153  -1.135  23.958  0.00  0.00    -0.451 OA
ATOM      3  C   UNL     1       7.020  -0.424  23.181  0.00  0.00    +0.147 A 
ATOM      4  C   UNL     1       8.218  -0.951  22.733  0.00  0.00    +0.109 A 
ATOM      5  C   UNL     1       9.075  -0.160  21.948  0.00  0.00    +0.135 A 
ATOM      6  C   UNL     1       8.738   1.150  21.624  0.00  0.00    +0.091 A 
ATOM      7  C   UNL     1       7.531   1.667  22.081  0.00  0.00    +0.124 A 
ATOM      8  C   UNL     1       8.576  -2.318  23.126  0.00  0.00    +0.241 A 
ATOM      9  O   UNL     1       9.683  -2.692  22.755  0.00  0.00    -0.283 OA
ATOM     10  C   UNL     1       6.667   0.890  22.850  0.00  0.00    +0.092 A 
ATOM     11  C   UNL     1       7.603  -3.090  23.964  0.00  0.00    +0.244 A 
ENDROOT
BRANCH   1  13
ATOM     12  C   UNL     1       5.445  -2.888  26.549  0.00  0.00    +0.011 A 
ATOM     13  C   UNL     1       5.378  -2.998  25.161  0.00  0.00    +0.025 A 
ATOM     14  C   UNL     1       4.393  -3.835  24.613  0.00  0.00    +0.059 A 
ATOM     15  C   UNL     1       3.538  -4.603  25.442  0.00  0.00    +0.148 A 
ATOM     16  C   UNL     1       3.620  -4.543  26.875  0.00  0.00    -0.062 A 
ATOM     17  O   UNL     1       2.910  -5.229  27.696  0.00  0.00    -0.871 OA
ATOM     18  C   UNL     1       4.588  -3.641  27.366  0.00  0.00    -0.004 A 
BRANCH  15  19
ATOM     19  O   UNL     1       2.567  -5.462  24.935  0.00  0.00    -0.361 OA
BRANCH  19  20
ATOM     20  S   UNL     1       2.837  -6.757  23.976  0.00  0.00    +0.042 S 
ATOM     21  O   UNL     1       2.915  -6.231  22.609  0.00  0.00    -0.259 OA
ATOM     22  O   UNL     1       1.668  -7.621  24.180  0.00  0.00    -0.336 OA
ATOM     23  O   UNL     1       4.083  -7.379  24.433  0.00  0.00    -0.336 OA
ENDBRANCH  19  20
ENDBRANCH  15  19
ENDBRANCH   1  13
BRANCH   5  24
ATOM     24  O   UNL     1      10.278  -0.614  21.464  0.00  0.00    -0.506 OA
ATOM     25  H   UNL     1      10.899   0.158  21.498  0.00  0.00    +0.292 HD
ENDBRANCH   5  24
BRANCH   7  26
ATOM     26  O   UNL     1       7.167   2.950  21.789  0.00  0.00    -0.507 OA
ATOM     27  H   UNL     1       6.358   3.153  22.288  0.00  0.00    +0.292 HD
ENDBRANCH   7  26
BRANCH  11  28
ATOM     28  O   UNL     1       7.857  -4.399  24.358  0.00  0.00    -0.353 OA
BRANCH  28  29
ATOM     29  S   UNL     1       8.748  -4.821  25.671  0.00  0.00    +0.043 S 
ATOM     30  O   UNL     1       8.870  -3.577  26.433  0.00  0.00    -0.259 OA
ATOM     31  O   UNL     1      10.032  -5.287  25.146  0.00  0.00    -0.336 OA
ATOM     32  O   UNL     1       7.947  -5.830  26.369  0.00  0.00    -0.336 OA
ENDBRANCH  28  29
ENDBRANCH  11  28
TORSDOF 7
ENDMDL
MODEL 5
REMARK VINA RESULT:      -7.0      4.007      6.636
REMARK  Name = 
REMARK  7 active torsions:
REMARK  status: ('A' for Active; 'I' for Inactive)
REMARK    1  A    between atoms: C_4  and  O_25
REMARK    2  A    between atoms: C_6  and  C_7
REMARK    3  A    between atoms: C_8  and  O_20
REMARK    4  A    between atoms: C_12  and  O_19
REMARK    5  A    between atoms: C_14  and  O_18
REMARK    6  A    between atoms: O_20  and  S_21
REMARK    7  A    between atoms: O_25  and  S_26
REMARK                            x       y       z     vdW  Elec       q    Type
REMARK                         _______ _______ _______ _____ _____    ______ ____
ROOT
ATOM      1  C   UNL     1       6.548  -3.092  24.421  0.00  0.00    +0.184 A 
ATOM      2  O   UNL     1       6.596  -1.867  25.086  0.00  0.00    -0.451 OA
ATOM      3  C   UNL     1       7.447  -0.895  24.648  0.00  0.00    +0.147 A 
ATOM      4  C   UNL     1       8.263  -1.065  23.544  0.00  0.00    +0.109 A 
ATOM      5  C   UNL     1       9.129  -0.030  23.154  0.00  0.00    +0.135 A 
ATOM      6  C   UNL     1       9.183   1.162  23.869  0.00  0.00    +0.091 A 
ATOM      7  C   UNL     1       8.356   1.319  24.976  0.00  0.00    +0.124 A 
ATOM      8  C   UNL     1       8.225  -2.348  22.833  0.00  0.00    +0.241 A 
ATOM      9  O   UNL     1       9.028  -2.455  21.912  0.00  0.00    -0.283 OA
ATOM     10  C   UNL     1       7.485   0.305  25.367  0.00  0.00    +0.092 A 
ATOM     11  C   UNL     1       7.271  -3.397  23.317  0.00  0.00    +0.244 A 
ENDROOT
BRANCH   1  13
ATOM     12  C   UNL     1       4.208  -3.568  25.092  0.00  0.00    +0.011 A 
ATOM     13  C   UNL     1       5.544  -3.968  25.072  0.00  0.00    +0.025 A 
ATOM     14  C   UNL     1       5.915  -5.064  25.867  0.00  0.00    +0.059 A 
ATOM     15  C   UNL     1       4.980  -5.703  26.720  0.00  0.00    +0.148 A 
ATOM     16  C   UNL     1       3.610  -5.278  26.793  0.00  0.00    -0.062 A 
ATOM     17  O   UNL     1       2.711  -5.776  27.562  0.00  0.00    -0.871 OA
ATOM     18  C   UNL     1       3.284  -4.210  25.929  0.00  0.00    -0.004 A 
BRANCH  15  19
ATOM     19  O   UNL     1       5.318  -6.776  27.540  0.00  0.00    -0.361 OA
BRANCH  19  20
ATOM     20  S   UNL     1       5.728  -6.686  29.119  0.00  0.00    +0.042 S 
ATOM     21  O   UNL     1       6.106  -5.288  29.354  0.00  0.00    -0.259 OA
ATOM     22  O   UNL     1       6.862  -7.606  29.262  0.00  0.00    -0.336 OA
ATOM     23  O   UNL     1       4.557  -7.110  29.892  0.00  0.00    -0.336 OA
ENDBRANCH  19  20
ENDBRANCH  15  19
ENDBRANCH   1  13
BRANCH   5  24
ATOM     24  O   UNL     1       9.966  -0.124  22.069  0.00  0.00    -0.506 OA
ATOM     25  H   UNL     1       9.851  -1.039  21.706  0.00  0.00    +0.292 HD
ENDBRANCH   5  24
BRANCH   7  26
ATOM     26  O   UNL     1       8.384   2.472  25.708  0.00  0.00    -0.507 OA
ATOM     27  H   UNL     1       8.784   3.166  25.157  0.00  0.00    +0.292 HD
ENDBRANCH   7  26
BRANCH  11  28
ATOM     28  O   UNL     1       7.159  -4.630  22.683  0.00  0.00    -0.353 OA
BRANCH  28  29
ATOM     29  S   UNL     1       6.031  -4.994  21.546  0.00  0.00    +0.043 S 
ATOM     30  O   UNL     1       6.713  -5.936  20.657  0.00  0.00    -0.259 OA
ATOM     31  O   UNL     1       5.712  -3.728  20.885  0.00  0.00    -0.336 OA
ATOM     32  O   UNL     1       4.930  -5.616  22.285  0.00  0.00    -0.336 OA
ENDBRANCH  28  29
ENDBRANCH  11  28
TORSDOF 7
ENDMDL
MODEL 6
REMARK VINA RESULT:      -7.0      3.155      4.776
REMARK  Name = 
REMARK  7 active torsions:
REMARK  status: ('A' for Active; 'I' for Inactive)
REMARK    1  A    between atoms: C_4  and  O_25
REMARK    2  A    between atoms: C_6  and  C_7
REMARK    3  A    between atoms: C_8  and  O_20
REMARK    4  A    between atoms: C_12  and  O_19
REMARK    5  A    between atoms: C_14  and  O_18
REMARK    6  A    between atoms: O_20  and  S_21
REMARK    7  A    between atoms: O_25  and  S_26
REMARK                            x       y       z     vdW  Elec       q    Type
REMARK                         _______ _______ _______ _____ _____    ______ ____
ROOT
ATOM      1  C   UNL     1       6.777  -0.761  24.085  0.00  0.00    +0.184 A 
ATOM      2  O   UNL     1       5.866   0.170  24.582  0.00  0.00    -0.451 OA
ATOM      3  C   UNL     1       5.879   1.448  24.105  0.00  0.00    +0.147 A 
ATOM      4  C   UNL     1       6.757   1.863  23.121  0.00  0.00    +0.109 A 
ATOM      5  C   UNL     1       6.731   3.198  22.684  0.00  0.00    +0.135 A 
ATOM      6  C   UNL     1       5.838   4.111  23.236  0.00  0.00    +0.091 A 
ATOM      7  C   UNL     1       4.961   3.680  24.225  0.00  0.00    +0.124 A 
ATOM      8  C   UNL     1       7.722   0.896  22.585  0.00  0.00    +0.241 A 
ATOM      9  O   UNL     1       8.517   1.353  21.771  0.00  0.00    -0.283 OA
ATOM     10  C   UNL     1       4.969   2.356  24.659  0.00  0.00    +0.092 A 
ATOM     11  C   UNL     1       7.680  -0.507  23.108  0.00  0.00    +0.244 A 
ENDROOT
BRANCH   1  13
ATOM     12  C   UNL     1       7.104  -2.297  26.005  0.00  0.00    +0.011 A 
ATOM     13  C   UNL     1       6.553  -2.071  24.744  0.00  0.00    +0.025 A 
ATOM     14  C   UNL     1       6.010  -3.167  24.056  0.00  0.00    +0.059 A 
ATOM     15  C   UNL     1       6.081  -4.478  24.592  0.00  0.00    +0.148 A 
ATOM     16  C   UNL     1       6.686  -4.742  25.867  0.00  0.00    -0.062 A 
ATOM     17  O   UNL     1       6.823  -5.899  26.406  0.00  0.00    -0.871 OA
ATOM     18  C   UNL     1       7.162  -3.594  26.535  0.00  0.00    -0.004 A 
BRANCH  15  19
ATOM     19  O   UNL     1       5.575  -5.592  23.928  0.00  0.00    -0.361 OA
BRANCH  19  20
ATOM     20  S   UNL     1       4.034  -6.129  23.989  0.00  0.00    +0.042 S 
ATOM     21  O   UNL     1       4.115  -7.522  24.444  0.00  0.00    -0.259 OA
ATOM     22  O   UNL     1       3.545  -6.017  22.610  0.00  0.00    -0.336 OA
ATOM     23  O   UNL     1       3.310  -5.255  24.917  0.00  0.00    -0.336 OA
ENDBRANCH  19  20
ENDBRANCH  15  19
ENDBRANCH   1  13
BRANCH   5  24
ATOM     24  O   UNL     1       7.568   3.684  21.709  0.00  0.00    -0.506 OA
ATOM     25  H   UNL     1       6.992   3.903  20.932  0.00  0.00    +0.292 HD
ENDBRANCH   5  24
BRANCH   7  26
ATOM     26  O   UNL     1       4.074   4.547  24.796  0.00  0.00    -0.507 OA
ATOM     27  H   UNL     1       3.250   4.514  24.283  0.00  0.00    +0.292 HD
ENDBRANCH   7  26
BRANCH  11  28
ATOM     28  O   UNL     1       8.546  -1.488  22.635  0.00  0.00    -0.353 OA
BRANCH  28  29
ATOM     29  S   UNL     1       9.972  -1.892  23.341  0.00  0.00    +0.043 S 
ATOM     30  O   UNL     1      10.932  -1.878  22.237  0.00  0.00    -0.259 OA
ATOM     31  O   UNL     1       9.774  -3.230  23.898  0.00  0.00    -0.336 OA
ATOM     32  O   UNL     1      10.228  -0.832  24.320  0.00  0.00    -0.336 OA
ENDBRANCH  28  29
ENDBRANCH  11  28
TORSDOF 7
ENDMDL
MODEL 7
REMARK VINA RESULT:      -6.9      2.076      2.942
REMARK  Name = 
REMARK  7 active torsions:
REMARK  status: ('A' for Active; 'I' for Inactive)
REMARK    1  A    between atoms: C_4  and  O_25
REMARK    2  A    between atoms: C_6  and  C_7
REMARK    3  A    between atoms: C_8  and  O_20
REMARK    4  A    between atoms: C_12  and  O_19
REMARK    5  A    between atoms: C_14  and  O_18
REMARK    6  A    between atoms: O_20  and  S_21
REMARK    7  A    between atoms: O_25  and  S_26
REMARK                            x       y       z     vdW  Elec       q    Type
REMARK                         _______ _______ _______ _____ _____    ______ ____
ROOT
ATOM      1  C   UNL     1       7.965  -0.113  23.863  0.00  0.00    +0.184 A 
ATOM      2  O   UNL     1       9.217   0.459  23.637  0.00  0.00    -0.451 OA
ATOM      3  C   UNL     1       9.375   1.808  23.765  0.00  0.00    +0.147 A 
ATOM      4  C   UNL     1       8.337   2.645  24.133  0.00  0.00    +0.109 A 
ATOM      5  C   UNL     1       8.561   4.028  24.232  0.00  0.00    +0.135 A 
ATOM      6  C   UNL     1       9.813   4.569  23.954  0.00  0.00    +0.091 A 
ATOM      7  C   UNL     1      10.847   3.716  23.586  0.00  0.00    +0.124 A 
ATOM      8  C   UNL     1       7.013   2.060  24.375  0.00  0.00    +0.241 A 
ATOM      9  O   UNL     1       6.126   2.869  24.623  0.00  0.00    -0.283 OA
ATOM     10  C   UNL     1      10.641   2.341  23.496  0.00  0.00    +0.092 A 
ATOM     11  C   UNL     1       6.864   0.575  24.247  0.00  0.00    +0.244 A 
ENDROOT
BRANCH   1  13
ATOM     12  C   UNL     1       7.770  -2.125  22.426  0.00  0.00    +0.011 A 
ATOM     13  C   UNL     1       8.054  -1.582  23.678  0.00  0.00    +0.025 A 
ATOM     14  C   UNL     1       8.185  -2.462  24.764  0.00  0.00    +0.059 A 
ATOM     15  C   UNL     1       7.964  -3.854  24.611  0.00  0.00    +0.148 A 
ATOM     16  C   UNL     1       7.624  -4.431  23.340  0.00  0.00    -0.062 A 
ATOM     17  O   UNL     1       7.374  -5.671  23.124  0.00  0.00    -0.871 OA
ATOM     18  C   UNL     1       7.564  -3.505  22.277  0.00  0.00    -0.004 A 
BRANCH  15  19
ATOM     19  O   UNL     1       8.061  -4.754  25.669  0.00  0.00    -0.361 OA
BRANCH  19  20
ATOM     20  S   UNL     1       6.894  -5.075  26.766  0.00  0.00    +0.042 S 
ATOM     21  O   UNL     1       7.536  -5.888  27.805  0.00  0.00    -0.259 OA
ATOM     22  O   UNL     1       5.875  -5.822  26.018  0.00  0.00    -0.336 OA
ATOM     23  O   UNL     1       6.399  -3.786  27.259  0.00  0.00    -0.336 OA
ENDBRANCH  19  20
ENDBRANCH  15  19
ENDBRANCH   1  13
BRANCH   5  24
ATOM     24  O   UNL     1       7.583   4.922  24.594  0.00  0.00    -0.506 OA
ATOM     25  H   UNL     1       7.958   5.825  24.433  0.00  0.00    +0.292 HD
ENDBRANCH   5  24
BRANCH   7  26
ATOM     26  O   UNL     1      12.088   4.208  23.300  0.00  0.00    -0.507 OA
ATOM     27  H   UNL     1      12.696   3.455  23.212  0.00  0.00    +0.292 HD
ENDBRANCH   7  26
BRANCH  11  28
ATOM     28  O   UNL     1       5.648  -0.059  24.483  0.00  0.00    -0.353 OA
BRANCH  28  29
ATOM     29  S   UNL     1       5.018  -0.345  25.972  0.00  0.00    +0.043 S 
ATOM     30  O   UNL     1       4.332  -1.630  25.828  0.00  0.00    -0.259 OA
ATOM     31  O   UNL     1       4.095   0.760  26.231  0.00  0.00    -0.336 OA
ATOM     32  O   UNL     1       6.176  -0.425  26.867  0.00  0.00    -0.336 OA
ENDBRANCH  28  29
ENDBRANCH  11  28
TORSDOF 7
ENDMDL
MODEL 8
REMARK VINA RESULT:      -6.9      2.259      3.983
REMARK  Name = 
REMARK  7 active torsions:
REMARK  status: ('A' for Active; 'I' for Inactive)
REMARK    1  A    between atoms: C_4  and  O_25
REMARK    2  A    between atoms: C_6  and  C_7
REMARK    3  A    between atoms: C_8  and  O_20
REMARK    4  A    between atoms: C_12  and  O_19
REMARK    5  A    between atoms: C_14  and  O_18
REMARK    6  A    between atoms: O_20  and  S_21
REMARK    7  A    between atoms: O_25  and  S_26
REMARK                            x       y       z     vdW  Elec       q    Type
REMARK                         _______ _______ _______ _____ _____    ______ ____
ROOT
ATOM      1  C   UNL     1       7.729   0.384  24.935  0.00  0.00    +0.184 A 
ATOM      2  O   UNL     1       7.103   1.630  24.944  0.00  0.00    -0.451 OA
ATOM      3  C   UNL     1       7.798   2.737  24.553  0.00  0.00    +0.147 A 
ATOM      4  C   UNL     1       9.111   2.674  24.122  0.00  0.00    +0.109 A 
ATOM      5  C   UNL     1       9.777   3.853  23.748  0.00  0.00    +0.135 A 
ATOM      6  C   UNL     1       9.135   5.086  23.814  0.00  0.00    +0.091 A 
ATOM      7  C   UNL     1       7.815   5.134  24.249  0.00  0.00    +0.124 A 
ATOM      8  C   UNL     1       9.785   1.371  24.105  0.00  0.00    +0.241 A 
ATOM      9  O   UNL     1      10.968   1.402  23.784  0.00  0.00    -0.283 OA
ATOM     10  C   UNL     1       7.140   3.970  24.612  0.00  0.00    +0.092 A 
ATOM     11  C   UNL     1       9.000   0.164  24.520  0.00  0.00    +0.244 A 
ENDROOT
BRANCH   1  13
ATOM     12  C   UNL     1       6.810  -1.086  26.708  0.00  0.00    +0.011 A 
ATOM     13  C   UNL     1       6.769  -0.654  25.383  0.00  0.00    +0.025 A 
ATOM     14  C   UNL     1       5.981  -1.381  24.476  0.00  0.00    +0.059 A 
ATOM     15  C   UNL     1       5.303  -2.561  24.875  0.00  0.00    +0.148 A 
ATOM     16  C   UNL     1       5.368  -3.051  26.224  0.00  0.00    -0.062 A 
ATOM     17  O   UNL     1       4.816  -4.126  26.657  0.00  0.00    -0.871 OA
ATOM     18  C   UNL     1       6.128  -2.247  27.100  0.00  0.00    -0.004 A 
BRANCH  15  19
ATOM     19  O   UNL     1       4.533  -3.320  23.999  0.00  0.00    -0.361 OA
BRANCH  19  20
ATOM     20  S   UNL     1       5.102  -4.332  22.850  0.00  0.00    +0.042 S 
ATOM     21  O   UNL     1       6.349  -4.886  23.390  0.00  0.00    -0.259 OA
ATOM     22  O   UNL     1       5.329  -3.476  21.679  0.00  0.00    -0.336 OA
ATOM     23  O   UNL     1       4.068  -5.344  22.617  0.00  0.00    -0.336 OA
ENDBRANCH  19  20
ENDBRANCH  15  19
ENDBRANCH   1  13
BRANCH   5  24
ATOM     24  O   UNL     1      11.078   3.872  23.307  0.00  0.00    -0.506 OA
ATOM     25  H   UNL     1      11.341   4.826  23.257  0.00  0.00    +0.292 HD
ENDBRANCH   5  24
BRANCH   7  26
ATOM     26  O   UNL     1       7.152   6.324  24.334  0.00  0.00    -0.507 OA
ATOM     27  H   UNL     1       6.411   6.211  24.953  0.00  0.00    +0.292 HD
ENDBRANCH   7  26
BRANCH  11  28
ATOM     28  O   UNL     1       9.559  -1.109  24.510  0.00  0.00    -0.353 OA
BRANCH  28  29
ATOM     29  S   UNL     1       9.561  -2.116  23.212  0.00  0.00    +0.043 S 
ATOM     30  O   UNL     1      10.890  -1.938  22.626  0.00  0.00    -0.259 OA
ATOM     31  O   UNL     1       8.491  -1.636  22.337  0.00  0.00    -0.336 OA
ATOM     32  O   UNL     1       9.368  -3.458  23.769  0.00  0.00    -0.336 OA
ENDBRANCH  28  29
ENDBRANCH  11  28
TORSDOF 7
ENDMDL
MODEL 9
REMARK VINA RESULT:      -6.9      3.372      5.986
REMARK  Name = 
REMARK  7 active torsions:
REMARK  status: ('A' for Active; 'I' for Inactive)
REMARK    1  A    between atoms: C_4  and  O_25
REMARK    2  A    between atoms: C_6  and  C_7
REMARK    3  A    between atoms: C_8  and  O_20
REMARK    4  A    between atoms: C_12  and  O_19
REMARK    5  A    between atoms: C_14  and  O_18
REMARK    6  A    between atoms: O_20  and  S_21
REMARK    7  A    between atoms: O_25  and  S_26
REMARK                            x       y       z     vdW  Elec       q    Type
REMARK                         _______ _______ _______ _____ _____    ______ ____
ROOT
ATOM      1  C   UNL     1       7.304  -2.999  24.866  0.00  0.00    +0.184 A 
ATOM      2  O   UNL     1       7.416  -1.729  25.432  0.00  0.00    -0.451 OA
ATOM      3  C   UNL     1       7.935  -0.706  24.694  0.00  0.00    +0.147 A 
ATOM      4  C   UNL     1       8.344  -0.870  23.383  0.00  0.00    +0.109 A 
ATOM      5  C   UNL     1       8.886   0.221  22.683  0.00  0.00    +0.135 A 
ATOM      6  C   UNL     1       9.025   1.463  23.295  0.00  0.00    +0.091 A 
ATOM      7  C   UNL     1       8.609   1.613  24.613  0.00  0.00    +0.124 A 
ATOM      8  C   UNL     1       8.234  -2.199  22.772  0.00  0.00    +0.241 A 
ATOM      9  O   UNL     1       8.685  -2.288  21.636  0.00  0.00    -0.283 OA
ATOM     10  C   UNL     1       8.059   0.542  25.315  0.00  0.00    +0.092 A 
ATOM     11  C   UNL     1       7.644  -3.306  23.592  0.00  0.00    +0.244 A 
ENDROOT
BRANCH   1  13
ATOM     12  C   UNL     1       7.539  -4.651  26.702  0.00  0.00    +0.011 A 
ATOM     13  C   UNL     1       6.701  -3.928  25.854  0.00  0.00    +0.025 A 
ATOM     14  C   UNL     1       5.342  -4.279  25.812  0.00  0.00    +0.059 A 
ATOM     15  C   UNL     1       4.846  -5.381  26.554  0.00  0.00    +0.148 A 
ATOM     16  C   UNL     1       5.699  -6.171  27.397  0.00  0.00    -0.062 A 
ATOM     17  O   UNL     1       5.340  -7.202  28.071  0.00  0.00    -0.871 OA
ATOM     18  C   UNL     1       7.041  -5.734  27.442  0.00  0.00    -0.004 A 
BRANCH  15  19
ATOM     19  O   UNL     1       3.511  -5.774  26.518  0.00  0.00    -0.361 OA
BRANCH  19  20
ATOM     20  S   UNL     1       2.809  -6.686  25.360  0.00  0.00    +0.042 S 
ATOM     21  O   UNL     1       2.601  -5.789  24.217  0.00  0.00    -0.259 OA
ATOM     22  O   UNL     1       1.546  -7.139  25.956  0.00  0.00    -0.336 OA
ATOM     23  O   UNL     1       3.724  -7.794  25.070  0.00  0.00    -0.336 OA
ENDBRANCH  19  20
ENDBRANCH  15  19
ENDBRANCH   1  13
BRANCH   5  24
ATOM     24  O   UNL     1       9.312   0.137  21.379  0.00  0.00    -0.506 OA
ATOM     25  H   UNL     1      10.291  -0.009  21.415  0.00  0.00    +0.292 HD
ENDBRANCH   5  24
BRANCH   7  26
ATOM     26  O   UNL     1       8.734   2.814  25.250  0.00  0.00    -0.507 OA
ATOM     27  H   UNL     1       8.689   2.651  26.207  0.00  0.00    +0.292 HD
ENDBRANCH   7  26
BRANCH  11  28
ATOM     28  O   UNL     1       7.483  -4.589  23.078  0.00  0.00    -0.353 OA
BRANCH  28  29
ATOM     29  S   UNL     1       6.185  -5.088  22.205  0.00  0.00    +0.043 S 
ATOM     30  O   UNL     1       5.634  -6.195  22.989  0.00  0.00    -0.259 OA
ATOM     31  O   UNL     1       6.718  -5.522  20.914  0.00  0.00    -0.336 OA
ATOM     32  O   UNL     1       5.287  -3.930  22.161  0.00  0.00    -0.336 OA
ENDBRANCH  28  29
ENDBRANCH  11  28
TORSDOF 7
ENDMDL
