MODEL 1
REMARK VINA RESULT:      -7.6      0.000      0.000
REMARK  Name = 
REMARK  17 active torsions:
REMARK  status: ('A' for Active; 'I' for Inactive)
REMARK    1  A    between atoms: C_3  and  O_47
REMARK    2  A    between atoms: C_4  and  O_46
REMARK    3  A    between atoms: C_6  and  C_7
REMARK    4  A    between atoms: C_8  and  O_20
REMARK    5  A    between atoms: C_12  and  O_19
REMARK    6  A    between atoms: C_14  and  O_18
REMARK    7  A    between atoms: O_20  and  C_21
REMARK    8  A    between atoms: C_23  and  O_34
REMARK    9  A    between atoms: C_25  and  O_33
REMARK   10  A    between atoms: C_26  and  O_32
REMARK   11  A    between atoms: C_28  and  C_30
REMARK   12  A    between atoms: C_30  and  O_31
REMARK   13  A    between atoms: O_34  and  C_35
REMARK   14  A    between atoms: C_35  and  C_37
REMARK   15  A    between atoms: C_39  and  O_45
REMARK   16  A    between atoms: C_40  and  O_44
REMARK   17  A    between atoms: C_41  and  O_43
REMARK                            x       y       z     vdW  Elec       q    Type
REMARK                         _______ _______ _______ _____ _____    ______ ____
ROOT
ATOM      1  C   UNL     1       5.754   0.539  25.497  0.00  0.00    +0.352 C 
ATOM      2  O   UNL     1       4.986   1.581  24.837  0.00  0.00    -0.330 OA
ATOM      3  C   UNL     1       4.074   2.403  25.577  0.00  0.00    +0.179 C 
ATOM      4  C   UNL     1       3.364   1.677  26.734  0.00  0.00    +0.178 C 
ATOM      5  C   UNL     1       4.187   0.556  27.361  0.00  0.00    +0.192 C 
ATOM      6  C   UNL     1       4.907  -0.412  26.386  0.00  0.00    +0.276 C 
ENDROOT
BRANCH   5   7
ATOM      7  O   UNL     1       3.410  -0.139  28.336  0.00  0.00    -0.385 OA
ATOM      8  H   UNL     1       2.622   0.414  28.497  0.00  0.00    +0.210 HD
ENDBRANCH   5   7
BRANCH   4   9
ATOM      9  O   UNL     1       2.100   1.128  26.360  0.00  0.00    -0.386 OA
ATOM     10  H   UNL     1       2.088   1.197  25.382  0.00  0.00    +0.210 HD
ENDBRANCH   4   9
BRANCH   6  11
ATOM     11  O   UNL     1       4.194  -1.529  25.684  0.00  0.00    -0.449 OA
BRANCH  11  12
ATOM     12  C   UNL     1       4.805  -2.794  25.755  0.00  0.00    +0.340 C 
ATOM     13  O   UNL     1       5.260  -3.224  26.820  0.00  0.00    -0.245 OA
BRANCH  12  14
ATOM     14  C   UNL     1       4.973  -3.705  24.518  0.00  0.00    +0.066 A 
ATOM     15  C   UNL     1       5.312  -3.257  23.239  0.00  0.00    +0.064 A 
ATOM     16  C   UNL     1       5.495  -4.180  22.175  0.00  0.00    +0.163 A 
ATOM     17  C   UNL     1       5.382  -5.550  22.362  0.00  0.00    +0.201 A 
ATOM     18  C   UNL     1       5.034  -6.027  23.630  0.00  0.00    +0.163 A 
ATOM     19  C   UNL     1       4.829  -5.130  24.685  0.00  0.00    +0.064 A 
BRANCH  18  20
ATOM     20  O   UNL     1       4.943  -7.393  23.735  0.00  0.00    -0.503 OA
ATOM     21  H   UNL     1       4.329  -7.622  24.461  0.00  0.00    +0.292 HD
ENDBRANCH  18  20
BRANCH  17  22
ATOM     22  O   UNL     1       5.599  -6.392  21.321  0.00  0.00    -0.501 OA
ATOM     23  H   UNL     1       6.106  -7.160  21.693  0.00  0.00    +0.292 HD
ENDBRANCH  17  22
BRANCH  16  24
ATOM     24  O   UNL     1       5.822  -3.755  20.936  0.00  0.00    -0.503 OA
ATOM     25  H   UNL     1       5.662  -2.785  20.945  0.00  0.00    +0.292 HD
ENDBRANCH  16  24
ENDBRANCH  12  14
ENDBRANCH  11  12
ENDBRANCH   6  11
BRANCH   3  26
ATOM     26  C   UNL     1       3.000   2.983  24.600  0.00  0.00    +0.190 C 
BRANCH  26  27
ATOM     27  O   UNL     1       3.157   2.608  23.231  0.00  0.00    -0.392 OA
ATOM     28  H   UNL     1       3.274   3.412  22.700  0.00  0.00    +0.210 HD
ENDBRANCH  26  27
ENDBRANCH   3  26
BRANCH   1  29
ATOM     29  O   UNL     1       6.855   1.062  26.330  0.00  0.00    -0.452 OA
BRANCH  29  40
ATOM     30  C   UNL     1       8.863   0.883  24.907  0.00  0.00    +0.181 A 
ATOM     31  O   UNL     1       9.918   1.454  24.182  0.00  0.00    -0.451 OA
ATOM     32  C   UNL     1      10.022   2.817  24.075  0.00  0.00    +0.147 A 
ATOM     33  C   UNL     1       9.104   3.676  24.653  0.00  0.00    +0.109 A 
ATOM     34  C   UNL     1       9.196   5.064  24.453  0.00  0.00    +0.135 A 
ATOM     35  C   UNL     1      10.252   5.608  23.735  0.00  0.00    +0.091 A 
ATOM     36  C   UNL     1      11.204   4.745  23.198  0.00  0.00    +0.124 A 
ATOM     37  C   UNL     1       8.062   3.104  25.492  0.00  0.00    +0.238 A 
ATOM     38  O   UNL     1       7.301   3.887  26.054  0.00  0.00    -0.283 OA
ATOM     39  C   UNL     1      11.092   3.358  23.350  0.00  0.00    +0.092 A 
ATOM     40  C   UNL     1       7.943   1.612  25.613  0.00  0.00    +0.214 A 
BRANCH  30  42
ATOM     41  C   UNL     1       9.051  -1.179  23.447  0.00  0.00    +0.015 A 
ATOM     42  C   UNL     1       8.835  -0.609  24.730  0.00  0.00    +0.025 A 
ATOM     43  C   UNL     1       8.632  -1.499  25.794  0.00  0.00    +0.060 A 
ATOM     44  C   UNL     1       8.571  -2.873  25.564  0.00  0.00    +0.159 A 
ATOM     45  C   UNL     1       8.717  -3.412  24.285  0.00  0.00    +0.158 A 
ATOM     46  C   UNL     1       8.981  -2.568  23.221  0.00  0.00    +0.050 A 
BRANCH  45  47
ATOM     47  O   UNL     1       8.591  -4.763  24.139  0.00  0.00    -0.503 OA
ATOM     48  H   UNL     1       8.033  -4.946  23.363  0.00  0.00    +0.292 HD
ENDBRANCH  45  47
BRANCH  44  49
ATOM     49  O   UNL     1       8.362  -3.720  26.620  0.00  0.00    -0.503 OA
ATOM     50  H   UNL     1       9.070  -3.503  27.261  0.00  0.00    +0.292 HD
ENDBRANCH  44  49
ENDBRANCH  30  42
BRANCH  36  51
ATOM     51  O   UNL     1      12.277   5.238  22.507  0.00  0.00    -0.507 OA
ATOM     52  H   UNL     1      12.806   5.789  23.114  0.00  0.00    +0.292 HD
ENDBRANCH  36  51
BRANCH  34  53
ATOM     53  O   UNL     1       8.277   5.958  24.934  0.00  0.00    -0.506 OA
ATOM     54  H   UNL     1       7.521   5.447  25.302  0.00  0.00    +0.292 HD
ENDBRANCH  34  53
ENDBRANCH  29  40
ENDBRANCH   1  29
TORSDOF 17
ENDMDL
MODEL 2
REMARK VINA RESULT:      -7.3      2.545      7.197
REMARK  Name = 
REMARK  17 active torsions:
REMARK  status: ('A' for Active; 'I' for Inactive)
REMARK    1  A    between atoms: C_3  and  O_47
REMARK    2  A    between atoms: C_4  and  O_46
REMARK    3  A    between atoms: C_6  and  C_7
REMARK    4  A    between atoms: C_8  and  O_20
REMARK    5  A    between atoms: C_12  and  O_19
REMARK    6  A    between atoms: C_14  and  O_18
REMARK    7  A    between atoms: O_20  and  C_21
REMARK    8  A    between atoms: C_23  and  O_34
REMARK    9  A    between atoms: C_25  and  O_33
REMARK   10  A    between atoms: C_26  and  O_32
REMARK   11  A    between atoms: C_28  and  C_30
REMARK   12  A    between atoms: C_30  and  O_31
REMARK   13  A    between atoms: O_34  and  C_35
REMARK   14  A    between atoms: C_35  and  C_37
REMARK   15  A    between atoms: C_39  and  O_45
REMARK   16  A    between atoms: C_40  and  O_44
REMARK   17  A    between atoms: C_41  and  O_43
REMARK                            x       y       z     vdW  Elec       q    Type
REMARK                         _______ _______ _______ _____ _____    ______ ____
ROOT
ATOM      1  C   UNL     1       7.581  -2.700  25.092  0.00  0.00    +0.352 C 
ATOM      2  O   UNL     1       6.504  -3.260  24.294  0.00  0.00    -0.330 OA
ATOM      3  C   UNL     1       6.339  -4.679  24.174  0.00  0.00    +0.179 C 
ATOM      4  C   UNL     1       7.659  -5.471  24.169  0.00  0.00    +0.178 C 
ATOM      5  C   UNL     1       8.777  -4.818  24.974  0.00  0.00    +0.192 C 
ATOM      6  C   UNL     1       8.982  -3.294  24.777  0.00  0.00    +0.276 C 
ENDROOT
BRANCH   5   7
ATOM      7  O   UNL     1       9.992  -5.551  24.815  0.00  0.00    -0.385 OA
ATOM      8  H   UNL     1      10.226  -5.483  23.871  0.00  0.00    +0.210 HD
ENDBRANCH   5   7
BRANCH   4   9
ATOM      9  O   UNL     1       8.160  -5.718  22.855  0.00  0.00    -0.386 OA
ATOM     10  H   UNL     1       9.114  -5.897  22.991  0.00  0.00    +0.210 HD
ENDBRANCH   4   9
BRANCH   6  11
ATOM     11  O   UNL     1       9.703  -2.721  23.594  0.00  0.00    -0.449 OA
BRANCH  11  12
ATOM     12  C   UNL     1       8.898  -2.127  22.606  0.00  0.00    +0.340 C 
ATOM     13  O   UNL     1       8.293  -2.814  21.777  0.00  0.00    -0.245 OA
BRANCH  12  14
ATOM     14  C   UNL     1       8.743  -0.595  22.473  0.00  0.00    +0.066 A 
ATOM     15  C   UNL     1       9.779   0.286  22.153  0.00  0.00    +0.064 A 
ATOM     16  C   UNL     1       9.525   1.675  22.002  0.00  0.00    +0.163 A 
ATOM     17  C   UNL     1       8.250   2.209  22.129  0.00  0.00    +0.201 A 
ATOM     18  C   UNL     1       7.195   1.352  22.459  0.00  0.00    +0.163 A 
ATOM     19  C   UNL     1       7.431  -0.017  22.632  0.00  0.00    +0.064 A 
BRANCH  18  20
ATOM     20  O   UNL     1       5.966   1.953  22.564  0.00  0.00    -0.503 OA
ATOM     21  H   UNL     1       5.793   2.482  21.759  0.00  0.00    +0.292 HD
ENDBRANCH  18  20
BRANCH  17  22
ATOM     22  O   UNL     1       8.055   3.538  21.943  0.00  0.00    -0.501 OA
ATOM     23  H   UNL     1       7.085   3.693  22.087  0.00  0.00    +0.292 HD
ENDBRANCH  17  22
BRANCH  16  24
ATOM     24  O   UNL     1      10.521   2.533  21.695  0.00  0.00    -0.503 OA
ATOM     25  H   UNL     1      11.036   2.088  20.985  0.00  0.00    +0.292 HD
ENDBRANCH  16  24
ENDBRANCH  12  14
ENDBRANCH  11  12
ENDBRANCH   6  11
BRANCH   3  26
ATOM     26  C   UNL     1       5.548  -4.993  22.863  0.00  0.00    +0.190 C 
BRANCH  26  27
ATOM     27  O   UNL     1       5.318  -6.380  22.608  0.00  0.00    -0.392 OA
ATOM     28  H   UNL     1       6.139  -6.868  22.778  0.00  0.00    +0.210 HD
ENDBRANCH  26  27
ENDBRANCH   3  26
BRANCH   1  29
ATOM     29  O   UNL     1       7.361  -2.827  26.546  0.00  0.00    -0.452 OA
BRANCH  29  40
ATOM     30  C   UNL     1       5.068  -2.373  27.335  0.00  0.00    +0.181 A 
ATOM     31  O   UNL     1       4.097  -1.527  27.888  0.00  0.00    -0.451 OA
ATOM     32  C   UNL     1       4.435  -0.260  28.289  0.00  0.00    +0.147 A 
ATOM     33  C   UNL     1       5.724   0.230  28.182  0.00  0.00    +0.109 A 
ATOM     34  C   UNL     1       6.052   1.503  28.679  0.00  0.00    +0.135 A 
ATOM     35  C   UNL     1       5.073   2.326  29.219  0.00  0.00    +0.091 A 
ATOM     36  C   UNL     1       3.766   1.851  29.278  0.00  0.00    +0.124 A 
ATOM     37  C   UNL     1       6.721  -0.598  27.519  0.00  0.00    +0.238 A 
ATOM     38  O   UNL     1       7.841  -0.117  27.370  0.00  0.00    -0.283 OA
ATOM     39  C   UNL     1       3.441   0.565  28.831  0.00  0.00    +0.092 A 
ATOM     40  C   UNL     1       6.356  -1.986  27.078  0.00  0.00    +0.214 A 
BRANCH  30  42
ATOM     41  C   UNL     1       3.333  -3.971  26.413  0.00  0.00    +0.015 A 
ATOM     42  C   UNL     1       4.527  -3.763  27.151  0.00  0.00    +0.025 A 
ATOM     43  C   UNL     1       5.170  -4.903  27.654  0.00  0.00    +0.060 A 
ATOM     44  C   UNL     1       4.600  -6.164  27.491  0.00  0.00    +0.159 A 
ATOM     45  C   UNL     1       3.389  -6.344  26.822  0.00  0.00    +0.158 A 
ATOM     46  C   UNL     1       2.759  -5.249  26.258  0.00  0.00    +0.050 A 
BRANCH  45  47
ATOM     47  O   UNL     1       2.873  -7.607  26.753  0.00  0.00    -0.503 OA
ATOM     48  H   UNL     1       1.911  -7.563  26.892  0.00  0.00    +0.292 HD
ENDBRANCH  45  47
BRANCH  44  49
ATOM     49  O   UNL     1       5.244  -7.261  28.000  0.00  0.00    -0.503 OA
ATOM     50  H   UNL     1       5.966  -7.447  27.365  0.00  0.00    +0.292 HD
ENDBRANCH  44  49
ENDBRANCH  30  42
BRANCH  36  51
ATOM     51  O   UNL     1       2.763   2.638  29.776  0.00  0.00    -0.507 OA
ATOM     52  H   UNL     1       1.959   2.482  29.247  0.00  0.00    +0.292 HD
ENDBRANCH  36  51
BRANCH  34  53
ATOM     53  O   UNL     1       7.323   2.012  28.672  0.00  0.00    -0.506 OA
ATOM     54  H   UNL     1       7.361   2.740  29.334  0.00  0.00    +0.292 HD
ENDBRANCH  34  53
ENDBRANCH  29  40
ENDBRANCH   1  29
TORSDOF 17
ENDMDL
MODEL 3
REMARK VINA RESULT:      -7.3      1.891      2.849
REMARK  Name = 
REMARK  17 active torsions:
REMARK  status: ('A' for Active; 'I' for Inactive)
REMARK    1  A    between atoms: C_3  and  O_47
REMARK    2  A    between atoms: C_4  and  O_46
REMARK    3  A    between atoms: C_6  and  C_7
REMARK    4  A    between atoms: C_8  and  O_20
REMARK    5  A    between atoms: C_12  and  O_19
REMARK    6  A    between atoms: C_14  and  O_18
REMARK    7  A    between atoms: O_20  and  C_21
REMARK    8  A    between atoms: C_23  and  O_34
REMARK    9  A    between atoms: C_25  and  O_33
REMARK   10  A    between atoms: C_26  and  O_32
REMARK   11  A    between atoms: C_28  and  C_30
REMARK   12  A    between atoms: C_30  and  O_31
REMARK   13  A    between atoms: O_34  and  C_35
REMARK   14  A    between atoms: C_35  and  C_37
REMARK   15  A    between atoms: C_39  and  O_45
REMARK   16  A    between atoms: C_40  and  O_44
REMARK   17  A    between atoms: C_41  and  O_43
REMARK                            x       y       z     vdW  Elec       q    Type
REMARK                         _______ _______ _______ _____ _____    ______ ____
ROOT
ATOM      1  C   UNL     1       5.345  -0.358  25.611  0.00  0.00    +0.352 C 
ATOM      2  O   UNL     1       4.540   0.851  25.561  0.00  0.00    -0.330 OA
ATOM      3  C   UNL     1       3.860   1.330  26.729  0.00  0.00    +0.179 C 
ATOM      4  C   UNL     1       3.344   0.219  27.661  0.00  0.00    +0.178 C 
ATOM      5  C   UNL     1       4.189  -1.051  27.639  0.00  0.00    +0.192 C 
ATOM      6  C   UNL     1       4.623  -1.578  26.247  0.00  0.00    +0.276 C 
ENDROOT
BRANCH   5   7
ATOM      7  O   UNL     1       3.573  -2.066  28.433  0.00  0.00    -0.385 OA
ATOM      8  H   UNL     1       2.665  -2.162  28.091  0.00  0.00    +0.210 HD
ENDBRANCH   5   7
BRANCH   4   9
ATOM      9  O   UNL     1       1.993  -0.157  27.392  0.00  0.00    -0.386 OA
ATOM     10  H   UNL     1       1.759  -0.757  28.130  0.00  0.00    +0.210 HD
ENDBRANCH   4   9
BRANCH   6  11
ATOM     11  O   UNL     1       3.703  -2.354  25.354  0.00  0.00    -0.449 OA
BRANCH  11  12
ATOM     12  C   UNL     1       4.088  -3.675  25.066  0.00  0.00    +0.340 C 
ATOM     13  O   UNL     1       3.997  -4.133  23.922  0.00  0.00    -0.245 OA
BRANCH  12  14
ATOM     14  C   UNL     1       4.614  -4.642  26.152  0.00  0.00    +0.066 A 
ATOM     15  C   UNL     1       3.811  -5.480  26.929  0.00  0.00    +0.064 A 
ATOM     16  C   UNL     1       4.394  -6.373  27.867  0.00  0.00    +0.163 A 
ATOM     17  C   UNL     1       5.769  -6.477  28.028  0.00  0.00    +0.201 A 
ATOM     18  C   UNL     1       6.597  -5.642  27.271  0.00  0.00    +0.163 A 
ATOM     19  C   UNL     1       6.038  -4.742  26.356  0.00  0.00    +0.064 A 
BRANCH  18  20
ATOM     20  O   UNL     1       7.943  -5.806  27.485  0.00  0.00    -0.503 OA
ATOM     21  H   UNL     1       8.080  -6.375  28.269  0.00  0.00    +0.292 HD
ENDBRANCH  18  20
BRANCH  17  22
ATOM     22  O   UNL     1       6.277  -7.368  28.915  0.00  0.00    -0.501 OA
ATOM     23  H   UNL     1       7.239  -7.141  29.007  0.00  0.00    +0.292 HD
ENDBRANCH  17  22
BRANCH  16  24
ATOM     24  O   UNL     1       3.626  -7.185  28.622  0.00  0.00    -0.503 OA
ATOM     25  H   UNL     1       3.030  -7.643  27.987  0.00  0.00    +0.292 HD
ENDBRANCH  16  24
ENDBRANCH  12  14
ENDBRANCH  11  12
ENDBRANCH   6  11
BRANCH   3  26
ATOM     26  C   UNL     1       2.658   2.228  26.288  0.00  0.00    +0.190 C 
BRANCH  26  27
ATOM     27  O   UNL     1       2.655   2.608  24.911  0.00  0.00    -0.392 OA
ATOM     28  H   UNL     1       2.426   3.549  24.849  0.00  0.00    +0.210 HD
ENDBRANCH  26  27
ENDBRANCH   3  26
BRANCH   1  29
ATOM     29  O   UNL     1       6.626  -0.179  26.321  0.00  0.00    -0.452 OA
BRANCH  29  40
ATOM     30  C   UNL     1       8.435  -0.152  24.643  0.00  0.00    +0.181 A 
ATOM     31  O   UNL     1       9.418   0.512  23.898  0.00  0.00    -0.451 OA
ATOM     32  C   UNL     1       9.571   1.870  24.014  0.00  0.00    +0.147 A 
ATOM     33  C   UNL     1       8.771   2.635  24.844  0.00  0.00    +0.109 A 
ATOM     34  C   UNL     1       8.900   4.035  24.876  0.00  0.00    +0.135 A 
ATOM     35  C   UNL     1       9.884   4.671  24.132  0.00  0.00    +0.091 A 
ATOM     36  C   UNL     1      10.723   3.894  23.338  0.00  0.00    +0.124 A 
ATOM     37  C   UNL     1       7.813   1.949  25.699  0.00  0.00    +0.238 A 
ATOM     38  O   UNL     1       7.163   2.639  26.479  0.00  0.00    -0.283 OA
ATOM     39  C   UNL     1      10.568   2.505  23.262  0.00  0.00    +0.092 A 
ATOM     40  C   UNL     1       7.642   0.462  25.576  0.00  0.00    +0.214 A 
BRANCH  30  42
ATOM     41  C   UNL     1       7.440  -1.949  23.161  0.00  0.00    +0.015 A 
ATOM     42  C   UNL     1       8.317  -1.589  24.217  0.00  0.00    +0.025 A 
ATOM     43  C   UNL     1       9.069  -2.620  24.799  0.00  0.00    +0.060 A 
ATOM     44  C   UNL     1       8.886  -3.941  24.393  0.00  0.00    +0.159 A 
ATOM     45  C   UNL     1       7.968  -4.286  23.400  0.00  0.00    +0.158 A 
ATOM     46  C   UNL     1       7.255  -3.288  22.762  0.00  0.00    +0.050 A 
BRANCH  45  47
ATOM     47  O   UNL     1       7.813  -5.609  23.101  0.00  0.00    -0.503 OA
ATOM     48  H   UNL     1       8.597  -6.096  23.409  0.00  0.00    +0.292 HD
ENDBRANCH  45  47
BRANCH  44  49
ATOM     49  O   UNL     1       9.626  -4.931  24.984  0.00  0.00    -0.503 OA
ATOM     50  H   UNL     1      10.448  -4.488  25.281  0.00  0.00    +0.292 HD
ENDBRANCH  44  49
ENDBRANCH  30  42
BRANCH  36  51
ATOM     51  O   UNL     1      11.725   4.477  22.610  0.00  0.00    -0.507 OA
ATOM     52  H   UNL     1      11.714   5.436  22.785  0.00  0.00    +0.292 HD
ENDBRANCH  36  51
BRANCH  34  53
ATOM     53  O   UNL     1       8.089   4.851  25.617  0.00  0.00    -0.506 OA
ATOM     54  H   UNL     1       8.101   5.745  25.204  0.00  0.00    +0.292 HD
ENDBRANCH  34  53
ENDBRANCH  29  40
ENDBRANCH   1  29
TORSDOF 17
ENDMDL
MODEL 4
REMARK VINA RESULT:      -7.2      2.038      6.828
REMARK  Name = 
REMARK  17 active torsions:
REMARK  status: ('A' for Active; 'I' for Inactive)
REMARK    1  A    between atoms: C_3  and  O_47
REMARK    2  A    between atoms: C_4  and  O_46
REMARK    3  A    between atoms: C_6  and  C_7
REMARK    4  A    between atoms: C_8  and  O_20
REMARK    5  A    between atoms: C_12  and  O_19
REMARK    6  A    between atoms: C_14  and  O_18
REMARK    7  A    between atoms: O_20  and  C_21
REMARK    8  A    between atoms: C_23  and  O_34
REMARK    9  A    between atoms: C_25  and  O_33
REMARK   10  A    between atoms: C_26  and  O_32
REMARK   11  A    between atoms: C_28  and  C_30
REMARK   12  A    between atoms: C_30  and  O_31
REMARK   13  A    between atoms: O_34  and  C_35
REMARK   14  A    between atoms: C_35  and  C_37
REMARK   15  A    between atoms: C_39  and  O_45
REMARK   16  A    between atoms: C_40  and  O_44
REMARK   17  A    between atoms: C_41  and  O_43
REMARK                            x       y       z     vdW  Elec       q    Type
REMARK                         _______ _______ _______ _____ _____    ______ ____
ROOT
ATOM      1  C   UNL     1       8.899  -0.247  24.546  0.00  0.00    +0.352 C 
ATOM      2  O   UNL     1       9.872   0.746  24.125  0.00  0.00    -0.330 OA
ATOM      3  C   UNL     1       9.546   2.142  24.128  0.00  0.00    +0.179 C 
ATOM      4  C   UNL     1       8.078   2.450  23.779  0.00  0.00    +0.178 C 
ATOM      5  C   UNL     1       7.100   1.355  24.191  0.00  0.00    +0.192 C 
ATOM      6  C   UNL     1       7.508  -0.105  23.868  0.00  0.00    +0.276 C 
ENDROOT
BRANCH   5   7
ATOM      7  O   UNL     1       5.787   1.665  23.722  0.00  0.00    -0.385 OA
ATOM      8  H   UNL     1       5.507   2.460  24.212  0.00  0.00    +0.210 HD
ENDBRANCH   5   7
BRANCH   4   9
ATOM      9  O   UNL     1       7.875   2.711  22.390  0.00  0.00    -0.386 OA
ATOM     10  H   UNL     1       8.620   2.251  21.948  0.00  0.00    +0.210 HD
ENDBRANCH   4   9
BRANCH   6  11
ATOM     11  O   UNL     1       7.366  -0.701  22.499  0.00  0.00    -0.449 OA
BRANCH  11  12
ATOM     12  C   UNL     1       7.741  -2.049  22.368  0.00  0.00    +0.340 C 
ATOM     13  O   UNL     1       8.878  -2.363  22.001  0.00  0.00    -0.245 OA
BRANCH  12  14
ATOM     14  C   UNL     1       6.761  -3.214  22.640  0.00  0.00    +0.066 A 
ATOM     15  C   UNL     1       5.516  -3.078  23.259  0.00  0.00    +0.064 A 
ATOM     16  C   UNL     1       4.662  -4.202  23.417  0.00  0.00    +0.163 A 
ATOM     17  C   UNL     1       5.005  -5.460  22.940  0.00  0.00    +0.201 A 
ATOM     18  C   UNL     1       6.250  -5.627  22.325  0.00  0.00    +0.163 A 
ATOM     19  C   UNL     1       7.112  -4.534  22.179  0.00  0.00    +0.064 A 
BRANCH  18  20
ATOM     20  O   UNL     1       6.514  -6.897  21.879  0.00  0.00    -0.503 OA
ATOM     21  H   UNL     1       5.991  -7.540  22.399  0.00  0.00    +0.292 HD
ENDBRANCH  18  20
BRANCH  17  22
ATOM     22  O   UNL     1       4.140  -6.494  23.087  0.00  0.00    -0.501 OA
ATOM     23  H   UNL     1       4.539  -7.254  22.590  0.00  0.00    +0.292 HD
ENDBRANCH  17  22
BRANCH  16  24
ATOM     24  O   UNL     1       3.458  -4.081  24.015  0.00  0.00    -0.503 OA
ATOM     25  H   UNL     1       3.656  -3.848  24.950  0.00  0.00    +0.292 HD
ENDBRANCH  16  24
ENDBRANCH  12  14
ENDBRANCH  11  12
ENDBRANCH   6  11
BRANCH   3  26
ATOM     26  C   UNL     1      10.479   2.888  23.120  0.00  0.00    +0.190 C 
BRANCH  26  27
ATOM     27  O   UNL     1      10.480   2.366  21.791  0.00  0.00    -0.392 OA
ATOM     28  H   UNL     1       9.990   2.976  21.217  0.00  0.00    +0.210 HD
ENDBRANCH  26  27
ENDBRANCH   3  26
BRANCH   1  29
ATOM     29  O   UNL     1       8.681  -0.271  26.006  0.00  0.00    -0.452 OA
BRANCH  29  40
ATOM     30  C   UNL     1       6.545  -0.889  27.077  0.00  0.00    +0.181 A 
ATOM     31  O   UNL     1       5.599  -1.837  27.489  0.00  0.00    -0.451 OA
ATOM     32  C   UNL     1       5.783  -3.164  27.198  0.00  0.00    +0.147 A 
ATOM     33  C   UNL     1       6.878  -3.621  26.488  0.00  0.00    +0.109 A 
ATOM     34  C   UNL     1       6.991  -4.977  26.136  0.00  0.00    +0.135 A 
ATOM     35  C   UNL     1       6.044  -5.899  26.560  0.00  0.00    +0.091 A 
ATOM     36  C   UNL     1       4.969  -5.446  27.320  0.00  0.00    +0.124 A 
ATOM     37  C   UNL     1       7.918  -2.665  26.139  0.00  0.00    +0.238 A 
ATOM     38  O   UNL     1       8.915  -3.102  25.572  0.00  0.00    -0.283 OA
ATOM     39  C   UNL     1       4.823  -4.089  27.631  0.00  0.00    +0.092 A 
ATOM     40  C   UNL     1       7.723  -1.210  26.456  0.00  0.00    +0.214 A 
BRANCH  30  42
ATOM     41  C   UNL     1       4.723   0.868  26.979  0.00  0.00    +0.015 A 
ATOM     42  C   UNL     1       6.051   0.509  27.328  0.00  0.00    +0.025 A 
ATOM     43  C   UNL     1       6.839   1.498  27.934  0.00  0.00    +0.060 A 
ATOM     44  C   UNL     1       6.343   2.789  28.102  0.00  0.00    +0.159 A 
ATOM     45  C   UNL     1       5.058   3.144  27.690  0.00  0.00    +0.158 A 
ATOM     46  C   UNL     1       4.231   2.178  27.146  0.00  0.00    +0.050 A 
BRANCH  45  47
ATOM     47  O   UNL     1       4.670   4.444  27.844  0.00  0.00    -0.503 OA
ATOM     48  H   UNL     1       5.387   5.026  27.537  0.00  0.00    +0.292 HD
ENDBRANCH  45  47
BRANCH  44  49
ATOM     49  O   UNL     1       7.137   3.740  28.688  0.00  0.00    -0.503 OA
ATOM     50  H   UNL     1       6.630   4.046  29.469  0.00  0.00    +0.292 HD
ENDBRANCH  44  49
ENDBRANCH  30  42
BRANCH  36  51
ATOM     51  O   UNL     1       4.027  -6.324  27.783  0.00  0.00    -0.507 OA
ATOM     52  H   UNL     1       4.457  -7.188  27.927  0.00  0.00    +0.292 HD
ENDBRANCH  36  51
BRANCH  34  53
ATOM     53  O   UNL     1       8.010  -5.476  25.370  0.00  0.00    -0.506 OA
ATOM     54  H   UNL     1       8.857  -5.296  25.838  0.00  0.00    +0.292 HD
ENDBRANCH  34  53
ENDBRANCH  29  40
ENDBRANCH   1  29
TORSDOF 17
ENDMDL
MODEL 5
REMARK VINA RESULT:      -7.2      2.628      7.447
REMARK  Name = 
REMARK  17 active torsions:
REMARK  status: ('A' for Active; 'I' for Inactive)
REMARK    1  A    between atoms: C_3  and  O_47
REMARK    2  A    between atoms: C_4  and  O_46
REMARK    3  A    between atoms: C_6  and  C_7
REMARK    4  A    between atoms: C_8  and  O_20
REMARK    5  A    between atoms: C_12  and  O_19
REMARK    6  A    between atoms: C_14  and  O_18
REMARK    7  A    between atoms: O_20  and  C_21
REMARK    8  A    between atoms: C_23  and  O_34
REMARK    9  A    between atoms: C_25  and  O_33
REMARK   10  A    between atoms: C_26  and  O_32
REMARK   11  A    between atoms: C_28  and  C_30
REMARK   12  A    between atoms: C_30  and  O_31
REMARK   13  A    between atoms: O_34  and  C_35
REMARK   14  A    between atoms: C_35  and  C_37
REMARK   15  A    between atoms: C_39  and  O_45
REMARK   16  A    between atoms: C_40  and  O_44
REMARK   17  A    between atoms: C_41  and  O_43
REMARK                            x       y       z     vdW  Elec       q    Type
REMARK                         _______ _______ _______ _____ _____    ______ ____
ROOT
ATOM      1  C   UNL     1       7.685  -0.783  24.636  0.00  0.00    +0.352 C 
ATOM      2  O   UNL     1       8.498   0.211  23.957  0.00  0.00    -0.330 OA
ATOM      3  C   UNL     1       8.646   0.192  22.531  0.00  0.00    +0.179 C 
ATOM      4  C   UNL     1       8.660  -1.219  21.916  0.00  0.00    +0.178 C 
ATOM      5  C   UNL     1       7.838  -2.243  22.692  0.00  0.00    +0.192 C 
ATOM      6  C   UNL     1       8.005  -2.250  24.234  0.00  0.00    +0.276 C 
ENDROOT
BRANCH   5   7
ATOM      7  O   UNL     1       8.006  -3.543  22.125  0.00  0.00    -0.385 OA
ATOM      8  H   UNL     1       8.903  -3.556  21.743  0.00  0.00    +0.210 HD
ENDBRANCH   5   7
BRANCH   4   9
ATOM      9  O   UNL     1       9.977  -1.750  21.762  0.00  0.00    -0.386 OA
ATOM     10  H   UNL     1      10.469  -1.040  21.299  0.00  0.00    +0.210 HD
ENDBRANCH   4   9
BRANCH   6  11
ATOM     11  O   UNL     1       9.174  -2.893  24.917  0.00  0.00    -0.449 OA
BRANCH  11  12
ATOM     12  C   UNL     1       9.080  -4.279  25.134  0.00  0.00    +0.340 C 
ATOM     13  O   UNL     1      10.014  -5.036  24.849  0.00  0.00    -0.245 OA
BRANCH  12  14
ATOM     14  C   UNL     1       7.806  -4.944  25.705  0.00  0.00    +0.066 A 
ATOM     15  C   UNL     1       6.810  -5.550  24.935  0.00  0.00    +0.064 A 
ATOM     16  C   UNL     1       5.702  -6.182  25.558  0.00  0.00    +0.163 A 
ATOM     17  C   UNL     1       5.576  -6.257  26.938  0.00  0.00    +0.201 A 
ATOM     18  C   UNL     1       6.553  -5.650  27.734  0.00  0.00    +0.163 A 
ATOM     19  C   UNL     1       7.642  -5.004  27.136  0.00  0.00    +0.064 A 
BRANCH  18  20
ATOM     20  O   UNL     1       6.359  -5.768  29.087  0.00  0.00    -0.503 OA
ATOM     21  H   UNL     1       6.527  -4.905  29.516  0.00  0.00    +0.292 HD
ENDBRANCH  18  20
BRANCH  17  22
ATOM     22  O   UNL     1       4.513  -6.900  27.483  0.00  0.00    -0.501 OA
ATOM     23  H   UNL     1       4.741  -7.866  27.464  0.00  0.00    +0.292 HD
ENDBRANCH  17  22
BRANCH  16  24
ATOM     24  O   UNL     1       4.734  -6.769  24.822  0.00  0.00    -0.503 OA
ATOM     25  H   UNL     1       5.205  -7.210  24.079  0.00  0.00    +0.292 HD
ENDBRANCH  16  24
ENDBRANCH  12  14
ENDBRANCH  11  12
ENDBRANCH   6  11
BRANCH   3  26
ATOM     26  C   UNL     1       9.966   0.933  22.143  0.00  0.00    +0.190 C 
BRANCH  26  27
ATOM     27  O   UNL     1       9.789   2.166  21.444  0.00  0.00    -0.392 OA
ATOM     28  H   UNL     1      10.479   2.241  20.766  0.00  0.00    +0.210 HD
ENDBRANCH  26  27
ENDBRANCH   3  26
BRANCH   1  29
ATOM     29  O   UNL     1       6.235  -0.579  24.453  0.00  0.00    -0.452 OA
BRANCH  29  40
ATOM     30  C   UNL     1       5.203  -0.579  26.694  0.00  0.00    +0.181 A 
ATOM     31  O   UNL     1       4.365  -1.139  27.668  0.00  0.00    -0.451 OA
ATOM     32  C   UNL     1       3.633  -2.262  27.383  0.00  0.00    +0.147 A 
ATOM     33  C   UNL     1       3.673  -2.876  26.144  0.00  0.00    +0.109 A 
ATOM     34  C   UNL     1       2.846  -3.977  25.861  0.00  0.00    +0.135 A 
ATOM     35  C   UNL     1       2.027  -4.518  26.843  0.00  0.00    +0.091 A 
ATOM     36  C   UNL     1       2.027  -3.931  28.105  0.00  0.00    +0.124 A 
ATOM     37  C   UNL     1       4.612  -2.368  25.155  0.00  0.00    +0.238 A 
ATOM     38  O   UNL     1       4.684  -2.970  24.088  0.00  0.00    -0.283 OA
ATOM     39  C   UNL     1       2.811  -2.804  28.380  0.00  0.00    +0.092 A 
ATOM     40  C   UNL     1       5.417  -1.138  25.462  0.00  0.00    +0.214 A 
BRANCH  30  42
ATOM     41  C   UNL     1       5.370   1.940  26.495  0.00  0.00    +0.015 A 
ATOM     42  C   UNL     1       5.753   0.743  27.154  0.00  0.00    +0.025 A 
ATOM     43  C   UNL     1       6.622   0.868  28.246  0.00  0.00    +0.060 A 
ATOM     44  C   UNL     1       7.136   2.115  28.600  0.00  0.00    +0.159 A 
ATOM     45  C   UNL     1       6.803   3.274  27.898  0.00  0.00    +0.158 A 
ATOM     46  C   UNL     1       5.899   3.197  26.854  0.00  0.00    +0.050 A 
BRANCH  45  47
ATOM     47  O   UNL     1       7.391   4.446  28.278  0.00  0.00    -0.503 OA
ATOM     48  H   UNL     1       6.928   4.792  29.061  0.00  0.00    +0.292 HD
ENDBRANCH  45  47
BRANCH  44  49
ATOM     49  O   UNL     1       7.991   2.208  29.666  0.00  0.00    -0.503 OA
ATOM     50  H   UNL     1       7.858   3.113  30.018  0.00  0.00    +0.292 HD
ENDBRANCH  44  49
ENDBRANCH  30  42
BRANCH  36  51
ATOM     51  O   UNL     1       1.257  -4.448  29.111  0.00  0.00    -0.507 OA
ATOM     52  H   UNL     1       0.685  -3.737  29.456  0.00  0.00    +0.292 HD
ENDBRANCH  36  51
BRANCH  34  53
ATOM     53  O   UNL     1       2.784  -4.579  24.633  0.00  0.00    -0.506 OA
ATOM     54  H   UNL     1       2.454  -3.914  23.986  0.00  0.00    +0.292 HD
ENDBRANCH  34  53
ENDBRANCH  29  40
ENDBRANCH   1  29
TORSDOF 17
ENDMDL
MODEL 6
REMARK VINA RESULT:      -7.1      1.847      7.491
REMARK  Name = 
REMARK  17 active torsions:
REMARK  status: ('A' for Active; 'I' for Inactive)
REMARK    1  A    between atoms: C_3  and  O_47
REMARK    2  A    between atoms: C_4  and  O_46
REMARK    3  A    between atoms: C_6  and  C_7
REMARK    4  A    between atoms: C_8  and  O_20
REMARK    5  A    between atoms: C_12  and  O_19
REMARK    6  A    between atoms: C_14  and  O_18
REMARK    7  A    between atoms: O_20  and  C_21
REMARK    8  A    between atoms: C_23  and  O_34
REMARK    9  A    between atoms: C_25  and  O_33
REMARK   10  A    between atoms: C_26  and  O_32
REMARK   11  A    between atoms: C_28  and  C_30
REMARK   12  A    between atoms: C_30  and  O_31
REMARK   13  A    between atoms: O_34  and  C_35
REMARK   14  A    between atoms: C_35  and  C_37
REMARK   15  A    between atoms: C_39  and  O_45
REMARK   16  A    between atoms: C_40  and  O_44
REMARK   17  A    between atoms: C_41  and  O_43
REMARK                            x       y       z     vdW  Elec       q    Type
REMARK                         _______ _______ _______ _____ _____    ______ ____
ROOT
ATOM      1  C   UNL     1       6.700   0.419  26.415  0.00  0.00    +0.352 C 
ATOM      2  O   UNL     1       6.832   1.201  27.632  0.00  0.00    -0.330 OA
ATOM      3  C   UNL     1       6.001   0.936  28.770  0.00  0.00    +0.179 C 
ATOM      4  C   UNL     1       4.574   0.478  28.419  0.00  0.00    +0.178 C 
ATOM      5  C   UNL     1       4.476  -0.292  27.106  0.00  0.00    +0.192 C 
ATOM      6  C   UNL     1       5.242   0.295  25.892  0.00  0.00    +0.276 C 
ENDROOT
BRANCH   5   7
ATOM      7  O   UNL     1       3.109  -0.570  26.799  0.00  0.00    -0.385 OA
ATOM      8  H   UNL     1       3.122  -1.275  26.126  0.00  0.00    +0.210 HD
ENDBRANCH   5   7
BRANCH   4   9
ATOM      9  O   UNL     1       3.638   1.554  28.360  0.00  0.00    -0.386 OA
ATOM     10  H   UNL     1       3.089   1.352  27.574  0.00  0.00    +0.210 HD
ENDBRANCH   4   9
BRANCH   6  11
ATOM     11  O   UNL     1       4.718   1.444  25.085  0.00  0.00    -0.449 OA
BRANCH  11  12
ATOM     12  C   UNL     1       5.097   2.728  25.516  0.00  0.00    +0.340 C 
ATOM     13  O   UNL     1       4.528   3.276  26.466  0.00  0.00    -0.245 OA
BRANCH  12  14
ATOM     14  C   UNL     1       6.214   3.541  24.822  0.00  0.00    +0.066 A 
ATOM     15  C   UNL     1       6.270   3.807  23.451  0.00  0.00    +0.064 A 
ATOM     16  C   UNL     1       7.311   4.610  22.915  0.00  0.00    +0.163 A 
ATOM     17  C   UNL     1       8.285   5.187  23.718  0.00  0.00    +0.201 A 
ATOM     18  C   UNL     1       8.258   4.930  25.092  0.00  0.00    +0.163 A 
ATOM     19  C   UNL     1       7.251   4.123  25.636  0.00  0.00    +0.064 A 
BRANCH  18  20
ATOM     20  O   UNL     1       9.252   5.537  25.819  0.00  0.00    -0.503 OA
ATOM     21  H   UNL     1       9.827   6.051  25.216  0.00  0.00    +0.292 HD
ENDBRANCH  18  20
BRANCH  17  22
ATOM     22  O   UNL     1       9.239   5.973  23.160  0.00  0.00    -0.501 OA
ATOM     23  H   UNL     1       9.315   5.678  22.215  0.00  0.00    +0.292 HD
ENDBRANCH  17  22
BRANCH  16  24
ATOM     24  O   UNL     1       7.374   4.871  21.592  0.00  0.00    -0.503 OA
ATOM     25  H   UNL     1       8.039   5.590  21.501  0.00  0.00    +0.292 HD
ENDBRANCH  16  24
ENDBRANCH  12  14
ENDBRANCH  11  12
ENDBRANCH   6  11
BRANCH   3  26
ATOM     26  C   UNL     1       5.923   2.221  29.657  0.00  0.00    +0.190 C 
BRANCH  26  27
ATOM     27  O   UNL     1       5.917   3.456  28.940  0.00  0.00    -0.392 OA
ATOM     28  H   UNL     1       5.446   4.120  29.467  0.00  0.00    +0.210 HD
ENDBRANCH  26  27
ENDBRANCH   3  26
BRANCH   1  29
ATOM     29  O   UNL     1       7.247  -0.946  26.533  0.00  0.00    -0.452 OA
BRANCH  29  40
ATOM     30  C   UNL     1       7.705  -1.482  24.169  0.00  0.00    +0.181 A 
ATOM     31  O   UNL     1       7.582  -2.309  23.044  0.00  0.00    -0.451 OA
ATOM     32  C   UNL     1       6.917  -3.504  23.137  0.00  0.00    +0.147 A 
ATOM     33  C   UNL     1       6.358  -3.949  24.321  0.00  0.00    +0.109 A 
ATOM     34  C   UNL     1       5.756  -5.217  24.400  0.00  0.00    +0.135 A 
ATOM     35  C   UNL     1       5.641  -6.017  23.271  0.00  0.00    +0.091 A 
ATOM     36  C   UNL     1       6.157  -5.545  22.067  0.00  0.00    +0.124 A 
ATOM     37  C   UNL     1       6.389  -3.059  25.473  0.00  0.00    +0.238 A 
ATOM     38  O   UNL     1       5.826  -3.443  26.494  0.00  0.00    -0.283 OA
ATOM     39  C   UNL     1       6.803  -4.305  21.992  0.00  0.00    +0.092 A 
ATOM     40  C   UNL     1       7.117  -1.749  25.376  0.00  0.00    +0.214 A 
BRANCH  30  42
ATOM     41  C   UNL     1       9.732  -0.079  24.749  0.00  0.00    +0.015 A 
ATOM     42  C   UNL     1       8.629  -0.330  23.891  0.00  0.00    +0.025 A 
ATOM     43  C   UNL     1       8.479   0.517  22.784  0.00  0.00    +0.060 A 
ATOM     44  C   UNL     1       9.341   1.597  22.600  0.00  0.00    +0.159 A 
ATOM     45  C   UNL     1      10.379   1.870  23.492  0.00  0.00    +0.158 A 
ATOM     46  C   UNL     1      10.595   1.020  24.560  0.00  0.00    +0.050 A 
BRANCH  45  47
ATOM     47  O   UNL     1      11.144   2.979  23.267  0.00  0.00    -0.503 OA
ATOM     48  H   UNL     1      10.776   3.724  23.775  0.00  0.00    +0.292 HD
ENDBRANCH  45  47
BRANCH  44  49
ATOM     49  O   UNL     1       9.167   2.415  21.515  0.00  0.00    -0.503 OA
ATOM     50  H   UNL     1       8.285   2.179  21.159  0.00  0.00    +0.292 HD
ENDBRANCH  44  49
ENDBRANCH  30  42
BRANCH  36  51
ATOM     51  O   UNL     1       6.042  -6.287  20.924  0.00  0.00    -0.507 OA
ATOM     52  H   UNL     1       5.457  -7.046  21.108  0.00  0.00    +0.292 HD
ENDBRANCH  36  51
BRANCH  34  53
ATOM     53  O   UNL     1       5.255  -5.744  25.559  0.00  0.00    -0.506 OA
ATOM     54  H   UNL     1       5.720  -6.595  25.731  0.00  0.00    +0.292 HD
ENDBRANCH  34  53
ENDBRANCH  29  40
ENDBRANCH   1  29
TORSDOF 17
ENDMDL
MODEL 7
REMARK VINA RESULT:      -6.9      1.505      2.293
REMARK  Name = 
REMARK  17 active torsions:
REMARK  status: ('A' for Active; 'I' for Inactive)
REMARK    1  A    between atoms: C_3  and  O_47
REMARK    2  A    between atoms: C_4  and  O_46
REMARK    3  A    between atoms: C_6  and  C_7
REMARK    4  A    between atoms: C_8  and  O_20
REMARK    5  A    between atoms: C_12  and  O_19
REMARK    6  A    between atoms: C_14  and  O_18
REMARK    7  A    between atoms: O_20  and  C_21
REMARK    8  A    between atoms: C_23  and  O_34
REMARK    9  A    between atoms: C_25  and  O_33
REMARK   10  A    between atoms: C_26  and  O_32
REMARK   11  A    between atoms: C_28  and  C_30
REMARK   12  A    between atoms: C_30  and  O_31
REMARK   13  A    between atoms: O_34  and  C_35
REMARK   14  A    between atoms: C_35  and  C_37
REMARK   15  A    between atoms: C_39  and  O_45
REMARK   16  A    between atoms: C_40  and  O_44
REMARK   17  A    between atoms: C_41  and  O_43
REMARK                            x       y       z     vdW  Elec       q    Type
REMARK                         _______ _______ _______ _____ _____    ______ ____
ROOT
ATOM      1  C   UNL     1       5.410   0.055  25.751  0.00  0.00    +0.352 C 
ATOM      2  O   UNL     1       4.352   1.041  25.895  0.00  0.00    -0.330 OA
ATOM      3  C   UNL     1       3.546   1.086  27.079  0.00  0.00    +0.179 C 
ATOM      4  C   UNL     1       3.269  -0.291  27.709  0.00  0.00    +0.178 C 
ATOM      5  C   UNL     1       4.382  -1.310  27.486  0.00  0.00    +0.192 C 
ATOM      6  C   UNL     1       4.968  -1.403  26.053  0.00  0.00    +0.276 C 
ENDROOT
BRANCH   5   7
ATOM      7  O   UNL     1       3.992  -2.586  27.994  0.00  0.00    -0.385 OA
ATOM      8  H   UNL     1       3.327  -2.933  27.370  0.00  0.00    +0.210 HD
ENDBRANCH   5   7
BRANCH   4   9
ATOM      9  O   UNL     1       2.049  -0.879  27.259  0.00  0.00    -0.386 OA
ATOM     10  H   UNL     1       2.082  -0.784  26.284  0.00  0.00    +0.210 HD
ENDBRANCH   4   9
BRANCH   6  11
ATOM     11  O   UNL     1       4.276  -2.139  24.944  0.00  0.00    -0.449 OA
BRANCH  11  12
ATOM     12  C   UNL     1       4.977  -3.224  24.390  0.00  0.00    +0.340 C 
ATOM     13  O   UNL     1       5.934  -3.046  23.629  0.00  0.00    -0.245 OA
BRANCH  12  14
ATOM     14  C   UNL     1       4.583  -4.694  24.666  0.00  0.00    +0.066 A 
ATOM     15  C   UNL     1       4.936  -5.411  25.812  0.00  0.00    +0.064 A 
ATOM     16  C   UNL     1       4.480  -6.743  25.999  0.00  0.00    +0.163 A 
ATOM     17  C   UNL     1       3.647  -7.371  25.084  0.00  0.00    +0.201 A 
ATOM     18  C   UNL     1       3.286  -6.681  23.922  0.00  0.00    +0.163 A 
ATOM     19  C   UNL     1       3.743  -5.375  23.712  0.00  0.00    +0.064 A 
BRANCH  18  20
ATOM     20  O   UNL     1       2.460  -7.368  23.068  0.00  0.00    -0.503 OA
ATOM     21  H   UNL     1       2.521  -8.326  23.258  0.00  0.00    +0.292 HD
ENDBRANCH  18  20
BRANCH  17  22
ATOM     22  O   UNL     1       3.214  -8.634  25.324  0.00  0.00    -0.501 OA
ATOM     23  H   UNL     1       3.548  -8.868  26.228  0.00  0.00    +0.292 HD
ENDBRANCH  17  22
BRANCH  16  24
ATOM     24  O   UNL     1       4.818  -7.444  27.102  0.00  0.00    -0.503 OA
ATOM     25  H   UNL     1       5.800  -7.483  27.093  0.00  0.00    +0.292 HD
ENDBRANCH  16  24
ENDBRANCH  12  14
ENDBRANCH  11  12
ENDBRANCH   6  11
BRANCH   3  26
ATOM     26  C   UNL     1       2.185   1.778  26.745  0.00  0.00    +0.190 C 
BRANCH  26  27
ATOM     27  O   UNL     1       1.270   1.883  27.838  0.00  0.00    -0.392 OA
ATOM     28  H   UNL     1       0.946   2.796  27.885  0.00  0.00    +0.210 HD
ENDBRANCH  26  27
ENDBRANCH   3  26
BRANCH   1  29
ATOM     29  O   UNL     1       6.595   0.341  26.582  0.00  0.00    -0.452 OA
BRANCH  29  40
ATOM     30  C   UNL     1       8.715   0.206  25.327  0.00  0.00    +0.181 A 
ATOM     31  O   UNL     1       9.775   0.796  24.625  0.00  0.00    -0.451 OA
ATOM     32  C   UNL     1       9.781   2.148  24.397  0.00  0.00    +0.147 A 
ATOM     33  C   UNL     1       8.758   2.975  24.825  0.00  0.00    +0.109 A 
ATOM     34  C   UNL     1       8.756   4.343  24.501  0.00  0.00    +0.135 A 
ATOM     35  C   UNL     1       9.819   4.907  23.809  0.00  0.00    +0.091 A 
ATOM     36  C   UNL     1      10.874   4.083  23.425  0.00  0.00    +0.124 A 
ATOM     37  C   UNL     1       7.701   2.395  25.640  0.00  0.00    +0.238 A 
ATOM     38  O   UNL     1       6.840   3.158  26.070  0.00  0.00    -0.283 OA
ATOM     39  C   UNL     1      10.858   2.711  23.700  0.00  0.00    +0.092 A 
ATOM     40  C   UNL     1       7.689   0.915  25.894  0.00  0.00    +0.214 A 
BRANCH  30  42
ATOM     41  C   UNL     1       9.444  -1.939  24.193  0.00  0.00    +0.015 A 
ATOM     42  C   UNL     1       8.816  -1.294  25.291  0.00  0.00    +0.025 A 
ATOM     43  C   UNL     1       8.339  -2.114  26.323  0.00  0.00    +0.060 A 
ATOM     44  C   UNL     1       8.419  -3.501  26.215  0.00  0.00    +0.159 A 
ATOM     45  C   UNL     1       8.979  -4.122  25.097  0.00  0.00    +0.158 A 
ATOM     46  C   UNL     1       9.515  -3.343  24.089  0.00  0.00    +0.050 A 
BRANCH  45  47
ATOM     47  O   UNL     1       8.970  -5.487  25.049  0.00  0.00    -0.503 OA
ATOM     48  H   UNL     1       9.575  -5.830  25.729  0.00  0.00    +0.292 HD
ENDBRANCH  45  47
BRANCH  44  49
ATOM     49  O   UNL     1       7.938  -4.281  27.234  0.00  0.00    -0.503 OA
ATOM     50  H   UNL     1       6.995  -4.027  27.322  0.00  0.00    +0.292 HD
ENDBRANCH  44  49
ENDBRANCH  30  42
BRANCH  36  51
ATOM     51  O   UNL     1      11.955   4.602  22.766  0.00  0.00    -0.507 OA
ATOM     52  H   UNL     1      11.657   4.926  21.895  0.00  0.00    +0.292 HD
ENDBRANCH  36  51
BRANCH  34  53
ATOM     53  O   UNL     1       7.737   5.196  24.829  0.00  0.00    -0.506 OA
ATOM     54  H   UNL     1       7.751   5.322  25.805  0.00  0.00    +0.292 HD
ENDBRANCH  34  53
ENDBRANCH  29  40
ENDBRANCH   1  29
TORSDOF 17
ENDMDL
MODEL 8
REMARK VINA RESULT:      -6.9      1.956      6.731
REMARK  Name = 
REMARK  17 active torsions:
REMARK  status: ('A' for Active; 'I' for Inactive)
REMARK    1  A    between atoms: C_3  and  O_47
REMARK    2  A    between atoms: C_4  and  O_46
REMARK    3  A    between atoms: C_6  and  C_7
REMARK    4  A    between atoms: C_8  and  O_20
REMARK    5  A    between atoms: C_12  and  O_19
REMARK    6  A    between atoms: C_14  and  O_18
REMARK    7  A    between atoms: O_20  and  C_21
REMARK    8  A    between atoms: C_23  and  O_34
REMARK    9  A    between atoms: C_25  and  O_33
REMARK   10  A    between atoms: C_26  and  O_32
REMARK   11  A    between atoms: C_28  and  C_30
REMARK   12  A    between atoms: C_30  and  O_31
REMARK   13  A    between atoms: O_34  and  C_35
REMARK   14  A    between atoms: C_35  and  C_37
REMARK   15  A    between atoms: C_39  and  O_45
REMARK   16  A    between atoms: C_40  and  O_44
REMARK   17  A    between atoms: C_41  and  O_43
REMARK                            x       y       z     vdW  Elec       q    Type
REMARK                         _______ _______ _______ _____ _____    ______ ____
ROOT
ATOM      1  C   UNL     1       8.660   0.751  24.637  0.00  0.00    +0.352 C 
ATOM      2  O   UNL     1       9.612   1.832  24.447  0.00  0.00    -0.330 OA
ATOM      3  C   UNL     1       9.169   3.191  24.337  0.00  0.00    +0.179 C 
ATOM      4  C   UNL     1       7.813   3.359  23.626  0.00  0.00    +0.178 C 
ATOM      5  C   UNL     1       6.867   2.176  23.808  0.00  0.00    +0.192 C 
ATOM      6  C   UNL     1       7.476   0.761  23.631  0.00  0.00    +0.276 C 
ENDROOT
BRANCH   5   7
ATOM      7  O   UNL     1       5.691   2.361  23.020  0.00  0.00    -0.385 OA
ATOM      8  H   UNL     1       4.938   2.217  23.622  0.00  0.00    +0.210 HD
ENDBRANCH   5   7
BRANCH   4   9
ATOM      9  O   UNL     1       7.941   3.599  22.224  0.00  0.00    -0.386 OA
ATOM     10  H   UNL     1       8.716   3.062  21.958  0.00  0.00    +0.210 HD
ENDBRANCH   4   9
BRANCH   6  11
ATOM     11  O   UNL     1       7.735   0.155  22.284  0.00  0.00    -0.449 OA
BRANCH  11  12
ATOM     12  C   UNL     1       8.314  -1.126  22.282  0.00  0.00    +0.340 C 
ATOM     13  O   UNL     1       9.513  -1.285  22.034  0.00  0.00    -0.245 OA
BRANCH  12  14
ATOM     14  C   UNL     1       7.493  -2.408  22.555  0.00  0.00    +0.066 A 
ATOM     15  C   UNL     1       7.941  -3.708  22.309  0.00  0.00    +0.064 A 
ATOM     16  C   UNL     1       7.131  -4.825  22.644  0.00  0.00    +0.163 A 
ATOM     17  C   UNL     1       5.893  -4.682  23.254  0.00  0.00    +0.201 A 
ATOM     18  C   UNL     1       5.415  -3.391  23.503  0.00  0.00    +0.163 A 
ATOM     19  C   UNL     1       6.191  -2.277  23.160  0.00  0.00    +0.064 A 
BRANCH  18  20
ATOM     20  O   UNL     1       4.185  -3.332  24.108  0.00  0.00    -0.503 OA
ATOM     21  H   UNL     1       4.301  -3.136  25.060  0.00  0.00    +0.292 HD
ENDBRANCH  18  20
BRANCH  17  22
ATOM     22  O   UNL     1       5.172  -5.783  23.582  0.00  0.00    -0.501 OA
ATOM     23  H   UNL     1       4.587  -5.509  24.335  0.00  0.00    +0.292 HD
ENDBRANCH  17  22
BRANCH  16  24
ATOM     24  O   UNL     1       7.556  -6.085  22.408  0.00  0.00    -0.503 OA
ATOM     25  H   UNL     1       7.840  -6.431  23.284  0.00  0.00    +0.292 HD
ENDBRANCH  16  24
ENDBRANCH  12  14
ENDBRANCH  11  12
ENDBRANCH   6  11
BRANCH   3  26
ATOM     26  C   UNL     1      10.252   4.023  23.575  0.00  0.00    +0.190 C 
BRANCH  26  27
ATOM     27  O   UNL     1       9.905   5.385  23.320  0.00  0.00    -0.392 OA
ATOM     28  H   UNL     1       9.761   5.833  24.168  0.00  0.00    +0.210 HD
ENDBRANCH  26  27
ENDBRANCH   3  26
BRANCH   1  29
ATOM     29  O   UNL     1       8.088   0.706  25.996  0.00  0.00    -0.452 OA
BRANCH  29  40
ATOM     30  C   UNL     1       6.295  -0.720  26.914  0.00  0.00    +0.181 A 
ATOM     31  O   UNL     1       5.768  -1.971  27.260  0.00  0.00    -0.451 OA
ATOM     32  C   UNL     1       6.472  -3.115  26.986  0.00  0.00    +0.147 A 
ATOM     33  C   UNL     1       7.703  -3.092  26.356  0.00  0.00    +0.109 A 
ATOM     34  C   UNL     1       8.359  -4.288  26.016  0.00  0.00    +0.135 A 
ATOM     35  C   UNL     1       7.820  -5.516  26.374  0.00  0.00    +0.091 A 
ATOM     36  C   UNL     1       6.606  -5.536  27.055  0.00  0.00    +0.124 A 
ATOM     37  C   UNL     1       8.310  -1.798  26.080  0.00  0.00    +0.238 A 
ATOM     38  O   UNL     1       9.434  -1.799  25.586  0.00  0.00    -0.283 OA
ATOM     39  C   UNL     1       5.923  -4.351  27.352  0.00  0.00    +0.092 A 
ATOM     40  C   UNL     1       7.543  -0.542  26.379  0.00  0.00    +0.214 A 
BRANCH  30  42
ATOM     41  C   UNL     1       5.015   0.849  28.436  0.00  0.00    +0.015 A 
ATOM     42  C   UNL     1       5.280   0.369  27.127  0.00  0.00    +0.025 A 
ATOM     43  C   UNL     1       4.583   0.976  26.073  0.00  0.00    +0.060 A 
ATOM     44  C   UNL     1       3.621   1.951  26.333  0.00  0.00    +0.159 A 
ATOM     45  C   UNL     1       3.323   2.363  27.633  0.00  0.00    +0.158 A 
ATOM     46  C   UNL     1       4.035   1.830  28.691  0.00  0.00    +0.050 A 
BRANCH  45  47
ATOM     47  O   UNL     1       2.329   3.284  27.803  0.00  0.00    -0.503 OA
ATOM     48  H   UNL     1       2.706   4.081  28.216  0.00  0.00    +0.292 HD
ENDBRANCH  45  47
BRANCH  44  49
ATOM     49  O   UNL     1       2.946   2.522  25.287  0.00  0.00    -0.503 OA
ATOM     50  H   UNL     1       2.155   2.935  25.691  0.00  0.00    +0.292 HD
ENDBRANCH  44  49
ENDBRANCH  30  42
BRANCH  36  51
ATOM     51  O   UNL     1       6.051  -6.722  27.451  0.00  0.00    -0.507 OA
ATOM     52  H   UNL     1       6.549  -7.449  27.032  0.00  0.00    +0.292 HD
ENDBRANCH  36  51
BRANCH  34  53
ATOM     53  O   UNL     1       9.540  -4.332  25.326  0.00  0.00    -0.506 OA
ATOM     54  H   UNL     1      10.275  -4.287  25.980  0.00  0.00    +0.292 HD
ENDBRANCH  34  53
ENDBRANCH  29  40
ENDBRANCH   1  29
TORSDOF 17
ENDMDL
MODEL 9
REMARK VINA RESULT:      -6.5      1.795      2.918
REMARK  Name = 
REMARK  17 active torsions:
REMARK  status: ('A' for Active; 'I' for Inactive)
REMARK    1  A    between atoms: C_3  and  O_47
REMARK    2  A    between atoms: C_4  and  O_46
REMARK    3  A    between atoms: C_6  and  C_7
REMARK    4  A    between atoms: C_8  and  O_20
REMARK    5  A    between atoms: C_12  and  O_19
REMARK    6  A    between atoms: C_14  and  O_18
REMARK    7  A    between atoms: O_20  and  C_21
REMARK    8  A    between atoms: C_23  and  O_34
REMARK    9  A    between atoms: C_25  and  O_33
REMARK   10  A    between atoms: C_26  and  O_32
REMARK   11  A    between atoms: C_28  and  C_30
REMARK   12  A    between atoms: C_30  and  O_31
REMARK   13  A    between atoms: O_34  and  C_35
REMARK   14  A    between atoms: C_35  and  C_37
REMARK   15  A    between atoms: C_39  and  O_45
REMARK   16  A    between atoms: C_40  and  O_44
REMARK   17  A    between atoms: C_41  and  O_43
REMARK                            x       y       z     vdW  Elec       q    Type
REMARK                         _______ _______ _______ _____ _____    ______ ____
ROOT
ATOM      1  C   UNL     1       6.126   1.442  25.171  0.00  0.00    +0.352 C 
ATOM      2  O   UNL     1       4.699   1.379  25.440  0.00  0.00    -0.330 OA
ATOM      3  C   UNL     1       4.033   2.447  26.126  0.00  0.00    +0.179 C 
ATOM      4  C   UNL     1       4.888   3.138  27.204  0.00  0.00    +0.178 C 
ATOM      5  C   UNL     1       6.385   3.131  26.906  0.00  0.00    +0.192 C 
ATOM      6  C   UNL     1       6.993   1.793  26.411  0.00  0.00    +0.276 C 
ENDROOT
BRANCH   5   7
ATOM      7  O   UNL     1       7.109   3.679  28.008  0.00  0.00    -0.385 OA
ATOM      8  H   UNL     1       6.460   4.184  28.533  0.00  0.00    +0.210 HD
ENDBRANCH   5   7
BRANCH   4   9
ATOM      9  O   UNL     1       4.705   2.584  28.507  0.00  0.00    -0.386 OA
ATOM     10  H   UNL     1       3.803   2.870  28.764  0.00  0.00    +0.210 HD
ENDBRANCH   4   9
BRANCH   6  11
ATOM     11  O   UNL     1       7.324   0.664  27.340  0.00  0.00    -0.449 OA
BRANCH  11  12
ATOM     12  C   UNL     1       6.345  -0.336  27.474  0.00  0.00    +0.340 C 
ATOM     13  O   UNL     1       5.377  -0.185  28.226  0.00  0.00    -0.245 OA
BRANCH  12  14
ATOM     14  C   UNL     1       6.430  -1.685  26.724  0.00  0.00    +0.066 A 
ATOM     15  C   UNL     1       7.556  -2.511  26.695  0.00  0.00    +0.064 A 
ATOM     16  C   UNL     1       7.517  -3.760  26.020  0.00  0.00    +0.163 A 
ATOM     17  C   UNL     1       6.368  -4.226  25.398  0.00  0.00    +0.201 A 
ATOM     18  C   UNL     1       5.228  -3.415  25.402  0.00  0.00    +0.163 A 
ATOM     19  C   UNL     1       5.254  -2.172  26.045  0.00  0.00    +0.064 A 
BRANCH  18  20
ATOM     20  O   UNL     1       4.132  -3.946  24.768  0.00  0.00    -0.503 OA
ATOM     21  H   UNL     1       3.355  -3.374  24.930  0.00  0.00    +0.292 HD
ENDBRANCH  18  20
BRANCH  17  22
ATOM     22  O   UNL     1       6.374  -5.441  24.794  0.00  0.00    -0.501 OA
ATOM     23  H   UNL     1       7.152  -5.927  25.171  0.00  0.00    +0.292 HD
ENDBRANCH  17  22
BRANCH  16  24
ATOM     24  O   UNL     1       8.602  -4.564  25.986  0.00  0.00    -0.503 OA
ATOM     25  H   UNL     1       8.265  -5.461  26.207  0.00  0.00    +0.292 HD
ENDBRANCH  16  24
ENDBRANCH  12  14
ENDBRANCH  11  12
ENDBRANCH   6  11
BRANCH   3  26
ATOM     26  C   UNL     1       2.727   1.896  26.786  0.00  0.00    +0.190 C 
BRANCH  26  27
ATOM     27  O   UNL     1       2.618   0.472  26.823  0.00  0.00    -0.392 OA
ATOM     28  H   UNL     1       2.597   0.138  25.912  0.00  0.00    +0.210 HD
ENDBRANCH  26  27
ENDBRANCH   3  26
BRANCH   1  29
ATOM     29  O   UNL     1       6.479   2.391  24.098  0.00  0.00    -0.452 OA
BRANCH  29  40
ATOM     30  C   UNL     1       8.804   1.696  23.654  0.00  0.00    +0.181 A 
ATOM     31  O   UNL     1      10.166   1.977  23.486  0.00  0.00    -0.451 OA
ATOM     32  C   UNL     1      10.612   3.273  23.527  0.00  0.00    +0.147 A 
ATOM     33  C   UNL     1       9.757   4.343  23.719  0.00  0.00    +0.109 A 
ATOM     34  C   UNL     1      10.238   5.663  23.672  0.00  0.00    +0.135 A 
ATOM     35  C   UNL     1      11.593   5.918  23.510  0.00  0.00    +0.091 A 
ATOM     36  C   UNL     1      12.459   4.837  23.370  0.00  0.00    +0.124 A 
ATOM     37  C   UNL     1       8.356   4.062  23.994  0.00  0.00    +0.238 A 
ATOM     38  O   UNL     1       7.628   5.022  24.232  0.00  0.00    -0.283 OA
ATOM     39  C   UNL     1      11.982   3.522  23.364  0.00  0.00    +0.092 A 
ATOM     40  C   UNL     1       7.862   2.645  23.951  0.00  0.00    +0.214 A 
BRANCH  30  42
ATOM     41  C   UNL     1       9.534  -0.728  23.556  0.00  0.00    +0.015 A 
ATOM     42  C   UNL     1       8.516   0.246  23.379  0.00  0.00    +0.025 A 
ATOM     43  C   UNL     1       7.256  -0.217  22.976  0.00  0.00    +0.060 A 
ATOM     44  C   UNL     1       7.058  -1.568  22.692  0.00  0.00    +0.159 A 
ATOM     45  C   UNL     1       8.089  -2.502  22.806  0.00  0.00    +0.158 A 
ATOM     46  C   UNL     1       9.328  -2.091  23.261  0.00  0.00    +0.050 A 
BRANCH  45  47
ATOM     47  O   UNL     1       7.824  -3.796  22.458  0.00  0.00    -0.503 OA
ATOM     48  H   UNL     1       8.088  -3.933  21.531  0.00  0.00    +0.292 HD
ENDBRANCH  45  47
BRANCH  44  49
ATOM     49  O   UNL     1       5.820  -1.993  22.291  0.00  0.00    -0.503 OA
ATOM     50  H   UNL     1       5.973  -2.874  21.890  0.00  0.00    +0.292 HD
ENDBRANCH  44  49
ENDBRANCH  30  42
BRANCH  36  51
ATOM     51  O   UNL     1      13.806   5.040  23.234  0.00  0.00    -0.507 OA
ATOM     52  H   UNL     1      13.951   5.970  22.976  0.00  0.00    +0.292 HD
ENDBRANCH  36  51
BRANCH  34  53
ATOM     53  O   UNL     1       9.432   6.764  23.778  0.00  0.00    -0.506 OA
ATOM     54  H   UNL     1       8.875   6.811  22.968  0.00  0.00    +0.292 HD
ENDBRANCH  34  53
ENDBRANCH  29  40
ENDBRANCH   1  29
TORSDOF 17
ENDMDL
