MODEL 1
REMARK VINA RESULT:      -7.4      0.000      0.000
REMARK  Name = 
REMARK  17 active torsions:
REMARK  status: ('A' for Active; 'I' for Inactive)
REMARK    1  A    between atoms: C_1  and  C_2
REMARK    2  A    between atoms: C_4  and  O_53
REMARK    3  A    between atoms: C_6  and  O_52
REMARK    4  A    between atoms: C_8  and  O_51
REMARK    5  A    between atoms: C_10  and  O_13
REMARK    6  A    between atoms: O_13  and  C_14
REMARK    7  A    between atoms: C_15  and  C_43
REMARK    8  A    between atoms: C_19  and  O_26
REMARK    9  A    between atoms: C_21  and  O_25
REMARK   10  A    between atoms: O_26  and  C_27
REMARK   11  A    between atoms: C_29  and  O_42
REMARK   12  A    between atoms: C_31  and  O_41
REMARK   13  A    between atoms: C_33  and  O_40
REMARK   14  A    between atoms: C_35  and  C_38
REMARK   15  A    between atoms: C_38  and  O_39
REMARK   16  A    between atoms: C_45  and  O_50
REMARK   17  A    between atoms: C_46  and  O_49
REMARK                            x       y       z     vdW  Elec       q    Type
REMARK                         _______ _______ _______ _____ _____    ______ ____
ROOT
ATOM      1  C   UNL     1       8.010  -1.926  24.443  0.00  0.00    +0.214 A 
ATOM      2  C   UNL     1       7.810  -3.017  23.428  0.00  0.00    +0.238 A 
ATOM      3  O   UNL     1       8.389  -3.025  22.348  0.00  0.00    -0.283 OA
ATOM      4  C   UNL     1       6.745  -3.999  23.670  0.00  0.00    +0.109 A 
ATOM      5  C   UNL     1       5.793  -3.674  24.623  0.00  0.00    +0.147 A 
ATOM      6  C   UNL     1       4.651  -4.474  24.763  0.00  0.00    +0.093 A 
ATOM      7  C   UNL     1       4.463  -5.593  23.941  0.00  0.00    +0.131 A 
ATOM      8  C   UNL     1       5.457  -5.956  23.031  0.00  0.00    +0.092 A 
ATOM      9  O   UNL     1       5.880  -2.564  25.423  0.00  0.00    -0.451 OA
ATOM     10  C   UNL     1       6.596  -5.162  22.899  0.00  0.00    +0.135 A 
ATOM     11  C   UNL     1       7.010  -1.760  25.336  0.00  0.00    +0.181 A 
ENDROOT
BRANCH  11  12
ATOM     12  C   UNL     1       6.930  -0.604  26.262  0.00  0.00    +0.025 A 
ATOM     13  C   UNL     1       5.874   0.314  26.109  0.00  0.00    +0.015 A 
ATOM     14  C   UNL     1       5.693   1.365  27.015  0.00  0.00    +0.050 A 
ATOM     15  C   UNL     1       6.568   1.495  28.080  0.00  0.00    +0.158 A 
ATOM     16  C   UNL     1       7.626   0.606  28.241  0.00  0.00    +0.159 A 
ATOM     17  C   UNL     1       7.819  -0.443  27.337  0.00  0.00    +0.060 A 
BRANCH  16  18
ATOM     18  O   UNL     1       8.443   0.796  29.323  0.00  0.00    -0.503 OA
ATOM     19  H   UNL     1       7.899   1.111  30.064  0.00  0.00    +0.292 HD
ENDBRANCH  16  18
BRANCH  15  20
ATOM     20  O   UNL     1       6.371   2.502  28.984  0.00  0.00    -0.503 OA
ATOM     21  H   UNL     1       5.537   2.268  29.437  0.00  0.00    +0.292 HD
ENDBRANCH  15  20
ENDBRANCH  11  12
BRANCH  10  22
ATOM     22  O   UNL     1       7.562  -5.535  22.005  0.00  0.00    -0.506 OA
ATOM     23  H   UNL     1       8.403  -5.696  22.458  0.00  0.00    +0.292 HD
ENDBRANCH  10  22
BRANCH   7  24
ATOM     24  O   UNL     1       3.344  -6.396  23.959  0.00  0.00    -0.461 OA
BRANCH  24  25
ATOM     25  C   UNL     1       3.355  -7.365  25.017  0.00  0.00    +0.339 C 
ATOM     26  O   UNL     1       2.888  -8.646  24.589  0.00  0.00    -0.331 OA
ATOM     27  C   UNL     1       1.472  -8.829  24.465  0.00  0.00    +0.179 C 
ATOM     28  C   UNL     1       0.750  -8.438  25.764  0.00  0.00    +0.177 C 
ATOM     29  C   UNL     1       1.092  -7.002  26.181  0.00  0.00    +0.180 C 
ATOM     30  C   UNL     1       2.616  -6.815  26.261  0.00  0.00    +0.214 C 
BRANCH  29  31
ATOM     31  O   UNL     1       0.443  -6.060  25.331  0.00  0.00    -0.386 OA
ATOM     32  H   UNL     1      -0.391  -6.439  24.996  0.00  0.00    +0.210 HD
ENDBRANCH  29  31
BRANCH  30  33
ATOM     33  O   UNL     1       3.097  -7.490  27.439  0.00  0.00    -0.383 OA
ATOM     34  H   UNL     1       3.733  -8.170  27.129  0.00  0.00    +0.210 HD
ENDBRANCH  30  33
BRANCH  28  35
ATOM     35  O   UNL     1       1.189  -9.344  26.797  0.00  0.00    -0.386 OA
ATOM     36  H   UNL     1       1.570 -10.128  26.359  0.00  0.00    +0.210 HD
ENDBRANCH  28  35
BRANCH  27  37
ATOM     37  C   UNL     1       0.865  -8.189  23.204  0.00  0.00    +0.190 C 
BRANCH  37  38
ATOM     38  O   UNL     1       1.746  -8.257  22.085  0.00  0.00    -0.392 OA
ATOM     39  H   UNL     1       1.278  -8.701  21.358  0.00  0.00    +0.210 HD
ENDBRANCH  37  38
ENDBRANCH  27  37
ENDBRANCH  24  25
ENDBRANCH   7  24
BRANCH   1  40
ATOM     40  O   UNL     1       9.093  -1.050  24.404  0.00  0.00    -0.453 OA
BRANCH  40  44
ATOM     41  C   UNL     1       7.003   2.639  23.367  0.00  0.00    +0.041 C 
ATOM     42  C   UNL     1       7.353   1.512  22.395  0.00  0.00    +0.150 C 
ATOM     43  O   UNL     1       7.642   0.262  23.045  0.00  0.00    -0.334 OA
ATOM     44  C   UNL     1       8.904   0.208  23.727  0.00  0.00    +0.339 C 
ATOM     45  C   UNL     1      10.067   0.430  22.731  0.00  0.00    +0.214 C 
ATOM     46  C   UNL     1       9.875   1.782  22.014  0.00  0.00    +0.180 C 
ATOM     47  C   UNL     1       8.467   1.881  21.400  0.00  0.00    +0.174 C 
BRANCH  47  48
ATOM     48  O   UNL     1       8.385   0.962  20.294  0.00  0.00    -0.387 OA
ATOM     49  H   UNL     1       9.301   0.645  20.135  0.00  0.00    +0.210 HD
ENDBRANCH  47  48
BRANCH  46  50
ATOM     50  O   UNL     1      10.188   2.898  22.851  0.00  0.00    -0.386 OA
ATOM     51  H   UNL     1      11.005   3.336  22.562  0.00  0.00    +0.210 HD
ENDBRANCH  46  50
BRANCH  45  52
ATOM     52  O   UNL     1      10.104  -0.628  21.757  0.00  0.00    -0.383 OA
ATOM     53  H   UNL     1      10.739  -1.292  22.079  0.00  0.00    +0.210 HD
ENDBRANCH  45  52
ENDBRANCH  40  44
ENDBRANCH   1  40
TORSDOF 16
ENDMDL
MODEL 2
REMARK VINA RESULT:      -7.3      2.724      9.463
REMARK  Name = 
REMARK  17 active torsions:
REMARK  status: ('A' for Active; 'I' for Inactive)
REMARK    1  A    between atoms: C_1  and  C_2
REMARK    2  A    between atoms: C_4  and  O_53
REMARK    3  A    between atoms: C_6  and  O_52
REMARK    4  A    between atoms: C_8  and  O_51
REMARK    5  A    between atoms: C_10  and  O_13
REMARK    6  A    between atoms: O_13  and  C_14
REMARK    7  A    between atoms: C_15  and  C_43
REMARK    8  A    between atoms: C_19  and  O_26
REMARK    9  A    between atoms: C_21  and  O_25
REMARK   10  A    between atoms: O_26  and  C_27
REMARK   11  A    between atoms: C_29  and  O_42
REMARK   12  A    between atoms: C_31  and  O_41
REMARK   13  A    between atoms: C_33  and  O_40
REMARK   14  A    between atoms: C_35  and  C_38
REMARK   15  A    between atoms: C_38  and  O_39
REMARK   16  A    between atoms: C_45  and  O_50
REMARK   17  A    between atoms: C_46  and  O_49
REMARK                            x       y       z     vdW  Elec       q    Type
REMARK                         _______ _______ _______ _____ _____    ______ ____
ROOT
ATOM      1  C   UNL     1       7.747  -2.749  23.729  0.00  0.00    +0.214 A 
ATOM      2  C   UNL     1       8.453  -1.846  22.757  0.00  0.00    +0.238 A 
ATOM      3  O   UNL     1       9.105  -2.277  21.813  0.00  0.00    -0.283 OA
ATOM      4  C   UNL     1       8.511  -0.411  23.063  0.00  0.00    +0.109 A 
ATOM      5  C   UNL     1       8.214  -0.032  24.363  0.00  0.00    +0.147 A 
ATOM      6  C   UNL     1       8.437   1.291  24.767  0.00  0.00    +0.093 A 
ATOM      7  C   UNL     1       8.966   2.228  23.869  0.00  0.00    +0.131 A 
ATOM      8  C   UNL     1       9.199   1.860  22.543  0.00  0.00    +0.092 A 
ATOM      9  O   UNL     1       7.749  -0.905  25.312  0.00  0.00    -0.451 OA
ATOM     10  C   UNL     1       8.968   0.544  22.142  0.00  0.00    +0.135 A 
ATOM     11  C   UNL     1       7.486  -2.219  24.945  0.00  0.00    +0.181 A 
ENDROOT
BRANCH  11  12
ATOM     12  C   UNL     1       7.001  -3.021  26.094  0.00  0.00    +0.025 A 
ATOM     13  C   UNL     1       5.799  -2.643  26.724  0.00  0.00    +0.015 A 
ATOM     14  C   UNL     1       5.243  -3.420  27.746  0.00  0.00    +0.050 A 
ATOM     15  C   UNL     1       5.888  -4.581  28.136  0.00  0.00    +0.158 A 
ATOM     16  C   UNL     1       7.084  -4.964  27.536  0.00  0.00    +0.159 A 
ATOM     17  C   UNL     1       7.650  -4.190  26.519  0.00  0.00    +0.060 A 
BRANCH  16  18
ATOM     18  O   UNL     1       7.656  -6.129  27.972  0.00  0.00    -0.503 OA
ATOM     19  H   UNL     1       6.975  -6.822  27.972  0.00  0.00    +0.292 HD
ENDBRANCH  16  18
BRANCH  15  20
ATOM     20  O   UNL     1       5.327  -5.358  29.112  0.00  0.00    -0.503 OA
ATOM     21  H   UNL     1       6.088  -5.733  29.597  0.00  0.00    +0.292 HD
ENDBRANCH  15  20
ENDBRANCH  11  12
BRANCH  10  22
ATOM     22  O   UNL     1       9.198   0.201  20.838  0.00  0.00    -0.506 OA
ATOM     23  H   UNL     1       8.483  -0.360  20.501  0.00  0.00    +0.292 HD
ENDBRANCH  10  22
BRANCH   7  24
ATOM     24  O   UNL     1       9.283   3.528  24.195  0.00  0.00    -0.461 OA
BRANCH  24  25
ATOM     25  C   UNL     1       8.337   4.140  25.084  0.00  0.00    +0.339 C 
ATOM     26  O   UNL     1       7.026   4.214  24.520  0.00  0.00    -0.331 OA
ATOM     27  C   UNL     1       6.771   5.253  23.567  0.00  0.00    +0.179 C 
ATOM     28  C   UNL     1       7.151   6.629  24.136  0.00  0.00    +0.177 C 
ATOM     29  C   UNL     1       8.611   6.652  24.609  0.00  0.00    +0.180 C 
ATOM     30  C   UNL     1       8.874   5.500  25.592  0.00  0.00    +0.214 C 
BRANCH  29  31
ATOM     31  O   UNL     1       9.502   6.671  23.497  0.00  0.00    -0.386 OA
ATOM     32  H   UNL     1      10.076   7.459  23.549  0.00  0.00    +0.210 HD
ENDBRANCH  29  31
BRANCH  30  33
ATOM     33  O   UNL     1       8.248   5.821  26.849  0.00  0.00    -0.383 OA
ATOM     34  H   UNL     1       7.579   6.513  26.657  0.00  0.00    +0.210 HD
ENDBRANCH  30  33
BRANCH  28  35
ATOM     35  O   UNL     1       6.290   6.889  25.264  0.00  0.00    -0.386 OA
ATOM     36  H   UNL     1       5.400   7.089  24.915  0.00  0.00    +0.210 HD
ENDBRANCH  28  35
BRANCH  27  37
ATOM     37  C   UNL     1       7.354   4.980  22.169  0.00  0.00    +0.190 C 
BRANCH  37  38
ATOM     38  O   UNL     1       7.490   6.170  21.397  0.00  0.00    -0.392 OA
ATOM     39  H   UNL     1       7.162   6.915  21.928  0.00  0.00    +0.210 HD
ENDBRANCH  37  38
ENDBRANCH  27  37
ENDBRANCH  24  25
ENDBRANCH   7  24
BRANCH   1  40
ATOM     40  O   UNL     1       7.482  -4.090  23.457  0.00  0.00    -0.453 OA
BRANCH  40  44
ATOM     41  C   UNL     1       4.656  -6.650  25.579  0.00  0.00    +0.041 C 
ATOM     42  C   UNL     1       4.855  -6.609  24.064  0.00  0.00    +0.150 C 
ATOM     43  O   UNL     1       6.103  -6.021  23.664  0.00  0.00    -0.334 OA
ATOM     44  C   UNL     1       6.183  -4.596  23.819  0.00  0.00    +0.339 C 
ATOM     45  C   UNL     1       5.106  -3.897  22.954  0.00  0.00    +0.214 C 
ATOM     46  C   UNL     1       3.712  -4.427  23.347  0.00  0.00    +0.180 C 
ATOM     47  C   UNL     1       3.680  -5.966  23.306  0.00  0.00    +0.174 C 
BRANCH  47  48
ATOM     48  O   UNL     1       3.764  -6.389  21.932  0.00  0.00    -0.387 OA
ATOM     49  H   UNL     1       3.153  -5.806  21.430  0.00  0.00    +0.210 HD
ENDBRANCH  47  48
BRANCH  46  50
ATOM     50  O   UNL     1       3.256  -3.902  24.596  0.00  0.00    -0.386 OA
ATOM     51  H   UNL     1       2.472  -4.379  24.913  0.00  0.00    +0.210 HD
ENDBRANCH  46  50
BRANCH  45  52
ATOM     52  O   UNL     1       5.339  -4.153  21.557  0.00  0.00    -0.383 OA
ATOM     53  H   UNL     1       4.658  -4.786  21.265  0.00  0.00    +0.210 HD
ENDBRANCH  45  52
ENDBRANCH  40  44
ENDBRANCH   1  40
TORSDOF 16
ENDMDL
MODEL 3
REMARK VINA RESULT:      -7.0      1.950      9.266
REMARK  Name = 
REMARK  17 active torsions:
REMARK  status: ('A' for Active; 'I' for Inactive)
REMARK    1  A    between atoms: C_1  and  C_2
REMARK    2  A    between atoms: C_4  and  O_53
REMARK    3  A    between atoms: C_6  and  O_52
REMARK    4  A    between atoms: C_8  and  O_51
REMARK    5  A    between atoms: C_10  and  O_13
REMARK    6  A    between atoms: O_13  and  C_14
REMARK    7  A    between atoms: C_15  and  C_43
REMARK    8  A    between atoms: C_19  and  O_26
REMARK    9  A    between atoms: C_21  and  O_25
REMARK   10  A    between atoms: O_26  and  C_27
REMARK   11  A    between atoms: C_29  and  O_42
REMARK   12  A    between atoms: C_31  and  O_41
REMARK   13  A    between atoms: C_33  and  O_40
REMARK   14  A    between atoms: C_35  and  C_38
REMARK   15  A    between atoms: C_38  and  O_39
REMARK   16  A    between atoms: C_45  and  O_50
REMARK   17  A    between atoms: C_46  and  O_49
REMARK                            x       y       z     vdW  Elec       q    Type
REMARK                         _______ _______ _______ _____ _____    ______ ____
ROOT
ATOM      1  C   UNL     1       5.482  -5.394  25.059  0.00  0.00    +0.214 A 
ATOM      2  C   UNL     1       6.451  -4.870  24.036  0.00  0.00    +0.238 A 
ATOM      3  O   UNL     1       7.045  -5.604  23.255  0.00  0.00    -0.283 OA
ATOM      4  C   UNL     1       6.832  -3.454  24.108  0.00  0.00    +0.109 A 
ATOM      5  C   UNL     1       6.545  -2.784  25.286  0.00  0.00    +0.147 A 
ATOM      6  C   UNL     1       7.052  -1.493  25.491  0.00  0.00    +0.093 A 
ATOM      7  C   UNL     1       7.852  -0.882  24.517  0.00  0.00    +0.131 A 
ATOM      8  C   UNL     1       8.081  -1.532  23.303  0.00  0.00    +0.092 A 
ATOM      9  O   UNL     1       5.818  -3.337  26.308  0.00  0.00    -0.451 OA
ATOM     10  C   UNL     1       7.569  -2.814  23.100  0.00  0.00    +0.135 A 
ATOM     11  C   UNL     1       5.272  -4.603  26.134  0.00  0.00    +0.181 A 
ENDROOT
BRANCH  11  12
ATOM     12  C   UNL     1       4.529  -5.048  27.338  0.00  0.00    +0.025 A 
ATOM     13  C   UNL     1       3.166  -4.713  27.454  0.00  0.00    +0.015 A 
ATOM     14  C   UNL     1       2.392  -5.190  28.517  0.00  0.00    +0.050 A 
ATOM     15  C   UNL     1       2.981  -6.011  29.464  0.00  0.00    +0.158 A 
ATOM     16  C   UNL     1       4.330  -6.342  29.375  0.00  0.00    +0.159 A 
ATOM     17  C   UNL     1       5.112  -5.863  28.320  0.00  0.00    +0.060 A 
BRANCH  16  18
ATOM     18  O   UNL     1       4.837  -7.163  30.346  0.00  0.00    -0.503 OA
ATOM     19  H   UNL     1       4.944  -8.052  29.968  0.00  0.00    +0.292 HD
ENDBRANCH  16  18
BRANCH  15  20
ATOM     20  O   UNL     1       2.216  -6.504  30.485  0.00  0.00    -0.503 OA
ATOM     21  H   UNL     1       2.860  -6.882  31.116  0.00  0.00    +0.292 HD
ENDBRANCH  15  20
ENDBRANCH  11  12
BRANCH  10  22
ATOM     22  O   UNL     1       7.800  -3.435  21.904  0.00  0.00    -0.506 OA
ATOM     23  H   UNL     1       8.751  -3.508  21.734  0.00  0.00    +0.292 HD
ENDBRANCH  10  22
BRANCH   7  24
ATOM     24  O   UNL     1       8.450   0.351  24.658  0.00  0.00    -0.461 OA
BRANCH  24  25
ATOM     25  C   UNL     1       7.520   1.443  24.613  0.00  0.00    +0.339 C 
ATOM     26  O   UNL     1       6.998   1.663  23.301  0.00  0.00    -0.331 OA
ATOM     27  C   UNL     1       7.829   2.359  22.364  0.00  0.00    +0.179 C 
ATOM     28  C   UNL     1       8.311   3.698  22.944  0.00  0.00    +0.177 C 
ATOM     29  C   UNL     1       9.030   3.498  24.284  0.00  0.00    +0.180 C 
ATOM     30  C   UNL     1       8.141   2.707  25.257  0.00  0.00    +0.214 C 
BRANCH  29  31
ATOM     31  O   UNL     1      10.318   2.919  24.087  0.00  0.00    -0.386 OA
ATOM     32  H   UNL     1      10.447   2.183  24.713  0.00  0.00    +0.210 HD
ENDBRANCH  29  31
BRANCH  30  33
ATOM     33  O   UNL     1       7.087   3.574  25.719  0.00  0.00    -0.383 OA
ATOM     34  H   UNL     1       6.244   3.171  25.418  0.00  0.00    +0.210 HD
ENDBRANCH  30  33
BRANCH  28  35
ATOM     35  O   UNL     1       7.150   4.527  23.154  0.00  0.00    -0.386 OA
ATOM     36  H   UNL     1       7.337   5.401  22.762  0.00  0.00    +0.210 HD
ENDBRANCH  28  35
BRANCH  27  37
ATOM     37  C   UNL     1       8.958   1.501  21.768  0.00  0.00    +0.190 C 
BRANCH  37  38
ATOM     38  O   UNL     1      10.120   2.268  21.466  0.00  0.00    -0.392 OA
ATOM     39  H   UNL     1      10.081   2.521  20.529  0.00  0.00    +0.210 HD
ENDBRANCH  37  38
ENDBRANCH  27  37
ENDBRANCH  24  25
ENDBRANCH   7  24
BRANCH   1  40
ATOM     40  O   UNL     1       4.921  -6.668  24.982  0.00  0.00    -0.453 OA
BRANCH  40  44
ATOM     41  C   UNL     1       0.818  -8.099  25.383  0.00  0.00    +0.041 C 
ATOM     42  C   UNL     1       1.713  -8.295  24.159  0.00  0.00    +0.150 C 
ATOM     43  O   UNL     1       3.112  -8.117  24.435  0.00  0.00    -0.334 OA
ATOM     44  C   UNL     1       3.522  -6.759  24.650  0.00  0.00    +0.339 C 
ATOM     45  C   UNL     1       3.243  -5.904  23.390  0.00  0.00    +0.214 C 
ATOM     46  C   UNL     1       1.744  -5.988  23.038  0.00  0.00    +0.180 C 
ATOM     47  C   UNL     1       1.284  -7.455  22.943  0.00  0.00    +0.174 C 
BRANCH  47  48
ATOM     48  O   UNL     1       1.882  -8.046  21.773  0.00  0.00    -0.387 OA
ATOM     49  H   UNL     1       1.749  -7.401  21.044  0.00  0.00    +0.210 HD
ENDBRANCH  47  48
BRANCH  46  50
ATOM     50  O   UNL     1       0.928  -5.214  23.919  0.00  0.00    -0.386 OA
ATOM     51  H   UNL     1      -0.014  -5.409  23.789  0.00  0.00    +0.210 HD
ENDBRANCH  46  50
BRANCH  45  52
ATOM     52  O   UNL     1       4.023  -6.378  22.277  0.00  0.00    -0.383 OA
ATOM     53  H   UNL     1       4.871  -6.697  22.637  0.00  0.00    +0.210 HD
ENDBRANCH  45  52
ENDBRANCH  40  44
ENDBRANCH   1  40
TORSDOF 16
ENDMDL
MODEL 4
REMARK VINA RESULT:      -7.0      2.383      9.581
REMARK  Name = 
REMARK  17 active torsions:
REMARK  status: ('A' for Active; 'I' for Inactive)
REMARK    1  A    between atoms: C_1  and  C_2
REMARK    2  A    between atoms: C_4  and  O_53
REMARK    3  A    between atoms: C_6  and  O_52
REMARK    4  A    between atoms: C_8  and  O_51
REMARK    5  A    between atoms: C_10  and  O_13
REMARK    6  A    between atoms: O_13  and  C_14
REMARK    7  A    between atoms: C_15  and  C_43
REMARK    8  A    between atoms: C_19  and  O_26
REMARK    9  A    between atoms: C_21  and  O_25
REMARK   10  A    between atoms: O_26  and  C_27
REMARK   11  A    between atoms: C_29  and  O_42
REMARK   12  A    between atoms: C_31  and  O_41
REMARK   13  A    between atoms: C_33  and  O_40
REMARK   14  A    between atoms: C_35  and  C_38
REMARK   15  A    between atoms: C_38  and  O_39
REMARK   16  A    between atoms: C_45  and  O_50
REMARK   17  A    between atoms: C_46  and  O_49
REMARK                            x       y       z     vdW  Elec       q    Type
REMARK                         _______ _______ _______ _____ _____    ______ ____
ROOT
ATOM      1  C   UNL     1       5.997  -5.479  25.675  0.00  0.00    +0.214 A 
ATOM      2  C   UNL     1       7.130  -4.571  26.064  0.00  0.00    +0.238 A 
ATOM      3  O   UNL     1       7.623  -4.578  27.186  0.00  0.00    -0.283 OA
ATOM      4  C   UNL     1       7.526  -3.518  25.121  0.00  0.00    +0.109 A 
ATOM      5  C   UNL     1       6.636  -3.217  24.104  0.00  0.00    +0.147 A 
ATOM      6  C   UNL     1       6.865  -2.097  23.291  0.00  0.00    +0.093 A 
ATOM      7  C   UNL     1       7.982  -1.280  23.507  0.00  0.00    +0.131 A 
ATOM      8  C   UNL     1       8.913  -1.626  24.488  0.00  0.00    +0.092 A 
ATOM      9  O   UNL     1       5.493  -3.935  23.868  0.00  0.00    -0.451 OA
ATOM     10  C   UNL     1       8.686  -2.745  25.290  0.00  0.00    +0.135 A 
ATOM     11  C   UNL     1       5.243  -5.069  24.632  0.00  0.00    +0.181 A 
ENDROOT
BRANCH  11  12
ATOM     12  C   UNL     1       3.964  -5.714  24.249  0.00  0.00    +0.025 A 
ATOM     13  C   UNL     1       2.942  -4.918  23.699  0.00  0.00    +0.015 A 
ATOM     14  C   UNL     1       1.754  -5.488  23.228  0.00  0.00    +0.050 A 
ATOM     15  C   UNL     1       1.590  -6.861  23.303  0.00  0.00    +0.158 A 
ATOM     16  C   UNL     1       2.582  -7.664  23.857  0.00  0.00    +0.159 A 
ATOM     17  C   UNL     1       3.769  -7.102  24.336  0.00  0.00    +0.060 A 
BRANCH  16  18
ATOM     18  O   UNL     1       2.349  -9.013  23.889  0.00  0.00    -0.503 OA
ATOM     19  H   UNL     1       1.403  -9.155  24.059  0.00  0.00    +0.292 HD
ENDBRANCH  16  18
BRANCH  15  20
ATOM     20  O   UNL     1       0.444  -7.422  22.813  0.00  0.00    -0.503 OA
ATOM     21  H   UNL     1       0.709  -7.824  21.962  0.00  0.00    +0.292 HD
ENDBRANCH  15  20
ENDBRANCH  11  12
BRANCH  10  22
ATOM     22  O   UNL     1       9.609  -3.072  26.244  0.00  0.00    -0.506 OA
ATOM     23  H   UNL     1       9.546  -4.012  26.473  0.00  0.00    +0.292 HD
ENDBRANCH  10  22
BRANCH   7  24
ATOM     24  O   UNL     1       8.251  -0.125  22.807  0.00  0.00    -0.461 OA
BRANCH  24  25
ATOM     25  C   UNL     1       7.131   0.769  22.732  0.00  0.00    +0.339 C 
ATOM     26  O   UNL     1       7.430   1.960  22.001  0.00  0.00    -0.331 OA
ATOM     27  C   UNL     1       8.175   2.983  22.674  0.00  0.00    +0.179 C 
ATOM     28  C   UNL     1       7.509   3.365  24.005  0.00  0.00    +0.177 C 
ATOM     29  C   UNL     1       7.313   2.136  24.903  0.00  0.00    +0.180 C 
ATOM     30  C   UNL     1       6.556   1.034  24.145  0.00  0.00    +0.214 C 
BRANCH  29  31
ATOM     31  O   UNL     1       8.558   1.705  25.448  0.00  0.00    -0.386 OA
ATOM     32  H   UNL     1       9.232   1.671  24.744  0.00  0.00    +0.210 HD
ENDBRANCH  29  31
BRANCH  30  33
ATOM     33  O   UNL     1       5.174   1.425  24.032  0.00  0.00    -0.383 OA
ATOM     34  H   UNL     1       5.174   2.360  23.733  0.00  0.00    +0.210 HD
ENDBRANCH  30  33
BRANCH  28  35
ATOM     35  O   UNL     1       6.219   3.933  23.701  0.00  0.00    -0.386 OA
ATOM     36  H   UNL     1       6.118   3.934  22.730  0.00  0.00    +0.210 HD
ENDBRANCH  28  35
BRANCH  27  37
ATOM     37  C   UNL     1       9.679   2.685  22.798  0.00  0.00    +0.190 C 
BRANCH  37  38
ATOM     38  O   UNL     1      10.213   2.088  21.619  0.00  0.00    -0.392 OA
ATOM     39  H   UNL     1      10.542   1.204  21.849  0.00  0.00    +0.210 HD
ENDBRANCH  37  38
ENDBRANCH  27  37
ENDBRANCH  24  25
ENDBRANCH   7  24
BRANCH   1  40
ATOM     40  O   UNL     1       5.653  -6.613  26.410  0.00  0.00    -0.453 OA
BRANCH  40  44
ATOM     41  C   UNL     1       1.959  -5.282  28.316  0.00  0.00    +0.041 C 
ATOM     42  C   UNL     1       3.368  -4.823  28.690  0.00  0.00    +0.150 C 
ATOM     43  O   UNL     1       4.344  -5.067  27.663  0.00  0.00    -0.334 OA
ATOM     44  C   UNL     1       4.722  -6.441  27.496  0.00  0.00    +0.339 C 
ATOM     45  C   UNL     1       5.353  -6.991  28.798  0.00  0.00    +0.214 C 
ATOM     46  C   UNL     1       4.354  -6.821  29.961  0.00  0.00    +0.180 C 
ATOM     47  C   UNL     1       3.853  -5.367  30.045  0.00  0.00    +0.174 C 
BRANCH  47  48
ATOM     48  O   UNL     1       4.941  -4.533  30.485  0.00  0.00    -0.387 OA
ATOM     49  H   UNL     1       5.652  -4.638  29.815  0.00  0.00    +0.210 HD
ENDBRANCH  47  48
BRANCH  46  50
ATOM     50  O   UNL     1       3.285  -7.767  29.910  0.00  0.00    -0.386 OA
ATOM     51  H   UNL     1       2.621  -7.585  30.594  0.00  0.00    +0.210 HD
ENDBRANCH  46  50
BRANCH  45  52
ATOM     52  O   UNL     1       6.569  -6.285  29.105  0.00  0.00    -0.383 OA
ATOM     53  H   UNL     1       6.652  -6.265  30.075  0.00  0.00    +0.210 HD
ENDBRANCH  45  52
ENDBRANCH  40  44
ENDBRANCH   1  40
TORSDOF 16
ENDMDL
MODEL 5
REMARK VINA RESULT:      -6.9      2.893      9.970
REMARK  Name = 
REMARK  17 active torsions:
REMARK  status: ('A' for Active; 'I' for Inactive)
REMARK    1  A    between atoms: C_1  and  C_2
REMARK    2  A    between atoms: C_4  and  O_53
REMARK    3  A    between atoms: C_6  and  O_52
REMARK    4  A    between atoms: C_8  and  O_51
REMARK    5  A    between atoms: C_10  and  O_13
REMARK    6  A    between atoms: O_13  and  C_14
REMARK    7  A    between atoms: C_15  and  C_43
REMARK    8  A    between atoms: C_19  and  O_26
REMARK    9  A    between atoms: C_21  and  O_25
REMARK   10  A    between atoms: O_26  and  C_27
REMARK   11  A    between atoms: C_29  and  O_42
REMARK   12  A    between atoms: C_31  and  O_41
REMARK   13  A    between atoms: C_33  and  O_40
REMARK   14  A    between atoms: C_35  and  C_38
REMARK   15  A    between atoms: C_38  and  O_39
REMARK   16  A    between atoms: C_45  and  O_50
REMARK   17  A    between atoms: C_46  and  O_49
REMARK                            x       y       z     vdW  Elec       q    Type
REMARK                         _______ _______ _______ _____ _____    ______ ____
ROOT
ATOM      1  C   UNL     1       7.091  -3.303  25.270  0.00  0.00    +0.214 A 
ATOM      2  C   UNL     1       7.925  -2.165  25.786  0.00  0.00    +0.238 A 
ATOM      3  O   UNL     1       8.442  -2.179  26.898  0.00  0.00    -0.283 OA
ATOM      4  C   UNL     1       7.961  -0.924  25.003  0.00  0.00    +0.109 A 
ATOM      5  C   UNL     1       6.983  -0.762  24.035  0.00  0.00    +0.147 A 
ATOM      6  C   UNL     1       6.845   0.475  23.389  0.00  0.00    +0.093 A 
ATOM      7  C   UNL     1       7.683   1.547  23.722  0.00  0.00    +0.131 A 
ATOM      8  C   UNL     1       8.712   1.359  24.647  0.00  0.00    +0.092 A 
ATOM      9  O   UNL     1       6.090  -1.745  23.697  0.00  0.00    -0.451 OA
ATOM     10  C   UNL     1       8.851   0.125  25.282  0.00  0.00    +0.135 A 
ATOM     11  C   UNL     1       6.210  -2.995  24.292  0.00  0.00    +0.181 A 
ENDROOT
BRANCH  11  12
ATOM     12  C   UNL     1       5.161  -3.929  23.819  0.00  0.00    +0.025 A 
ATOM     13  C   UNL     1       5.529  -4.984  22.962  0.00  0.00    +0.015 A 
ATOM     14  C   UNL     1       4.600  -5.952  22.566  0.00  0.00    +0.050 A 
ATOM     15  C   UNL     1       3.300  -5.869  23.033  0.00  0.00    +0.158 A 
ATOM     16  C   UNL     1       2.912  -4.826  23.869  0.00  0.00    +0.159 A 
ATOM     17  C   UNL     1       3.832  -3.850  24.264  0.00  0.00    +0.060 A 
BRANCH  16  18
ATOM     18  O   UNL     1       1.610  -4.818  24.294  0.00  0.00    -0.503 OA
ATOM     19  H   UNL     1       1.062  -4.434  23.590  0.00  0.00    +0.292 HD
ENDBRANCH  16  18
BRANCH  15  20
ATOM     20  O   UNL     1       2.401  -6.834  22.673  0.00  0.00    -0.503 OA
ATOM     21  H   UNL     1       2.916  -7.665  22.674  0.00  0.00    +0.292 HD
ENDBRANCH  15  20
ENDBRANCH  11  12
BRANCH  10  22
ATOM     22  O   UNL     1       9.866  -0.043  26.183  0.00  0.00    -0.506 OA
ATOM     23  H   UNL     1      10.717   0.203  25.789  0.00  0.00    +0.292 HD
ENDBRANCH  10  22
BRANCH   7  24
ATOM     24  O   UNL     1       7.578   2.814  23.193  0.00  0.00    -0.461 OA
BRANCH  24  25
ATOM     25  C   UNL     1       7.758   3.854  24.165  0.00  0.00    +0.339 C 
ATOM     26  O   UNL     1       6.528   4.250  24.776  0.00  0.00    -0.331 OA
ATOM     27  C   UNL     1       5.669   5.123  24.032  0.00  0.00    +0.179 C 
ATOM     28  C   UNL     1       6.425   6.377  23.567  0.00  0.00    +0.177 C 
ATOM     29  C   UNL     1       7.676   6.005  22.759  0.00  0.00    +0.180 C 
ATOM     30  C   UNL     1       8.558   5.031  23.555  0.00  0.00    +0.214 C 
BRANCH  29  31
ATOM     31  O   UNL     1       7.319   5.527  21.464  0.00  0.00    -0.386 OA
ATOM     32  H   UNL     1       8.105   5.524  20.887  0.00  0.00    +0.210 HD
ENDBRANCH  29  31
BRANCH  30  33
ATOM     33  O   UNL     1       9.209   5.764  24.611  0.00  0.00    -0.383 OA
ATOM     34  H   UNL     1       9.788   6.424  24.175  0.00  0.00    +0.210 HD
ENDBRANCH  30  33
BRANCH  28  35
ATOM     35  O   UNL     1       6.828   7.107  24.743  0.00  0.00    -0.386 OA
ATOM     36  H   UNL     1       6.135   6.981  25.419  0.00  0.00    +0.210 HD
ENDBRANCH  28  35
BRANCH  27  37
ATOM     37  C   UNL     1       4.883   4.423  22.910  0.00  0.00    +0.190 C 
BRANCH  37  38
ATOM     38  O   UNL     1       4.343   5.347  21.969  0.00  0.00    -0.392 OA
ATOM     39  H   UNL     1       3.826   4.847  21.316  0.00  0.00    +0.210 HD
ENDBRANCH  37  38
ENDBRANCH  27  37
ENDBRANCH  24  25
ENDBRANCH   7  24
BRANCH   1  40
ATOM     40  O   UNL     1       7.120  -4.577  25.836  0.00  0.00    -0.453 OA
BRANCH  40  44
ATOM     41  C   UNL     1       3.363  -3.986  27.976  0.00  0.00    +0.041 C 
ATOM     42  C   UNL     1       4.737  -4.154  28.623  0.00  0.00    +0.150 C 
ATOM     43  O   UNL     1       5.830  -3.906  27.723  0.00  0.00    -0.334 OA
ATOM     44  C   UNL     1       6.051  -4.926  26.738  0.00  0.00    +0.339 C 
ATOM     45  C   UNL     1       6.383  -6.275  27.420  0.00  0.00    +0.214 C 
ATOM     46  C   UNL     1       5.235  -6.659  28.377  0.00  0.00    +0.180 C 
ATOM     47  C   UNL     1       4.917  -5.503  29.343  0.00  0.00    +0.174 C 
BRANCH  47  48
ATOM     48  O   UNL     1       6.015  -5.361  30.264  0.00  0.00    -0.387 OA
ATOM     49  H   UNL     1       5.654  -5.570  31.153  0.00  0.00    +0.210 HD
ENDBRANCH  47  48
BRANCH  46  50
ATOM     50  O   UNL     1       4.077  -7.129  27.685  0.00  0.00    -0.386 OA
ATOM     51  H   UNL     1       4.320  -7.603  26.873  0.00  0.00    +0.210 HD
ENDBRANCH  46  50
BRANCH  45  52
ATOM     52  O   UNL     1       7.611  -6.174  28.163  0.00  0.00    -0.383 OA
ATOM     53  H   UNL     1       7.608  -5.306  28.606  0.00  0.00    +0.210 HD
ENDBRANCH  45  52
ENDBRANCH  40  44
ENDBRANCH   1  40
TORSDOF 16
ENDMDL
MODEL 6
REMARK VINA RESULT:      -6.9      0.943      1.361
REMARK  Name = 
REMARK  17 active torsions:
REMARK  status: ('A' for Active; 'I' for Inactive)
REMARK    1  A    between atoms: C_1  and  C_2
REMARK    2  A    between atoms: C_4  and  O_53
REMARK    3  A    between atoms: C_6  and  O_52
REMARK    4  A    between atoms: C_8  and  O_51
REMARK    5  A    between atoms: C_10  and  O_13
REMARK    6  A    between atoms: O_13  and  C_14
REMARK    7  A    between atoms: C_15  and  C_43
REMARK    8  A    between atoms: C_19  and  O_26
REMARK    9  A    between atoms: C_21  and  O_25
REMARK   10  A    between atoms: O_26  and  C_27
REMARK   11  A    between atoms: C_29  and  O_42
REMARK   12  A    between atoms: C_31  and  O_41
REMARK   13  A    between atoms: C_33  and  O_40
REMARK   14  A    between atoms: C_35  and  C_38
REMARK   15  A    between atoms: C_38  and  O_39
REMARK   16  A    between atoms: C_45  and  O_50
REMARK   17  A    between atoms: C_46  and  O_49
REMARK                            x       y       z     vdW  Elec       q    Type
REMARK                         _______ _______ _______ _____ _____    ______ ____
ROOT
ATOM      1  C   UNL     1       7.783  -1.408  25.133  0.00  0.00    +0.214 A 
ATOM      2  C   UNL     1       7.827  -2.639  24.272  0.00  0.00    +0.238 A 
ATOM      3  O   UNL     1       8.620  -2.767  23.346  0.00  0.00    -0.283 OA
ATOM      4  C   UNL     1       6.760  -3.634  24.434  0.00  0.00    +0.109 A 
ATOM      5  C   UNL     1       5.622  -3.231  25.114  0.00  0.00    +0.147 A 
ATOM      6  C   UNL     1       4.496  -4.066  25.135  0.00  0.00    +0.093 A 
ATOM      7  C   UNL     1       4.511  -5.297  24.468  0.00  0.00    +0.131 A 
ATOM      8  C   UNL     1       5.682  -5.729  23.844  0.00  0.00    +0.092 A 
ATOM      9  O   UNL     1       5.512  -2.017  25.741  0.00  0.00    -0.451 OA
ATOM     10  C   UNL     1       6.804  -4.900  23.831  0.00  0.00    +0.135 A 
ATOM     11  C   UNL     1       6.614  -1.173  25.769  0.00  0.00    +0.181 A 
ENDROOT
BRANCH  11  12
ATOM     12  C   UNL     1       6.314   0.095  26.477  0.00  0.00    +0.025 A 
ATOM     13  C   UNL     1       6.983   0.370  27.685  0.00  0.00    +0.015 A 
ATOM     14  C   UNL     1       6.815   1.594  28.343  0.00  0.00    +0.050 A 
ATOM     15  C   UNL     1       5.979   2.547  27.787  0.00  0.00    +0.158 A 
ATOM     16  C   UNL     1       5.297   2.289  26.602  0.00  0.00    +0.159 A 
ATOM     17  C   UNL     1       5.454   1.067  25.942  0.00  0.00    +0.060 A 
BRANCH  16  18
ATOM     18  O   UNL     1       4.495   3.285  26.113  0.00  0.00    -0.503 OA
ATOM     19  H   UNL     1       3.655   3.268  26.601  0.00  0.00    +0.292 HD
ENDBRANCH  16  18
BRANCH  15  20
ATOM     20  O   UNL     1       5.840   3.756  28.412  0.00  0.00    -0.503 OA
ATOM     21  H   UNL     1       6.719   4.176  28.336  0.00  0.00    +0.292 HD
ENDBRANCH  15  20
ENDBRANCH  11  12
BRANCH  10  22
ATOM     22  O   UNL     1       7.944  -5.341  23.218  0.00  0.00    -0.506 OA
ATOM     23  H   UNL     1       7.746  -6.072  22.613  0.00  0.00    +0.292 HD
ENDBRANCH  10  22
BRANCH   7  24
ATOM     24  O   UNL     1       3.433  -6.149  24.376  0.00  0.00    -0.461 OA
BRANCH  24  25
ATOM     25  C   UNL     1       3.449  -7.196  25.357  0.00  0.00    +0.339 C 
ATOM     26  O   UNL     1       3.059  -8.459  24.816  0.00  0.00    -0.331 OA
ATOM     27  C   UNL     1       1.659  -8.693  24.620  0.00  0.00    +0.179 C 
ATOM     28  C   UNL     1       0.870  -8.436  25.913  0.00  0.00    +0.177 C 
ATOM     29  C   UNL     1       1.128  -7.022  26.451  0.00  0.00    +0.180 C 
ATOM     30  C   UNL     1       2.638  -6.776  26.608  0.00  0.00    +0.214 C 
BRANCH  29  31
ATOM     31  O   UNL     1       0.469  -6.047  25.648  0.00  0.00    -0.386 OA
ATOM     32  H   UNL     1      -0.390  -5.817  26.048  0.00  0.00    +0.210 HD
ENDBRANCH  29  31
BRANCH  30  33
ATOM     33  O   UNL     1       3.104  -7.518  27.751  0.00  0.00    -0.383 OA
ATOM     34  H   UNL     1       4.073  -7.625  27.636  0.00  0.00    +0.210 HD
ENDBRANCH  30  33
BRANCH  28  35
ATOM     35  O   UNL     1       1.311  -9.398  26.893  0.00  0.00    -0.386 OA
ATOM     36  H   UNL     1       1.075 -10.285  26.562  0.00  0.00    +0.210 HD
ENDBRANCH  28  35
BRANCH  27  37
ATOM     37  C   UNL     1       1.072  -7.986  23.386  0.00  0.00    +0.190 C 
BRANCH  37  38
ATOM     38  O   UNL     1       1.978  -7.972  22.287  0.00  0.00    -0.392 OA
ATOM     39  H   UNL     1       2.220  -8.891  22.082  0.00  0.00    +0.210 HD
ENDBRANCH  37  38
ENDBRANCH  27  37
ENDBRANCH  24  25
ENDBRANCH   7  24
BRANCH   1  40
ATOM     40  O   UNL     1       8.829  -0.487  25.186  0.00  0.00    -0.453 OA
BRANCH  40  44
ATOM     41  C   UNL     1       7.037   2.874  23.056  0.00  0.00    +0.041 C 
ATOM     42  C   UNL     1       7.557   1.589  22.413  0.00  0.00    +0.150 C 
ATOM     43  O   UNL     1       7.695   0.498  23.338  0.00  0.00    -0.334 OA
ATOM     44  C   UNL     1       8.795   0.610  24.252  0.00  0.00    +0.339 C 
ATOM     45  C   UNL     1      10.135   0.664  23.482  0.00  0.00    +0.214 C 
ATOM     46  C   UNL     1      10.108   1.845  22.490  0.00  0.00    +0.180 C 
ATOM     47  C   UNL     1       8.850   1.786  21.603  0.00  0.00    +0.174 C 
BRANCH  47  48
ATOM     48  O   UNL     1       8.976   0.668  20.705  0.00  0.00    -0.387 OA
ATOM     49  H   UNL     1       8.268   0.777  20.033  0.00  0.00    +0.210 HD
ENDBRANCH  47  48
BRANCH  46  50
ATOM     50  O   UNL     1      10.264   3.109  23.137  0.00  0.00    -0.386 OA
ATOM     51  H   UNL     1      10.915   3.662  22.676  0.00  0.00    +0.210 HD
ENDBRANCH  46  50
BRANCH  45  52
ATOM     52  O   UNL     1      10.350  -0.562  22.759  0.00  0.00    -0.383 OA
ATOM     53  H   UNL     1       9.933  -0.456  21.885  0.00  0.00    +0.210 HD
ENDBRANCH  45  52
ENDBRANCH  40  44
ENDBRANCH   1  40
TORSDOF 16
ENDMDL
MODEL 7
REMARK VINA RESULT:      -6.9      1.539      2.396
REMARK  Name = 
REMARK  17 active torsions:
REMARK  status: ('A' for Active; 'I' for Inactive)
REMARK    1  A    between atoms: C_1  and  C_2
REMARK    2  A    between atoms: C_4  and  O_53
REMARK    3  A    between atoms: C_6  and  O_52
REMARK    4  A    between atoms: C_8  and  O_51
REMARK    5  A    between atoms: C_10  and  O_13
REMARK    6  A    between atoms: O_13  and  C_14
REMARK    7  A    between atoms: C_15  and  C_43
REMARK    8  A    between atoms: C_19  and  O_26
REMARK    9  A    between atoms: C_21  and  O_25
REMARK   10  A    between atoms: O_26  and  C_27
REMARK   11  A    between atoms: C_29  and  O_42
REMARK   12  A    between atoms: C_31  and  O_41
REMARK   13  A    between atoms: C_33  and  O_40
REMARK   14  A    between atoms: C_35  and  C_38
REMARK   15  A    between atoms: C_38  and  O_39
REMARK   16  A    between atoms: C_45  and  O_50
REMARK   17  A    between atoms: C_46  and  O_49
REMARK                            x       y       z     vdW  Elec       q    Type
REMARK                         _______ _______ _______ _____ _____    ______ ____
ROOT
ATOM      1  C   UNL     1       8.473  -0.943  25.866  0.00  0.00    +0.214 A 
ATOM      2  C   UNL     1       8.579  -2.262  25.154  0.00  0.00    +0.238 A 
ATOM      3  O   UNL     1       9.277  -2.418  24.159  0.00  0.00    -0.283 OA
ATOM      4  C   UNL     1       7.670  -3.341  25.559  0.00  0.00    +0.109 A 
ATOM      5  C   UNL     1       6.570  -2.984  26.322  0.00  0.00    +0.147 A 
ATOM      6  C   UNL     1       5.567  -3.930  26.577  0.00  0.00    +0.093 A 
ATOM      7  C   UNL     1       5.667  -5.228  26.060  0.00  0.00    +0.131 A 
ATOM      8  C   UNL     1       6.809  -5.603  25.350  0.00  0.00    +0.092 A 
ATOM      9  O   UNL     1       6.375  -1.720  26.814  0.00  0.00    -0.451 OA
ATOM     10  C   UNL     1       7.809  -4.662  25.104  0.00  0.00    +0.135 A 
ATOM     11  C   UNL     1       7.358  -0.760  26.609  0.00  0.00    +0.181 A 
ENDROOT
BRANCH  11  12
ATOM     12  C   UNL     1       6.978   0.547  27.197  0.00  0.00    +0.025 A 
ATOM     13  C   UNL     1       5.912   1.263  26.623  0.00  0.00    +0.015 A 
ATOM     14  C   UNL     1       5.446   2.451  27.197  0.00  0.00    +0.050 A 
ATOM     15  C   UNL     1       6.046   2.921  28.353  0.00  0.00    +0.158 A 
ATOM     16  C   UNL     1       7.111   2.235  28.928  0.00  0.00    +0.159 A 
ATOM     17  C   UNL     1       7.587   1.051  28.357  0.00  0.00    +0.060 A 
BRANCH  16  18
ATOM     18  O   UNL     1       7.645   2.759  30.075  0.00  0.00    -0.503 OA
ATOM     19  H   UNL     1       8.515   2.351  30.221  0.00  0.00    +0.292 HD
ENDBRANCH  16  18
BRANCH  15  20
ATOM     20  O   UNL     1       5.568   4.064  28.933  0.00  0.00    -0.503 OA
ATOM     21  H   UNL     1       5.898   4.786  28.363  0.00  0.00    +0.292 HD
ENDBRANCH  15  20
ENDBRANCH  11  12
BRANCH  10  22
ATOM     22  O   UNL     1       8.923  -5.047  24.411  0.00  0.00    -0.506 OA
ATOM     23  H   UNL     1       8.741  -5.075  23.460  0.00  0.00    +0.292 HD
ENDBRANCH  10  22
BRANCH   7  24
ATOM     24  O   UNL     1       4.702  -6.201  26.199  0.00  0.00    -0.461 OA
BRANCH  24  25
ATOM     25  C   UNL     1       3.882  -6.360  25.032  0.00  0.00    +0.339 C 
ATOM     26  O   UNL     1       2.983  -5.266  24.841  0.00  0.00    -0.331 OA
ATOM     27  C   UNL     1       1.797  -5.235  25.645  0.00  0.00    +0.179 C 
ATOM     28  C   UNL     1       1.016  -6.553  25.527  0.00  0.00    +0.177 C 
ATOM     29  C   UNL     1       1.898  -7.757  25.884  0.00  0.00    +0.180 C 
ATOM     30  C   UNL     1       3.187  -7.744  25.046  0.00  0.00    +0.214 C 
BRANCH  29  31
ATOM     31  O   UNL     1       2.130  -7.816  27.289  0.00  0.00    -0.386 OA
ATOM     32  H   UNL     1       3.023  -8.168  27.460  0.00  0.00    +0.210 HD
ENDBRANCH  29  31
BRANCH  30  33
ATOM     33  O   UNL     1       2.857  -8.126  23.696  0.00  0.00    -0.383 OA
ATOM     34  H   UNL     1       2.016  -8.629  23.748  0.00  0.00    +0.210 HD
ENDBRANCH  30  33
BRANCH  28  35
ATOM     35  O   UNL     1       0.579  -6.682  24.159  0.00  0.00    -0.386 OA
ATOM     36  H   UNL     1       1.363  -6.891  23.618  0.00  0.00    +0.210 HD
ENDBRANCH  28  35
BRANCH  27  37
ATOM     37  C   UNL     1       2.034  -4.784  27.096  0.00  0.00    +0.190 C 
BRANCH  37  38
ATOM     38  O   UNL     1       0.948  -5.125  27.954  0.00  0.00    -0.392 OA
ATOM     39  H   UNL     1       1.305  -5.604  28.720  0.00  0.00    +0.210 HD
ENDBRANCH  37  38
ENDBRANCH  27  37
ENDBRANCH  24  25
ENDBRANCH   7  24
BRANCH   1  40
ATOM     40  O   UNL     1       9.392   0.089  25.684  0.00  0.00    -0.453 OA
BRANCH  40  44
ATOM     41  C   UNL     1       6.973   2.801  23.269  0.00  0.00    +0.041 C 
ATOM     42  C   UNL     1       7.668   1.538  22.761  0.00  0.00    +0.150 C 
ATOM     43  O   UNL     1       8.027   0.620  23.806  0.00  0.00    -0.334 OA
ATOM     44  C   UNL     1       9.134   1.029  24.622  0.00  0.00    +0.339 C 
ATOM     45  C   UNL     1      10.411   1.188  23.762  0.00  0.00    +0.214 C 
ATOM     46  C   UNL     1      10.142   2.203  22.633  0.00  0.00    +0.180 C 
ATOM     47  C   UNL     1       8.873   1.825  21.847  0.00  0.00    +0.174 C 
BRANCH  47  48
ATOM     48  O   UNL     1       9.141   0.628  21.092  0.00  0.00    -0.387 OA
ATOM     49  H   UNL     1       8.348   0.476  20.533  0.00  0.00    +0.210 HD
ENDBRANCH  47  48
BRANCH  46  50
ATOM     50  O   UNL     1      10.117   3.552  23.101  0.00  0.00    -0.386 OA
ATOM     51  H   UNL     1       9.276   3.986  22.880  0.00  0.00    +0.210 HD
ENDBRANCH  46  50
BRANCH  45  52
ATOM     52  O   UNL     1      10.792  -0.076  23.189  0.00  0.00    -0.383 OA
ATOM     53  H   UNL     1      11.123   0.105  22.291  0.00  0.00    +0.210 HD
ENDBRANCH  45  52
ENDBRANCH  40  44
ENDBRANCH   1  40
TORSDOF 16
ENDMDL
MODEL 8
REMARK VINA RESULT:      -6.7      3.036      5.215
REMARK  Name = 
REMARK  17 active torsions:
REMARK  status: ('A' for Active; 'I' for Inactive)
REMARK    1  A    between atoms: C_1  and  C_2
REMARK    2  A    between atoms: C_4  and  O_53
REMARK    3  A    between atoms: C_6  and  O_52
REMARK    4  A    between atoms: C_8  and  O_51
REMARK    5  A    between atoms: C_10  and  O_13
REMARK    6  A    between atoms: O_13  and  C_14
REMARK    7  A    between atoms: C_15  and  C_43
REMARK    8  A    between atoms: C_19  and  O_26
REMARK    9  A    between atoms: C_21  and  O_25
REMARK   10  A    between atoms: O_26  and  C_27
REMARK   11  A    between atoms: C_29  and  O_42
REMARK   12  A    between atoms: C_31  and  O_41
REMARK   13  A    between atoms: C_33  and  O_40
REMARK   14  A    between atoms: C_35  and  C_38
REMARK   15  A    between atoms: C_38  and  O_39
REMARK   16  A    between atoms: C_45  and  O_50
REMARK   17  A    between atoms: C_46  and  O_49
REMARK                            x       y       z     vdW  Elec       q    Type
REMARK                         _______ _______ _______ _____ _____    ______ ____
ROOT
ATOM      1  C   UNL     1       7.559   1.989  22.429  0.00  0.00    +0.214 A 
ATOM      2  C   UNL     1       8.309   0.746  22.043  0.00  0.00    +0.238 A 
ATOM      3  O   UNL     1       9.092   0.716  21.100  0.00  0.00    -0.283 OA
ATOM      4  C   UNL     1       7.947  -0.514  22.704  0.00  0.00    +0.109 A 
ATOM      5  C   UNL     1       6.738  -0.544  23.381  0.00  0.00    +0.147 A 
ATOM      6  C   UNL     1       6.246  -1.763  23.867  0.00  0.00    +0.093 A 
ATOM      7  C   UNL     1       6.964  -2.950  23.665  0.00  0.00    +0.131 A 
ATOM      8  C   UNL     1       8.213  -2.904  23.044  0.00  0.00    +0.092 A 
ATOM      9  O   UNL     1       5.954   0.564  23.568  0.00  0.00    -0.451 OA
ATOM     10  C   UNL     1       8.703  -1.688  22.568  0.00  0.00    +0.135 A 
ATOM     11  C   UNL     1       6.418   1.798  23.128  0.00  0.00    +0.181 A 
ENDROOT
BRANCH  11  12
ATOM     12  C   UNL     1       5.441   2.879  23.401  0.00  0.00    +0.025 A 
ATOM     13  C   UNL     1       5.339   3.383  24.712  0.00  0.00    +0.015 A 
ATOM     14  C   UNL     1       4.507   4.470  25.007  0.00  0.00    +0.050 A 
ATOM     15  C   UNL     1       3.780   5.057  23.985  0.00  0.00    +0.158 A 
ATOM     16  C   UNL     1       3.856   4.565  22.686  0.00  0.00    +0.159 A 
ATOM     17  C   UNL     1       4.679   3.475  22.384  0.00  0.00    +0.060 A 
BRANCH  16  18
ATOM     18  O   UNL     1       3.113   5.205  21.731  0.00  0.00    -0.503 OA
ATOM     19  H   UNL     1       3.331   6.152  21.758  0.00  0.00    +0.292 HD
ENDBRANCH  16  18
BRANCH  15  20
ATOM     20  O   UNL     1       2.994   6.140  24.267  0.00  0.00    -0.503 OA
ATOM     21  H   UNL     1       2.430   6.249  23.476  0.00  0.00    +0.292 HD
ENDBRANCH  15  20
ENDBRANCH  11  12
BRANCH  10  22
ATOM     22  O   UNL     1       9.930  -1.661  21.965  0.00  0.00    -0.506 OA
ATOM     23  H   UNL     1      10.610  -1.357  22.587  0.00  0.00    +0.292 HD
ENDBRANCH  10  22
BRANCH   7  24
ATOM     24  O   UNL     1       6.528  -4.200  24.043  0.00  0.00    -0.461 OA
BRANCH  24  25
ATOM     25  C   UNL     1       7.342  -4.803  25.060  0.00  0.00    +0.339 C 
ATOM     26  O   UNL     1       6.890  -6.111  25.417  0.00  0.00    -0.331 OA
ATOM     27  C   UNL     1       5.761  -6.206  26.294  0.00  0.00    +0.179 C 
ATOM     28  C   UNL     1       5.985  -5.386  27.574  0.00  0.00    +0.177 C 
ATOM     29  C   UNL     1       6.314  -3.923  27.247  0.00  0.00    +0.180 C 
ATOM     30  C   UNL     1       7.496  -3.845  26.267  0.00  0.00    +0.214 C 
BRANCH  29  31
ATOM     31  O   UNL     1       5.151  -3.231  26.797  0.00  0.00    -0.386 OA
ATOM     32  H   UNL     1       4.482  -3.874  26.495  0.00  0.00    +0.210 HD
ENDBRANCH  29  31
BRANCH  30  33
ATOM     33  O   UNL     1       8.703  -4.170  26.983  0.00  0.00    -0.383 OA
ATOM     34  H   UNL     1       8.737  -3.568  27.757  0.00  0.00    +0.210 HD
ENDBRANCH  30  33
BRANCH  28  35
ATOM     35  O   UNL     1       7.099  -5.970  28.279  0.00  0.00    -0.386 OA
ATOM     36  H   UNL     1       7.869  -5.953  27.678  0.00  0.00    +0.210 HD
ENDBRANCH  28  35
BRANCH  27  37
ATOM     37  C   UNL     1       4.411  -5.930  25.611  0.00  0.00    +0.190 C 
BRANCH  37  38
ATOM     38  O   UNL     1       4.375  -6.410  24.269  0.00  0.00    -0.392 OA
ATOM     39  H   UNL     1       3.531  -6.872  24.135  0.00  0.00    +0.210 HD
ENDBRANCH  37  38
ENDBRANCH  27  37
ENDBRANCH  24  25
ENDBRANCH   7  24
BRANCH   1  40
ATOM     40  O   UNL     1       7.932   3.261  21.996  0.00  0.00    -0.453 OA
BRANCH  40  44
ATOM     41  C   UNL     1       7.159   7.071  23.978  0.00  0.00    +0.041 C 
ATOM     42  C   UNL     1       8.489   6.646  23.355  0.00  0.00    +0.150 C 
ATOM     43  O   UNL     1       8.364   5.564  22.417  0.00  0.00    -0.334 OA
ATOM     44  C   UNL     1       8.106   4.279  23.000  0.00  0.00    +0.339 C 
ATOM     45  C   UNL     1       9.263   3.871  23.944  0.00  0.00    +0.214 C 
ATOM     46  C   UNL     1       9.444   4.952  25.028  0.00  0.00    +0.180 C 
ATOM     47  C   UNL     1       9.586   6.347  24.392  0.00  0.00    +0.174 C 
BRANCH  47  48
ATOM     48  O   UNL     1      10.855   6.414  23.713  0.00  0.00    -0.387 OA
ATOM     49  H   UNL     1      11.325   7.190  24.090  0.00  0.00    +0.210 HD
ENDBRANCH  47  48
BRANCH  46  50
ATOM     50  O   UNL     1       8.423   4.906  26.026  0.00  0.00    -0.386 OA
ATOM     51  H   UNL     1       8.799   4.751  26.908  0.00  0.00    +0.210 HD
ENDBRANCH  46  50
BRANCH  45  52
ATOM     52  O   UNL     1      10.488   3.726  23.203  0.00  0.00    -0.383 OA
ATOM     53  H   UNL     1      11.070   4.463  23.464  0.00  0.00    +0.210 HD
ENDBRANCH  45  52
ENDBRANCH  40  44
ENDBRANCH   1  40
TORSDOF 16
ENDMDL
MODEL 9
REMARK VINA RESULT:      -6.6      3.052      9.414
REMARK  Name = 
REMARK  17 active torsions:
REMARK  status: ('A' for Active; 'I' for Inactive)
REMARK    1  A    between atoms: C_1  and  C_2
REMARK    2  A    between atoms: C_4  and  O_53
REMARK    3  A    between atoms: C_6  and  O_52
REMARK    4  A    between atoms: C_8  and  O_51
REMARK    5  A    between atoms: C_10  and  O_13
REMARK    6  A    between atoms: O_13  and  C_14
REMARK    7  A    between atoms: C_15  and  C_43
REMARK    8  A    between atoms: C_19  and  O_26
REMARK    9  A    between atoms: C_21  and  O_25
REMARK   10  A    between atoms: O_26  and  C_27
REMARK   11  A    between atoms: C_29  and  O_42
REMARK   12  A    between atoms: C_31  and  O_41
REMARK   13  A    between atoms: C_33  and  O_40
REMARK   14  A    between atoms: C_35  and  C_38
REMARK   15  A    between atoms: C_38  and  O_39
REMARK   16  A    between atoms: C_45  and  O_50
REMARK   17  A    between atoms: C_46  and  O_49
REMARK                            x       y       z     vdW  Elec       q    Type
REMARK                         _______ _______ _______ _____ _____    ______ ____
ROOT
ATOM      1  C   UNL     1       8.421  -2.457  24.063  0.00  0.00    +0.214 A 
ATOM      2  C   UNL     1       9.250  -1.487  23.269  0.00  0.00    +0.238 A 
ATOM      3  O   UNL     1      10.152  -1.850  22.523  0.00  0.00    -0.283 OA
ATOM      4  C   UNL     1       9.090  -0.054  23.545  0.00  0.00    +0.109 A 
ATOM      5  C   UNL     1       8.449   0.292  24.723  0.00  0.00    +0.147 A 
ATOM      6  C   UNL     1       8.435   1.632  25.136  0.00  0.00    +0.093 A 
ATOM      7  C   UNL     1       9.071   2.618  24.371  0.00  0.00    +0.131 A 
ATOM      8  C   UNL     1       9.655   2.275  23.151  0.00  0.00    +0.092 A 
ATOM      9  O   UNL     1       7.855  -0.623  25.552  0.00  0.00    -0.451 OA
ATOM     10  C   UNL     1       9.661   0.942  22.738  0.00  0.00    +0.135 A 
ATOM     11  C   UNL     1       7.821  -1.957  25.166  0.00  0.00    +0.181 A 
ENDROOT
BRANCH  11  12
ATOM     12  C   UNL     1       7.152  -2.804  26.182  0.00  0.00    +0.025 A 
ATOM     13  C   UNL     1       5.857  -2.452  26.611  0.00  0.00    +0.015 A 
ATOM     14  C   UNL     1       5.140  -3.269  27.492  0.00  0.00    +0.050 A 
ATOM     15  C   UNL     1       5.717  -4.445  27.941  0.00  0.00    +0.158 A 
ATOM     16  C   UNL     1       7.001  -4.803  27.541  0.00  0.00    +0.159 A 
ATOM     17  C   UNL     1       7.727  -3.989  26.667  0.00  0.00    +0.060 A 
BRANCH  16  18
ATOM     18  O   UNL     1       7.498  -5.984  28.022  0.00  0.00    -0.503 OA
ATOM     19  H   UNL     1       7.090  -6.713  27.525  0.00  0.00    +0.292 HD
ENDBRANCH  16  18
BRANCH  15  20
ATOM     20  O   UNL     1       5.003  -5.260  28.775  0.00  0.00    -0.503 OA
ATOM     21  H   UNL     1       4.102  -4.880  28.780  0.00  0.00    +0.292 HD
ENDBRANCH  15  20
ENDBRANCH  11  12
BRANCH  10  22
ATOM     22  O   UNL     1      10.234   0.625  21.538  0.00  0.00    -0.506 OA
ATOM     23  H   UNL     1      10.013  -0.284  21.283  0.00  0.00    +0.292 HD
ENDBRANCH  10  22
BRANCH   7  24
ATOM     24  O   UNL     1       9.169   3.943  24.731  0.00  0.00    -0.461 OA
BRANCH  24  25
ATOM     25  C   UNL     1       8.745   4.847  23.700  0.00  0.00    +0.339 C 
ATOM     26  O   UNL     1       8.751   6.209  24.130  0.00  0.00    -0.331 OA
ATOM     27  C   UNL     1       7.656   6.654  24.941  0.00  0.00    +0.179 C 
ATOM     28  C   UNL     1       6.310   6.346  24.268  0.00  0.00    +0.177 C 
ATOM     29  C   UNL     1       6.184   4.854  23.932  0.00  0.00    +0.180 C 
ATOM     30  C   UNL     1       7.391   4.387  23.103  0.00  0.00    +0.214 C 
BRANCH  29  31
ATOM     31  O   UNL     1       5.968   4.086  25.113  0.00  0.00    -0.386 OA
ATOM     32  H   UNL     1       6.587   3.332  25.132  0.00  0.00    +0.210 HD
ENDBRANCH  29  31
BRANCH  30  33
ATOM     33  O   UNL     1       7.257   4.909  21.767  0.00  0.00    -0.383 OA
ATOM     34  H   UNL     1       6.677   5.697  21.834  0.00  0.00    +0.210 HD
ENDBRANCH  30  33
BRANCH  28  35
ATOM     35  O   UNL     1       6.247   7.108  23.045  0.00  0.00    -0.386 OA
ATOM     36  H   UNL     1       6.950   6.776  22.455  0.00  0.00    +0.210 HD
ENDBRANCH  28  35
BRANCH  27  37
ATOM     37  C   UNL     1       7.735   6.194  26.407  0.00  0.00    +0.190 C 
BRANCH  37  38
ATOM     38  O   UNL     1       9.058   6.272  26.929  0.00  0.00    -0.392 OA
ATOM     39  H   UNL     1       9.610   5.630  26.452  0.00  0.00    +0.210 HD
ENDBRANCH  37  38
ENDBRANCH  27  37
ENDBRANCH  24  25
ENDBRANCH   7  24
BRANCH   1  40
ATOM     40  O   UNL     1       8.365  -3.819  23.769  0.00  0.00    -0.453 OA
BRANCH  40  44
ATOM     41  C   UNL     1       4.070  -4.293  23.156  0.00  0.00    +0.041 C 
ATOM     42  C   UNL     1       5.052  -5.419  23.479  0.00  0.00    +0.150 C 
ATOM     43  O   UNL     1       6.291  -4.957  24.043  0.00  0.00    -0.334 OA
ATOM     44  C   UNL     1       7.176  -4.308  23.118  0.00  0.00    +0.339 C 
ATOM     45  C   UNL     1       7.580  -5.279  21.983  0.00  0.00    +0.214 C 
ATOM     46  C   UNL     1       6.311  -5.795  21.276  0.00  0.00    +0.180 C 
ATOM     47  C   UNL     1       5.310  -6.369  22.296  0.00  0.00    +0.174 C 
BRANCH  47  48
ATOM     48  O   UNL     1       5.851  -7.592  22.830  0.00  0.00    -0.387 OA
ATOM     49  H   UNL     1       6.421  -7.330  23.586  0.00  0.00    +0.210 HD
ENDBRANCH  47  48
BRANCH  46  50
ATOM     50  O   UNL     1       5.721  -4.815  20.421  0.00  0.00    -0.386 OA
ATOM     51  H   UNL     1       5.658  -3.953  20.864  0.00  0.00    +0.210 HD
ENDBRANCH  46  50
BRANCH  45  52
ATOM     52  O   UNL     1       8.318  -6.394  22.516  0.00  0.00    -0.383 OA
ATOM     53  H   UNL     1       8.665  -6.120  23.384  0.00  0.00    +0.210 HD
ENDBRANCH  45  52
ENDBRANCH  40  44
ENDBRANCH   1  40
TORSDOF 16
ENDMDL
