MODEL 1
REMARK VINA RESULT:      -6.3      0.000      0.000
REMARK  Name = 
REMARK  14 active torsions:
REMARK  status: ('A' for Active; 'I' for Inactive)
REMARK    1  A    between atoms: C_2  and  C_3
REMARK    2  A    between atoms: C_3  and  O_4
REMARK    3  A    between atoms: O_4  and  C_5
REMARK    4  A    between atoms: C_6  and  C_21
REMARK    5  A    between atoms: C_10  and  O_17
REMARK    6  A    between atoms: C_12  and  O_16
REMARK    7  A    between atoms: O_17  and  C_18
REMARK    8  A    between atoms: C_18  and  C_19
REMARK    9  A    between atoms: C_23  and  O_31
REMARK   10  A    between atoms: C_24  and  O_27
REMARK   11  A    between atoms: O_27  and  C_28
REMARK   12  A    between atoms: C_28  and  C_29
REMARK   13  A    between atoms: O_31  and  C_32
REMARK   14  A    between atoms: C_32  and  C_33
REMARK                            x       y       z     vdW  Elec       q    Type
REMARK                         _______ _______ _______ _____ _____    ______ ____
ROOT
ATOM      1  C   UNL     1       7.114   1.084  25.557  0.00  0.00    +0.234 C 
ATOM      2  C   UNL     1       7.448   2.413  26.199  0.00  0.00    +0.203 C 
ATOM      3  O   UNL     1       7.194   2.701  27.366  0.00  0.00    -0.289 OA
ATOM      4  C   UNL     1       8.160   3.362  25.356  0.00  0.00    +0.103 A 
ATOM      5  C   UNL     1       8.974   2.855  24.344  0.00  0.00    +0.139 A 
ATOM      6  C   UNL     1       9.828   3.740  23.671  0.00  0.00    +0.092 A 
ATOM      7  C   UNL     1       9.861   5.101  24.020  0.00  0.00    +0.128 A 
ATOM      8  C   UNL     1       8.936   5.606  24.935  0.00  0.00    +0.092 A 
ATOM      9  O   UNL     1       8.979   1.537  23.956  0.00  0.00    -0.480 OA
ATOM     10  C   UNL     1       8.095   4.736  25.608  0.00  0.00    +0.134 A 
ATOM     11  C   UNL     1       8.424   0.572  24.894  0.00  0.00    +0.240 C 
ENDROOT
BRANCH  11  12
ATOM     12  C   UNL     1       8.290  -0.783  24.163  0.00  0.00    -0.001 A 
ATOM     13  C   UNL     1       7.471  -0.943  23.036  0.00  0.00    +0.011 A 
ATOM     14  C   UNL     1       7.252  -2.190  22.448  0.00  0.00    +0.050 A 
ATOM     15  C   UNL     1       7.871  -3.335  22.940  0.00  0.00    +0.162 A 
ATOM     16  C   UNL     1       8.762  -3.201  24.021  0.00  0.00    +0.163 A 
ATOM     17  C   UNL     1       8.932  -1.943  24.648  0.00  0.00    +0.056 A 
BRANCH  15  18
ATOM     18  O   UNL     1       7.703  -4.581  22.378  0.00  0.00    -0.484 OA
BRANCH  18  19
ATOM     19  C   UNL     1       6.402  -4.852  21.847  0.00  0.00    +0.256 C 
BRANCH  19  20
ATOM     20  C   UNL     1       5.806  -6.028  22.564  0.00  0.00    +0.006 C 
ATOM     21  C   UNL     1       5.187  -5.945  23.752  0.00  0.00    +0.007 C 
ENDBRANCH  19  20
ENDBRANCH  18  19
ENDBRANCH  15  18
BRANCH  16  22
ATOM     22  O   UNL     1       9.394  -4.349  24.437  0.00  0.00    -0.484 OA
BRANCH  22  23
ATOM     23  C   UNL     1       9.317  -4.637  25.832  0.00  0.00    +0.256 C 
BRANCH  23  24
ATOM     24  C   UNL     1       8.025  -5.357  26.087  0.00  0.00    +0.006 C 
ATOM     25  C   UNL     1       7.154  -5.057  27.060  0.00  0.00    +0.007 C 
ENDBRANCH  23  24
ENDBRANCH  22  23
ENDBRANCH  16  22
ENDBRANCH  11  12
BRANCH  10  26
ATOM     26  O   UNL     1       7.188   5.245  26.491  0.00  0.00    -0.506 OA
ATOM     27  H   UNL     1       6.330   5.381  26.058  0.00  0.00    +0.292 HD
ENDBRANCH  10  26
BRANCH   1  28
ATOM     28  O   UNL     1       6.645   0.173  26.566  0.00  0.00    -0.361 OA
BRANCH  28  29
ATOM     29  C   UNL     1       5.309  -0.279  26.339  0.00  0.00    +0.188 C 
BRANCH  29  31
ATOM     30  C   UNL     1       4.871  -2.470  25.203  0.00  0.00    +0.006 C 
ATOM     31  C   UNL     1       5.347  -1.769  26.240  0.00  0.00    -0.007 C 
ENDBRANCH  29  31
ENDBRANCH  28  29
ENDBRANCH   1  28
BRANCH   7  32
ATOM     32  O   UNL     1      10.831   5.878  23.432  0.00  0.00    -0.488 OA
BRANCH  32  33
ATOM     33  C   UNL     1      12.104   5.823  24.095  0.00  0.00    +0.256 C 
BRANCH  33  34
ATOM     34  C   UNL     1      13.122   5.219  23.181  0.00  0.00    +0.006 C 
ATOM     35  C   UNL     1      13.269   5.574  21.896  0.00  0.00    +0.007 C 
ENDBRANCH  33  34
ENDBRANCH  32  33
ENDBRANCH   7  32
TORSDOF 14
ENDMDL
MODEL 2
REMARK VINA RESULT:      -6.1      2.210      9.123
REMARK  Name = 
REMARK  14 active torsions:
REMARK  status: ('A' for Active; 'I' for Inactive)
REMARK    1  A    between atoms: C_2  and  C_3
REMARK    2  A    between atoms: C_3  and  O_4
REMARK    3  A    between atoms: O_4  and  C_5
REMARK    4  A    between atoms: C_6  and  C_21
REMARK    5  A    between atoms: C_10  and  O_17
REMARK    6  A    between atoms: C_12  and  O_16
REMARK    7  A    between atoms: O_17  and  C_18
REMARK    8  A    between atoms: C_18  and  C_19
REMARK    9  A    between atoms: C_23  and  O_31
REMARK   10  A    between atoms: C_24  and  O_27
REMARK   11  A    between atoms: O_27  and  C_28
REMARK   12  A    between atoms: C_28  and  C_29
REMARK   13  A    between atoms: O_31  and  C_32
REMARK   14  A    between atoms: C_32  and  C_33
REMARK                            x       y       z     vdW  Elec       q    Type
REMARK                         _______ _______ _______ _____ _____    ______ ____
ROOT
ATOM      1  C   UNL     1       8.715  -1.316  23.851  0.00  0.00    +0.234 C 
ATOM      2  C   UNL     1       9.269  -2.673  24.223  0.00  0.00    +0.203 C 
ATOM      3  O   UNL     1      10.356  -3.105  23.847  0.00  0.00    -0.289 OA
ATOM      4  C   UNL     1       8.449  -3.465  25.128  0.00  0.00    +0.103 A 
ATOM      5  C   UNL     1       7.614  -2.787  26.016  0.00  0.00    +0.139 A 
ATOM      6  C   UNL     1       6.988  -3.521  27.032  0.00  0.00    +0.092 A 
ATOM      7  C   UNL     1       7.207  -4.905  27.150  0.00  0.00    +0.128 A 
ATOM      8  C   UNL     1       7.930  -5.579  26.166  0.00  0.00    +0.092 A 
ATOM      9  O   UNL     1       7.358  -1.439  25.945  0.00  0.00    -0.480 OA
ATOM     10  C   UNL     1       8.557  -4.859  25.163  0.00  0.00    +0.134 A 
ATOM     11  C   UNL     1       8.295  -0.629  25.181  0.00  0.00    +0.240 C 
ENDROOT
BRANCH  11  12
ATOM     12  C   UNL     1       7.685   0.781  25.016  0.00  0.00    -0.001 A 
ATOM     13  C   UNL     1       6.344   0.974  24.652  0.00  0.00    +0.011 A 
ATOM     14  C   UNL     1       5.821   2.240  24.381  0.00  0.00    +0.050 A 
ATOM     15  C   UNL     1       6.609   3.380  24.496  0.00  0.00    +0.162 A 
ATOM     16  C   UNL     1       7.939   3.234  24.936  0.00  0.00    +0.163 A 
ATOM     17  C   UNL     1       8.476   1.942  25.150  0.00  0.00    +0.056 A 
BRANCH  15  18
ATOM     18  O   UNL     1       6.131   4.651  24.263  0.00  0.00    -0.484 OA
BRANCH  18  19
ATOM     19  C   UNL     1       5.724   4.923  22.918  0.00  0.00    +0.256 C 
BRANCH  19  20
ATOM     20  C   UNL     1       6.920   5.333  22.110  0.00  0.00    +0.006 C 
ATOM     21  C   UNL     1       7.223   6.607  21.815  0.00  0.00    +0.007 C 
ENDBRANCH  19  20
ENDBRANCH  18  19
ENDBRANCH  15  18
BRANCH  16  22
ATOM     22  O   UNL     1       8.661   4.393  25.089  0.00  0.00    -0.484 OA
BRANCH  22  23
ATOM     23  C   UNL     1       9.721   4.600  24.155  0.00  0.00    +0.256 C 
BRANCH  23  24
ATOM     24  C   UNL     1      10.120   6.045  24.220  0.00  0.00    +0.006 C 
ATOM     25  C   UNL     1       9.404   7.018  24.802  0.00  0.00    +0.007 C 
ENDBRANCH  23  24
ENDBRANCH  22  23
ENDBRANCH  16  22
ENDBRANCH  11  12
BRANCH  10  26
ATOM     26  O   UNL     1       9.251  -5.532  24.201  0.00  0.00    -0.506 OA
ATOM     27  H   UNL     1      10.105  -5.103  24.034  0.00  0.00    +0.292 HD
ENDBRANCH  10  26
BRANCH   1  28
ATOM     28  O   UNL     1       9.729  -0.559  23.167  0.00  0.00    -0.361 OA
BRANCH  28  29
ATOM     29  C   UNL     1       9.418  -0.310  21.796  0.00  0.00    +0.188 C 
BRANCH  29  31
ATOM     30  C   UNL     1       8.138   1.816  21.437  0.00  0.00    +0.006 C 
ATOM     31  C   UNL     1       9.296   1.169  21.622  0.00  0.00    -0.007 C 
ENDBRANCH  29  31
ENDBRANCH  28  29
ENDBRANCH   1  28
BRANCH   7  32
ATOM     32  O   UNL     1       6.691  -5.532  28.260  0.00  0.00    -0.488 OA
BRANCH  32  33
ATOM     33  C   UNL     1       5.272  -5.375  28.412  0.00  0.00    +0.256 C 
BRANCH  33  34
ATOM     34  C   UNL     1       4.571  -6.591  27.896  0.00  0.00    +0.006 C 
ATOM     35  C   UNL     1       3.766  -6.584  26.824  0.00  0.00    +0.007 C 
ENDBRANCH  33  34
ENDBRANCH  32  33
ENDBRANCH   7  32
TORSDOF 14
ENDMDL
MODEL 3
REMARK VINA RESULT:      -5.9      2.277      9.066
REMARK  Name = 
REMARK  14 active torsions:
REMARK  status: ('A' for Active; 'I' for Inactive)
REMARK    1  A    between atoms: C_2  and  C_3
REMARK    2  A    between atoms: C_3  and  O_4
REMARK    3  A    between atoms: O_4  and  C_5
REMARK    4  A    between atoms: C_6  and  C_21
REMARK    5  A    between atoms: C_10  and  O_17
REMARK    6  A    between atoms: C_12  and  O_16
REMARK    7  A    between atoms: O_17  and  C_18
REMARK    8  A    between atoms: C_18  and  C_19
REMARK    9  A    between atoms: C_23  and  O_31
REMARK   10  A    between atoms: C_24  and  O_27
REMARK   11  A    between atoms: O_27  and  C_28
REMARK   12  A    between atoms: C_28  and  C_29
REMARK   13  A    between atoms: O_31  and  C_32
REMARK   14  A    between atoms: C_32  and  C_33
REMARK                            x       y       z     vdW  Elec       q    Type
REMARK                         _______ _______ _______ _____ _____    ______ ____
ROOT
ATOM      1  C   UNL     1       8.552  -0.563  24.163  0.00  0.00    +0.234 C 
ATOM      2  C   UNL     1       8.587  -2.019  24.571  0.00  0.00    +0.203 C 
ATOM      3  O   UNL     1       9.227  -2.456  25.525  0.00  0.00    -0.289 OA
ATOM      4  C   UNL     1       7.757  -2.918  23.783  0.00  0.00    +0.103 A 
ATOM      5  C   UNL     1       6.614  -2.392  23.182  0.00  0.00    +0.139 A 
ATOM      6  C   UNL     1       5.696  -3.281  22.607  0.00  0.00    +0.092 A 
ATOM      7  C   UNL     1       5.926  -4.667  22.648  0.00  0.00    +0.128 A 
ATOM      8  C   UNL     1       7.142  -5.156  23.127  0.00  0.00    +0.092 A 
ATOM      9  O   UNL     1       6.340  -1.047  23.106  0.00  0.00    -0.480 OA
ATOM     10  C   UNL     1       8.050  -4.283  23.703  0.00  0.00    +0.134 A 
ATOM     11  C   UNL     1       7.052  -0.178  24.030  0.00  0.00    +0.240 C 
ENDROOT
BRANCH  11  12
ATOM     12  C   UNL     1       6.796   1.286  23.603  0.00  0.00    -0.001 A 
ATOM     13  C   UNL     1       7.014   1.726  22.289  0.00  0.00    +0.011 A 
ATOM     14  C   UNL     1       6.904   3.070  21.928  0.00  0.00    +0.050 A 
ATOM     15  C   UNL     1       6.535   4.035  22.859  0.00  0.00    +0.162 A 
ATOM     16  C   UNL     1       6.230   3.620  24.169  0.00  0.00    +0.163 A 
ATOM     17  C   UNL     1       6.403   2.265  24.541  0.00  0.00    +0.056 A 
BRANCH  15  18
ATOM     18  O   UNL     1       6.389   5.368  22.543  0.00  0.00    -0.484 OA
BRANCH  18  19
ATOM     19  C   UNL     1       7.551   6.008  22.006  0.00  0.00    +0.256 C 
BRANCH  19  20
ATOM     20  C   UNL     1       8.307   6.679  23.115  0.00  0.00    +0.006 C 
ATOM     21  C   UNL     1       9.561   6.355  23.470  0.00  0.00    +0.007 C 
ENDBRANCH  19  20
ENDBRANCH  18  19
ENDBRANCH  15  18
BRANCH  16  22
ATOM     22  O   UNL     1       5.816   4.599  25.039  0.00  0.00    -0.484 OA
BRANCH  22  23
ATOM     23  C   UNL     1       6.296   4.494  26.378  0.00  0.00    +0.256 C 
BRANCH  23  24
ATOM     24  C   UNL     1       7.655   5.127  26.436  0.00  0.00    +0.006 C 
ATOM     25  C   UNL     1       7.917   6.349  26.921  0.00  0.00    +0.007 C 
ENDBRANCH  23  24
ENDBRANCH  22  23
ENDBRANCH  16  22
ENDBRANCH  11  12
BRANCH  10  26
ATOM     26  O   UNL     1       9.240  -4.772  24.157  0.00  0.00    -0.506 OA
ATOM     27  H   UNL     1       9.093  -5.450  24.835  0.00  0.00    +0.292 HD
ENDBRANCH  10  26
BRANCH   1  28
ATOM     28  O   UNL     1       9.210   0.229  25.167  0.00  0.00    -0.361 OA
BRANCH  28  29
ATOM     29  C   UNL     1      10.531   0.627  24.794  0.00  0.00    +0.188 C 
BRANCH  29  31
ATOM     30  C   UNL     1      10.507   2.731  23.431  0.00  0.00    +0.006 C 
ATOM     31  C   UNL     1      10.426   1.397  23.519  0.00  0.00    -0.007 C 
ENDBRANCH  29  31
ENDBRANCH  28  29
ENDBRANCH   1  28
BRANCH   7  32
ATOM     32  O   UNL     1       4.912  -5.488  22.209  0.00  0.00    -0.488 OA
BRANCH  32  33
ATOM     33  C   UNL     1       3.823  -5.615  23.136  0.00  0.00    +0.256 C 
BRANCH  33  34
ATOM     34  C   UNL     1       4.057  -6.790  24.031  0.00  0.00    +0.006 C 
ATOM     35  C   UNL     1       4.448  -6.683  25.309  0.00  0.00    +0.007 C 
ENDBRANCH  33  34
ENDBRANCH  32  33
ENDBRANCH   7  32
TORSDOF 14
ENDMDL
MODEL 4
REMARK VINA RESULT:      -5.8      2.319      4.486
REMARK  Name = 
REMARK  14 active torsions:
REMARK  status: ('A' for Active; 'I' for Inactive)
REMARK    1  A    between atoms: C_2  and  C_3
REMARK    2  A    between atoms: C_3  and  O_4
REMARK    3  A    between atoms: O_4  and  C_5
REMARK    4  A    between atoms: C_6  and  C_21
REMARK    5  A    between atoms: C_10  and  O_17
REMARK    6  A    between atoms: C_12  and  O_16
REMARK    7  A    between atoms: O_17  and  C_18
REMARK    8  A    between atoms: C_18  and  C_19
REMARK    9  A    between atoms: C_23  and  O_31
REMARK   10  A    between atoms: C_24  and  O_27
REMARK   11  A    between atoms: O_27  and  C_28
REMARK   12  A    between atoms: C_28  and  C_29
REMARK   13  A    between atoms: O_31  and  C_32
REMARK   14  A    between atoms: C_32  and  C_33
REMARK                            x       y       z     vdW  Elec       q    Type
REMARK                         _______ _______ _______ _____ _____    ______ ____
ROOT
ATOM      1  C   UNL     1       8.610  -1.632  24.133  0.00  0.00    +0.234 C 
ATOM      2  C   UNL     1       9.675  -0.667  23.659  0.00  0.00    +0.203 C 
ATOM      3  O   UNL     1      10.733  -1.006  23.135  0.00  0.00    -0.289 OA
ATOM      4  C   UNL     1       9.361   0.746  23.810  0.00  0.00    +0.103 A 
ATOM      5  C   UNL     1       8.019   1.124  23.783  0.00  0.00    +0.139 A 
ATOM      6  C   UNL     1       7.714   2.490  23.709  0.00  0.00    +0.092 A 
ATOM      7  C   UNL     1       8.742   3.447  23.655  0.00  0.00    +0.128 A 
ATOM      8  C   UNL     1      10.069   3.052  23.827  0.00  0.00    +0.092 A 
ATOM      9  O   UNL     1       6.973   0.234  23.841  0.00  0.00    -0.480 OA
ATOM     10  C   UNL     1      10.377   1.703  23.894  0.00  0.00    +0.134 A 
ATOM     11  C   UNL     1       7.269  -1.151  23.509  0.00  0.00    +0.240 C 
ENDROOT
BRANCH  11  12
ATOM     12  C   UNL     1       6.038  -2.007  23.886  0.00  0.00    -0.001 A 
ATOM     13  C   UNL     1       5.353  -1.832  25.097  0.00  0.00    +0.011 A 
ATOM     14  C   UNL     1       4.320  -2.681  25.497  0.00  0.00    +0.050 A 
ATOM     15  C   UNL     1       3.898  -3.729  24.685  0.00  0.00    +0.162 A 
ATOM     16  C   UNL     1       4.509  -3.888  23.426  0.00  0.00    +0.163 A 
ATOM     17  C   UNL     1       5.596  -3.059  23.056  0.00  0.00    +0.056 A 
BRANCH  15  18
ATOM     18  O   UNL     1       2.868  -4.577  25.026  0.00  0.00    -0.484 OA
BRANCH  18  19
ATOM     19  C   UNL     1       2.982  -5.208  26.305  0.00  0.00    +0.256 C 
BRANCH  19  20
ATOM     20  C   UNL     1       3.886  -6.399  26.194  0.00  0.00    +0.006 C 
ATOM     21  C   UNL     1       4.762  -6.765  27.144  0.00  0.00    +0.007 C 
ENDBRANCH  19  20
ENDBRANCH  18  19
ENDBRANCH  15  18
BRANCH  16  22
ATOM     22  O   UNL     1       4.022  -4.900  22.635  0.00  0.00    -0.484 OA
BRANCH  22  23
ATOM     23  C   UNL     1       4.795  -6.099  22.601  0.00  0.00    +0.256 C 
BRANCH  23  24
ATOM     24  C   UNL     1       5.856  -5.938  21.552  0.00  0.00    +0.006 C 
ATOM     25  C   UNL     1       7.176  -6.006  21.773  0.00  0.00    +0.007 C 
ENDBRANCH  23  24
ENDBRANCH  22  23
ENDBRANCH  16  22
ENDBRANCH  11  12
BRANCH  10  26
ATOM     26  O   UNL     1      11.677   1.331  24.074  0.00  0.00    -0.506 OA
ATOM     27  H   UNL     1      12.270   2.087  23.941  0.00  0.00    +0.292 HD
ENDBRANCH  10  26
BRANCH   1  28
ATOM     28  O   UNL     1       8.945  -2.961  23.698  0.00  0.00    -0.361 OA
BRANCH  28  29
ATOM     29  C   UNL     1       9.478  -3.777  24.743  0.00  0.00    +0.188 C 
BRANCH  29  31
ATOM     30  C   UNL     1       7.485  -5.111  25.476  0.00  0.00    +0.006 C 
ATOM     31  C   UNL     1       8.356  -4.112  25.671  0.00  0.00    -0.007 C 
ENDBRANCH  29  31
ENDBRANCH  28  29
ENDBRANCH   1  28
BRANCH   7  32
ATOM     32  O   UNL     1       8.376   4.753  23.422  0.00  0.00    -0.488 OA
BRANCH  32  33
ATOM     33  C   UNL     1       7.292   4.897  22.492  0.00  0.00    +0.256 C 
BRANCH  33  34
ATOM     34  C   UNL     1       7.367   6.238  21.835  0.00  0.00    +0.006 C 
ATOM     35  C   UNL     1       6.347   7.108  21.804  0.00  0.00    +0.007 C 
ENDBRANCH  33  34
ENDBRANCH  32  33
ENDBRANCH   7  32
TORSDOF 14
ENDMDL
MODEL 5
REMARK VINA RESULT:      -5.7      2.632      9.153
REMARK  Name = 
REMARK  14 active torsions:
REMARK  status: ('A' for Active; 'I' for Inactive)
REMARK    1  A    between atoms: C_2  and  C_3
REMARK    2  A    between atoms: C_3  and  O_4
REMARK    3  A    between atoms: O_4  and  C_5
REMARK    4  A    between atoms: C_6  and  C_21
REMARK    5  A    between atoms: C_10  and  O_17
REMARK    6  A    between atoms: C_12  and  O_16
REMARK    7  A    between atoms: O_17  and  C_18
REMARK    8  A    between atoms: C_18  and  C_19
REMARK    9  A    between atoms: C_23  and  O_31
REMARK   10  A    between atoms: C_24  and  O_27
REMARK   11  A    between atoms: O_27  and  C_28
REMARK   12  A    between atoms: C_28  and  C_29
REMARK   13  A    between atoms: O_31  and  C_32
REMARK   14  A    between atoms: C_32  and  C_33
REMARK                            x       y       z     vdW  Elec       q    Type
REMARK                         _______ _______ _______ _____ _____    ______ ____
ROOT
ATOM      1  C   UNL     1       8.502  -0.709  23.981  0.00  0.00    +0.234 C 
ATOM      2  C   UNL     1       8.513  -2.152  24.437  0.00  0.00    +0.203 C 
ATOM      3  O   UNL     1       9.155  -2.569  25.398  0.00  0.00    -0.289 OA
ATOM      4  C   UNL     1       7.654  -3.059  23.690  0.00  0.00    +0.103 A 
ATOM      5  C   UNL     1       6.514  -2.529  23.084  0.00  0.00    +0.139 A 
ATOM      6  C   UNL     1       5.571  -3.418  22.551  0.00  0.00    +0.092 A 
ATOM      7  C   UNL     1       5.773  -4.806  22.636  0.00  0.00    +0.128 A 
ATOM      8  C   UNL     1       6.984  -5.304  23.117  0.00  0.00    +0.092 A 
ATOM      9  O   UNL     1       6.268  -1.182  22.966  0.00  0.00    -0.480 OA
ATOM     10  C   UNL     1       7.918  -4.431  23.652  0.00  0.00    +0.134 A 
ATOM     11  C   UNL     1       7.008  -0.297  23.853  0.00  0.00    +0.240 C 
ENDROOT
BRANCH  11  12
ATOM     12  C   UNL     1       6.777   1.156  23.379  0.00  0.00    -0.001 A 
ATOM     13  C   UNL     1       7.382   1.666  22.221  0.00  0.00    +0.011 A 
ATOM     14  C   UNL     1       7.276   3.010  21.858  0.00  0.00    +0.050 A 
ATOM     15  C   UNL     1       6.529   3.902  22.619  0.00  0.00    +0.162 A 
ATOM     16  C   UNL     1       5.842   3.410  23.745  0.00  0.00    +0.163 A 
ATOM     17  C   UNL     1       6.004   2.059  24.139  0.00  0.00    +0.056 A 
BRANCH  15  18
ATOM     18  O   UNL     1       6.376   5.230  22.286  0.00  0.00    -0.484 OA
BRANCH  18  19
ATOM     19  C   UNL     1       7.568   5.908  21.877  0.00  0.00    +0.256 C 
BRANCH  19  20
ATOM     20  C   UNL     1       8.211   6.551  23.070  0.00  0.00    +0.006 C 
ATOM     21  C   UNL     1       9.486   6.343  23.436  0.00  0.00    +0.007 C 
ENDBRANCH  19  20
ENDBRANCH  18  19
ENDBRANCH  15  18
BRANCH  16  22
ATOM     22  O   UNL     1       5.070   4.315  24.434  0.00  0.00    -0.484 OA
BRANCH  22  23
ATOM     23  C   UNL     1       3.677   4.018  24.517  0.00  0.00    +0.256 C 
BRANCH  23  24
ATOM     24  C   UNL     1       3.063   4.291  23.175  0.00  0.00    +0.006 C 
ATOM     25  C   UNL     1       2.749   3.357  22.266  0.00  0.00    +0.007 C 
ENDBRANCH  23  24
ENDBRANCH  22  23
ENDBRANCH  16  22
ENDBRANCH  11  12
BRANCH  10  26
ATOM     26  O   UNL     1       9.103  -4.930  24.108  0.00  0.00    -0.506 OA
ATOM     27  H   UNL     1       9.156  -4.850  25.074  0.00  0.00    +0.292 HD
ENDBRANCH  10  26
BRANCH   1  28
ATOM     28  O   UNL     1       9.189   0.101  24.950  0.00  0.00    -0.361 OA
BRANCH  28  29
ATOM     29  C   UNL     1      10.407   0.660  24.454  0.00  0.00    +0.188 C 
BRANCH  29  31
ATOM     30  C   UNL     1      10.796   2.880  23.355  0.00  0.00    +0.006 C 
ATOM     31  C   UNL     1      10.194   2.129  24.286  0.00  0.00    -0.007 C 
ENDBRANCH  29  31
ENDBRANCH  28  29
ENDBRANCH   1  28
BRANCH   7  32
ATOM     32  O   UNL     1       4.738  -5.619  22.237  0.00  0.00    -0.488 OA
BRANCH  32  33
ATOM     33  C   UNL     1       3.666  -5.708  23.189  0.00  0.00    +0.256 C 
BRANCH  33  34
ATOM     34  C   UNL     1       3.890  -6.879  24.092  0.00  0.00    +0.006 C 
ATOM     35  C   UNL     1       4.295  -6.767  25.365  0.00  0.00    +0.007 C 
ENDBRANCH  33  34
ENDBRANCH  32  33
ENDBRANCH   7  32
TORSDOF 14
ENDMDL
MODEL 6
REMARK VINA RESULT:      -5.7      2.877      5.104
REMARK  Name = 
REMARK  14 active torsions:
REMARK  status: ('A' for Active; 'I' for Inactive)
REMARK    1  A    between atoms: C_2  and  C_3
REMARK    2  A    between atoms: C_3  and  O_4
REMARK    3  A    between atoms: O_4  and  C_5
REMARK    4  A    between atoms: C_6  and  C_21
REMARK    5  A    between atoms: C_10  and  O_17
REMARK    6  A    between atoms: C_12  and  O_16
REMARK    7  A    between atoms: O_17  and  C_18
REMARK    8  A    between atoms: C_18  and  C_19
REMARK    9  A    between atoms: C_23  and  O_31
REMARK   10  A    between atoms: C_24  and  O_27
REMARK   11  A    between atoms: O_27  and  C_28
REMARK   12  A    between atoms: C_28  and  C_29
REMARK   13  A    between atoms: O_31  and  C_32
REMARK   14  A    between atoms: C_32  and  C_33
REMARK                            x       y       z     vdW  Elec       q    Type
REMARK                         _______ _______ _______ _____ _____    ______ ____
ROOT
ATOM      1  C   UNL     1       8.264  -3.181  24.039  0.00  0.00    +0.234 C 
ATOM      2  C   UNL     1       9.359  -2.231  23.606  0.00  0.00    +0.203 C 
ATOM      3  O   UNL     1      10.524  -2.564  23.400  0.00  0.00    -0.289 OA
ATOM      4  C   UNL     1       8.949  -0.852  23.383  0.00  0.00    +0.103 A 
ATOM      5  C   UNL     1       7.630  -0.618  22.995  0.00  0.00    +0.139 A 
ATOM      6  C   UNL     1       7.282   0.672  22.569  0.00  0.00    +0.092 A 
ATOM      7  C   UNL     1       8.246   1.693  22.530  0.00  0.00    +0.128 A 
ATOM      8  C   UNL     1       9.518   1.469  23.058  0.00  0.00    +0.092 A 
ATOM      9  O   UNL     1       6.645  -1.575  23.019  0.00  0.00    -0.480 OA
ATOM     10  C   UNL     1       9.871   0.195  23.473  0.00  0.00    +0.134 A 
ATOM     11  C   UNL     1       7.077  -2.964  23.059  0.00  0.00    +0.240 C 
ENDROOT
BRANCH  11  12
ATOM     12  C   UNL     1       5.837  -3.842  23.342  0.00  0.00    -0.001 A 
ATOM     13  C   UNL     1       5.563  -5.003  22.605  0.00  0.00    +0.011 A 
ATOM     14  C   UNL     1       4.384  -5.730  22.773  0.00  0.00    +0.050 A 
ATOM     15  C   UNL     1       3.434  -5.349  23.715  0.00  0.00    +0.162 A 
ATOM     16  C   UNL     1       3.710  -4.234  24.530  0.00  0.00    +0.163 A 
ATOM     17  C   UNL     1       4.880  -3.469  24.311  0.00  0.00    +0.056 A 
BRANCH  15  18
ATOM     18  O   UNL     1       2.268  -6.049  23.933  0.00  0.00    -0.484 OA
BRANCH  18  19
ATOM     19  C   UNL     1       1.973  -7.074  22.980  0.00  0.00    +0.256 C 
BRANCH  19  20
ATOM     20  C   UNL     1       1.530  -8.313  23.701  0.00  0.00    +0.006 C 
ATOM     21  C   UNL     1       1.997  -8.687  24.903  0.00  0.00    +0.007 C 
ENDBRANCH  19  20
ENDBRANCH  18  19
ENDBRANCH  15  18
BRANCH  16  22
ATOM     22  O   UNL     1       2.770  -3.929  25.484  0.00  0.00    -0.484 OA
BRANCH  22  23
ATOM     23  C   UNL     1       3.199  -4.024  26.842  0.00  0.00    +0.256 C 
BRANCH  23  24
ATOM     24  C   UNL     1       2.839  -5.390  27.348  0.00  0.00    +0.006 C 
ATOM     25  C   UNL     1       3.682  -6.429  27.431  0.00  0.00    +0.007 C 
ENDBRANCH  23  24
ENDBRANCH  22  23
ENDBRANCH  16  22
ENDBRANCH  11  12
BRANCH  10  26
ATOM     26  O   UNL     1      11.114  -0.008  23.998  0.00  0.00    -0.506 OA
ATOM     27  H   UNL     1      11.053  -0.233  24.940  0.00  0.00    +0.292 HD
ENDBRANCH  10  26
BRANCH   1  28
ATOM     28  O   UNL     1       8.755  -4.532  23.978  0.00  0.00    -0.361 OA
BRANCH  28  29
ATOM     29  C   UNL     1       9.057  -5.080  25.262  0.00  0.00    +0.188 C 
BRANCH  29  31
ATOM     30  C   UNL     1       7.209  -5.248  26.948  0.00  0.00    +0.006 C 
ATOM     31  C   UNL     1       8.075  -4.516  26.236  0.00  0.00    -0.007 C 
ENDBRANCH  29  31
ENDBRANCH  28  29
ENDBRANCH   1  28
BRANCH   7  32
ATOM     32  O   UNL     1       7.877   2.886  21.953  0.00  0.00    -0.488 OA
BRANCH  32  33
ATOM     33  C   UNL     1       7.965   4.014  22.838  0.00  0.00    +0.256 C 
BRANCH  33  34
ATOM     34  C   UNL     1       7.064   5.105  22.354  0.00  0.00    +0.006 C 
ATOM     35  C   UNL     1       7.479   6.356  22.106  0.00  0.00    +0.007 C 
ENDBRANCH  33  34
ENDBRANCH  32  33
ENDBRANCH   7  32
TORSDOF 14
ENDMDL
MODEL 7
REMARK VINA RESULT:      -5.4      2.818      9.258
REMARK  Name = 
REMARK  14 active torsions:
REMARK  status: ('A' for Active; 'I' for Inactive)
REMARK    1  A    between atoms: C_2  and  C_3
REMARK    2  A    between atoms: C_3  and  O_4
REMARK    3  A    between atoms: O_4  and  C_5
REMARK    4  A    between atoms: C_6  and  C_21
REMARK    5  A    between atoms: C_10  and  O_17
REMARK    6  A    between atoms: C_12  and  O_16
REMARK    7  A    between atoms: O_17  and  C_18
REMARK    8  A    between atoms: C_18  and  C_19
REMARK    9  A    between atoms: C_23  and  O_31
REMARK   10  A    between atoms: C_24  and  O_27
REMARK   11  A    between atoms: O_27  and  C_28
REMARK   12  A    between atoms: C_28  and  C_29
REMARK   13  A    between atoms: O_31  and  C_32
REMARK   14  A    between atoms: C_32  and  C_33
REMARK                            x       y       z     vdW  Elec       q    Type
REMARK                         _______ _______ _______ _____ _____    ______ ____
ROOT
ATOM      1  C   UNL     1       6.863  -2.109  25.677  0.00  0.00    +0.234 C 
ATOM      2  C   UNL     1       6.285  -3.398  26.218  0.00  0.00    +0.203 C 
ATOM      3  O   UNL     1       6.305  -3.723  27.402  0.00  0.00    -0.289 OA
ATOM      4  C   UNL     1       5.630  -4.257  25.242  0.00  0.00    +0.103 A 
ATOM      5  C   UNL     1       5.058  -3.654  24.121  0.00  0.00    +0.139 A 
ATOM      6  C   UNL     1       4.242  -4.434  23.291  0.00  0.00    +0.092 A 
ATOM      7  C   UNL     1       4.005  -5.786  23.592  0.00  0.00    +0.128 A 
ATOM      8  C   UNL     1       4.702  -6.398  24.634  0.00  0.00    +0.092 A 
ATOM      9  O   UNL     1       5.260  -2.340  23.774  0.00  0.00    -0.480 OA
ATOM     10  C   UNL     1       5.504  -5.632  25.463  0.00  0.00    +0.134 A 
ATOM     11  C   UNL     1       5.747  -1.450  24.818  0.00  0.00    +0.240 C 
ENDROOT
BRANCH  11  12
ATOM     12  C   UNL     1       6.146  -0.111  24.157  0.00  0.00    -0.001 A 
ATOM     13  C   UNL     1       5.567   1.108  24.538  0.00  0.00    +0.011 A 
ATOM     14  C   UNL     1       5.832   2.300  23.862  0.00  0.00    +0.050 A 
ATOM     15  C   UNL     1       6.720   2.336  22.792  0.00  0.00    +0.162 A 
ATOM     16  C   UNL     1       7.381   1.146  22.431  0.00  0.00    +0.163 A 
ATOM     17  C   UNL     1       7.061  -0.069  23.083  0.00  0.00    +0.056 A 
BRANCH  15  18
ATOM     18  O   UNL     1       7.031   3.492  22.110  0.00  0.00    -0.484 OA
BRANCH  18  19
ATOM     19  C   UNL     1       6.557   4.706  22.701  0.00  0.00    +0.256 C 
BRANCH  19  20
ATOM     20  C   UNL     1       7.284   5.871  22.098  0.00  0.00    +0.006 C 
ATOM     21  C   UNL     1       7.301   7.102  22.634  0.00  0.00    +0.007 C 
ENDBRANCH  19  20
ENDBRANCH  18  19
ENDBRANCH  15  18
BRANCH  16  22
ATOM     22  O   UNL     1       8.291   1.241  21.405  0.00  0.00    -0.484 OA
BRANCH  22  23
ATOM     23  C   UNL     1       9.646   0.941  21.737  0.00  0.00    +0.256 C 
BRANCH  23  24
ATOM     24  C   UNL     1      10.343   2.232  22.050  0.00  0.00    +0.006 C 
ATOM     25  C   UNL     1      10.454   2.773  23.272  0.00  0.00    +0.007 C 
ENDBRANCH  23  24
ENDBRANCH  22  23
ENDBRANCH  16  22
ENDBRANCH  11  12
BRANCH  10  26
ATOM     26  O   UNL     1       6.189  -6.244  26.472  0.00  0.00    -0.506 OA
ATOM     27  H   UNL     1       6.015  -7.199  26.470  0.00  0.00    +0.292 HD
ENDBRANCH  10  26
BRANCH   1  28
ATOM     28  O   UNL     1       7.248  -1.263  26.775  0.00  0.00    -0.361 OA
BRANCH  28  29
ATOM     29  C   UNL     1       8.664  -1.159  26.936  0.00  0.00    +0.188 C 
BRANCH  29  31
ATOM     30  C   UNL     1      10.096  -0.036  25.212  0.00  0.00    +0.006 C 
ATOM     31  C   UNL     1       9.264  -1.020  25.575  0.00  0.00    -0.007 C 
ENDBRANCH  29  31
ENDBRANCH  28  29
ENDBRANCH   1  28
BRANCH   7  32
ATOM     32  O   UNL     1       3.071  -6.447  22.828  0.00  0.00    -0.488 OA
BRANCH  32  33
ATOM     33  C   UNL     1       1.727  -5.978  23.015  0.00  0.00    +0.256 C 
BRANCH  33  34
ATOM     34  C   UNL     1       0.760  -7.052  22.629  0.00  0.00    +0.006 C 
ATOM     35  C   UNL     1       1.111  -8.162  21.963  0.00  0.00    +0.007 C 
ENDBRANCH  33  34
ENDBRANCH  32  33
ENDBRANCH   7  32
TORSDOF 14
ENDMDL
MODEL 8
REMARK VINA RESULT:      -5.4      2.477      9.636
REMARK  Name = 
REMARK  14 active torsions:
REMARK  status: ('A' for Active; 'I' for Inactive)
REMARK    1  A    between atoms: C_2  and  C_3
REMARK    2  A    between atoms: C_3  and  O_4
REMARK    3  A    between atoms: O_4  and  C_5
REMARK    4  A    between atoms: C_6  and  C_21
REMARK    5  A    between atoms: C_10  and  O_17
REMARK    6  A    between atoms: C_12  and  O_16
REMARK    7  A    between atoms: O_17  and  C_18
REMARK    8  A    between atoms: C_18  and  C_19
REMARK    9  A    between atoms: C_23  and  O_31
REMARK   10  A    between atoms: C_24  and  O_27
REMARK   11  A    between atoms: O_27  and  C_28
REMARK   12  A    between atoms: C_28  and  C_29
REMARK   13  A    between atoms: O_31  and  C_32
REMARK   14  A    between atoms: C_32  and  C_33
REMARK                            x       y       z     vdW  Elec       q    Type
REMARK                         _______ _______ _______ _____ _____    ______ ____
ROOT
ATOM      1  C   UNL     1       8.164  -2.073  23.904  0.00  0.00    +0.234 C 
ATOM      2  C   UNL     1       8.032  -3.574  23.775  0.00  0.00    +0.203 C 
ATOM      3  O   UNL     1       8.928  -4.373  24.036  0.00  0.00    -0.289 OA
ATOM      4  C   UNL     1       6.725  -4.061  23.358  0.00  0.00    +0.103 A 
ATOM      5  C   UNL     1       5.608  -3.289  23.676  0.00  0.00    +0.139 A 
ATOM      6  C   UNL     1       4.337  -3.845  23.476  0.00  0.00    +0.092 A 
ATOM      7  C   UNL     1       4.202  -5.151  22.973  0.00  0.00    +0.128 A 
ATOM      8  C   UNL     1       5.328  -5.844  22.530  0.00  0.00    +0.092 A 
ATOM      9  O   UNL     1       5.680  -2.006  24.163  0.00  0.00    -0.480 OA
ATOM     10  C   UNL     1       6.587  -5.304  22.732  0.00  0.00    +0.134 A 
ATOM     11  C   UNL     1       6.948  -1.592  24.745  0.00  0.00    +0.240 C 
ENDROOT
BRANCH  11  12
ATOM     12  C   UNL     1       6.889  -0.066  24.983  0.00  0.00    -0.001 A 
ATOM     13  C   UNL     1       7.249   0.510  26.210  0.00  0.00    +0.011 A 
ATOM     14  C   UNL     1       7.081   1.871  26.470  0.00  0.00    +0.050 A 
ATOM     15  C   UNL     1       6.576   2.730  25.499  0.00  0.00    +0.162 A 
ATOM     16  C   UNL     1       6.277   2.202  24.228  0.00  0.00    +0.163 A 
ATOM     17  C   UNL     1       6.394   0.811  23.994  0.00  0.00    +0.056 A 
BRANCH  15  18
ATOM     18  O   UNL     1       6.415   4.083  25.702  0.00  0.00    -0.484 OA
BRANCH  18  19
ATOM     19  C   UNL     1       7.339   4.687  26.613  0.00  0.00    +0.256 C 
BRANCH  19  20
ATOM     20  C   UNL     1       8.439   5.352  25.840  0.00  0.00    +0.006 C 
ATOM     21  C   UNL     1       8.399   6.629  25.428  0.00  0.00    +0.007 C 
ENDBRANCH  19  20
ENDBRANCH  18  19
ENDBRANCH  15  18
BRANCH  16  22
ATOM     22  O   UNL     1       5.835   3.097  23.285  0.00  0.00    -0.484 OA
BRANCH  22  23
ATOM     23  C   UNL     1       6.651   3.241  22.123  0.00  0.00    +0.256 C 
BRANCH  23  24
ATOM     24  C   UNL     1       7.547   4.427  22.330  0.00  0.00    +0.006 C 
ATOM     25  C   UNL     1       7.224   5.696  22.046  0.00  0.00    +0.007 C 
ENDBRANCH  23  24
ENDBRANCH  22  23
ENDBRANCH  16  22
ENDBRANCH  11  12
BRANCH  10  26
ATOM     26  O   UNL     1       7.680  -5.987  22.283  0.00  0.00    -0.506 OA
ATOM     27  H   UNL     1       8.418  -5.380  22.120  0.00  0.00    +0.292 HD
ENDBRANCH  10  26
BRANCH   1  28
ATOM     28  O   UNL     1       9.408  -1.759  24.554  0.00  0.00    -0.361 OA
BRANCH  28  29
ATOM     29  C   UNL     1      10.252  -0.909  23.775  0.00  0.00    +0.188 C 
BRANCH  29  31
ATOM     30  C   UNL     1      10.234   1.548  24.273  0.00  0.00    +0.006 C 
ATOM     31  C   UNL     1      10.568   0.294  24.602  0.00  0.00    -0.007 C 
ENDBRANCH  29  31
ENDBRANCH  28  29
ENDBRANCH   1  28
BRANCH   7  32
ATOM     32  O   UNL     1       2.936  -5.690  22.953  0.00  0.00    -0.488 OA
BRANCH  32  33
ATOM     33  C   UNL     1       2.811  -6.913  23.694  0.00  0.00    +0.256 C 
BRANCH  33  34
ATOM     34  C   UNL     1       1.549  -7.612  23.303  0.00  0.00    +0.006 C 
ATOM     35  C   UNL     1       1.245  -7.944  22.039  0.00  0.00    +0.007 C 
ENDBRANCH  33  34
ENDBRANCH  32  33
ENDBRANCH   7  32
TORSDOF 14
ENDMDL
MODEL 9
REMARK VINA RESULT:      -5.3      2.732      4.751
REMARK  Name = 
REMARK  14 active torsions:
REMARK  status: ('A' for Active; 'I' for Inactive)
REMARK    1  A    between atoms: C_2  and  C_3
REMARK    2  A    between atoms: C_3  and  O_4
REMARK    3  A    between atoms: O_4  and  C_5
REMARK    4  A    between atoms: C_6  and  C_21
REMARK    5  A    between atoms: C_10  and  O_17
REMARK    6  A    between atoms: C_12  and  O_16
REMARK    7  A    between atoms: O_17  and  C_18
REMARK    8  A    between atoms: C_18  and  C_19
REMARK    9  A    between atoms: C_23  and  O_31
REMARK   10  A    between atoms: C_24  and  O_27
REMARK   11  A    between atoms: O_27  and  C_28
REMARK   12  A    between atoms: C_28  and  C_29
REMARK   13  A    between atoms: O_31  and  C_32
REMARK   14  A    between atoms: C_32  and  C_33
REMARK                            x       y       z     vdW  Elec       q    Type
REMARK                         _______ _______ _______ _____ _____    ______ ____
ROOT
ATOM      1  C   UNL     1       8.592  -2.175  23.886  0.00  0.00    +0.234 C 
ATOM      2  C   UNL     1       9.553  -1.086  23.462  0.00  0.00    +0.203 C 
ATOM      3  O   UNL     1      10.751  -1.262  23.253  0.00  0.00    -0.289 OA
ATOM      4  C   UNL     1       8.967   0.230  23.253  0.00  0.00    +0.103 A 
ATOM      5  C   UNL     1       7.628   0.295  22.867  0.00  0.00    +0.139 A 
ATOM      6  C   UNL     1       7.115   1.532  22.454  0.00  0.00    +0.092 A 
ATOM      7  C   UNL     1       7.938   2.671  22.425  0.00  0.00    +0.128 A 
ATOM      8  C   UNL     1       9.229   2.608  22.951  0.00  0.00    +0.092 A 
ATOM      9  O   UNL     1       6.776  -0.783  22.881  0.00  0.00    -0.480 OA
ATOM     10  C   UNL     1       9.744   1.388  23.354  0.00  0.00    +0.134 A 
ATOM     11  C   UNL     1       7.386  -2.104  22.908  0.00  0.00    +0.240 C 
ENDROOT
BRANCH  11  12
ATOM     12  C   UNL     1       6.271  -3.139  23.182  0.00  0.00    -0.001 A 
ATOM     13  C   UNL     1       6.167  -4.332  22.451  0.00  0.00    +0.011 A 
ATOM     14  C   UNL     1       5.094  -5.210  22.610  0.00  0.00    +0.050 A 
ATOM     15  C   UNL     1       4.087  -4.953  23.535  0.00  0.00    +0.162 A 
ATOM     16  C   UNL     1       4.198  -3.805  24.343  0.00  0.00    +0.163 A 
ATOM     17  C   UNL     1       5.258  -2.891  24.133  0.00  0.00    +0.056 A 
BRANCH  15  18
ATOM     18  O   UNL     1       3.022  -5.802  23.744  0.00  0.00    -0.484 OA
BRANCH  18  19
ATOM     19  C   UNL     1       3.361  -7.137  24.132  0.00  0.00    +0.256 C 
BRANCH  19  20
ATOM     20  C   UNL     1       3.806  -7.142  25.564  0.00  0.00    +0.006 C 
ATOM     21  C   UNL     1       2.989  -6.899  26.602  0.00  0.00    +0.007 C 
ENDBRANCH  19  20
ENDBRANCH  18  19
ENDBRANCH  15  18
BRANCH  16  22
ATOM     22  O   UNL     1       3.211  -3.622  25.281  0.00  0.00    -0.484 OA
BRANCH  22  23
ATOM     23  C   UNL     1       3.520  -2.731  26.352  0.00  0.00    +0.256 C 
BRANCH  23  24
ATOM     24  C   UNL     1       4.203  -3.520  27.431  0.00  0.00    +0.006 C 
ATOM     25  C   UNL     1       3.669  -3.821  28.622  0.00  0.00    +0.007 C 
ENDBRANCH  23  24
ENDBRANCH  22  23
ENDBRANCH  16  22
ENDBRANCH  11  12
BRANCH  10  26
ATOM     26  O   UNL     1      11.004   1.342  23.877  0.00  0.00    -0.506 OA
ATOM     27  H   UNL     1      11.651   1.127  23.187  0.00  0.00    +0.292 HD
ENDBRANCH  10  26
BRANCH   1  28
ATOM     28  O   UNL     1       9.255  -3.449  23.811  0.00  0.00    -0.361 OA
BRANCH  28  29
ATOM     29  C   UNL     1       9.443  -4.062  25.088  0.00  0.00    +0.188 C 
BRANCH  29  31
ATOM     30  C   UNL     1       7.449  -5.267  26.015  0.00  0.00    +0.006 C 
ATOM     31  C   UNL     1       8.496  -5.213  25.181  0.00  0.00    -0.007 C 
ENDBRANCH  29  31
ENDBRANCH  28  29
ENDBRANCH   1  28
BRANCH   7  32
ATOM     32  O   UNL     1       7.416   3.811  21.860  0.00  0.00    -0.488 OA
BRANCH  32  33
ATOM     33  C   UNL     1       7.288   4.910  22.775  0.00  0.00    +0.256 C 
BRANCH  33  34
ATOM     34  C   UNL     1       5.842   5.160  23.064  0.00  0.00    +0.006 C 
ATOM     35  C   UNL     1       5.219   6.314  22.786  0.00  0.00    +0.007 C 
ENDBRANCH  33  34
ENDBRANCH  32  33
ENDBRANCH   7  32
TORSDOF 14
ENDMDL
