MODEL 1
REMARK VINA RESULT:      -8.1      0.000      0.000
REMARK  Name = 
REMARK  11 active torsions:
REMARK  status: ('A' for Active; 'I' for Inactive)
REMARK    1  A    between atoms: C_1  and  C_2
REMARK    2  A    between atoms: C_2  and  C_3
REMARK    3  A    between atoms: C_2  and  C_4
REMARK    4  A    between atoms: C_2  and  C_5
REMARK    5  A    between atoms: C_5  and  C_7
REMARK    6  A    between atoms: C_8  and  O_28
REMARK    7  A    between atoms: C_12  and  O_13
REMARK    8  A    between atoms: C_15  and  C_20
REMARK    9  A    between atoms: C_16  and  O_19
REMARK   10  A    between atoms: C_22  and  O_27
REMARK   11  A    between atoms: C_23  and  O_26
REMARK                            x       y       z     vdW  Elec       q    Type
REMARK                         _______ _______ _______ _____ _____    ______ ____
ROOT
ATOM      1  C   UNL     1       8.289  -2.313  23.292  0.00  0.00    +0.102 A 
ATOM      2  C   UNL     1       9.601  -2.156  23.778  0.00  0.00    +0.134 A 
ATOM      3  C   UNL     1      10.177  -0.887  23.926  0.00  0.00    +0.093 A 
ATOM      4  C   UNL     1       9.472   0.259  23.592  0.00  0.00    +0.147 A 
ATOM      5  O   UNL     1      10.127   1.447  23.813  0.00  0.00    -0.451 OA
ATOM      6  C   UNL     1       9.517   2.622  23.432  0.00  0.00    +0.181 A 
ATOM      7  C   UNL     1       8.287   2.682  22.883  0.00  0.00    +0.208 A 
ATOM      8  C   UNL     1       7.510   1.429  22.691  0.00  0.00    +0.238 A 
ATOM      9  O   UNL     1       6.370   1.520  22.241  0.00  0.00    -0.283 OA
ATOM     10  C   UNL     1       8.188   0.161  23.054  0.00  0.00    +0.110 A 
ATOM     11  C   UNL     1       7.618  -1.120  22.880  0.00  0.00    +0.145 A 
ENDROOT
BRANCH   6  12
ATOM     12  C   UNL     1      10.365   3.837  23.549  0.00  0.00    +0.025 A 
ATOM     13  C   UNL     1       9.848   5.005  24.135  0.00  0.00    +0.015 A 
ATOM     14  C   UNL     1      10.681   6.099  24.406  0.00  0.00    +0.050 A 
ATOM     15  C   UNL     1      12.029   6.018  24.101  0.00  0.00    +0.158 A 
ATOM     16  C   UNL     1      12.548   4.888  23.479  0.00  0.00    +0.159 A 
ATOM     17  C   UNL     1      11.718   3.824  23.161  0.00  0.00    +0.060 A 
BRANCH  15  18
ATOM     18  O   UNL     1      12.859   7.046  24.439  0.00  0.00    -0.503 OA
ATOM     19  H   UNL     1      13.145   7.421  23.582  0.00  0.00    +0.292 HD
ENDBRANCH  15  18
BRANCH  16  20
ATOM     20  O   UNL     1      13.893   4.845  23.236  0.00  0.00    -0.503 OA
ATOM     21  H   UNL     1      14.183   5.749  23.016  0.00  0.00    +0.292 HD
ENDBRANCH  16  20
ENDBRANCH   6  12
BRANCH   1  22
ATOM     22  C   UNL     1       7.547  -3.641  23.169  0.00  0.00    +0.176 C 
ATOM     23  O   UNL     1       7.462  -4.103  22.021  0.00  0.00    -0.291 OA
BRANCH  22  25
ATOM     24  C   UNL     1       6.340  -3.435  25.378  0.00  0.00    +0.019 C 
ATOM     25  C   UNL     1       6.921  -4.442  24.343  0.00  0.00    +0.025 C 
ATOM     26  C   UNL     1       5.709  -5.248  23.846  0.00  0.00    +0.019 C 
ATOM     27  C   UNL     1       7.956  -5.251  25.147  0.00  0.00    +0.019 C 
ENDBRANCH  22  25
ENDBRANCH   1  22
BRANCH   2  28
ATOM     28  O   UNL     1      10.392  -3.210  24.103  0.00  0.00    -0.506 OA
ATOM     29  H   UNL     1      11.047  -2.962  24.778  0.00  0.00    +0.292 HD
ENDBRANCH   2  28
BRANCH   7  30
ATOM     30  O   UNL     1       7.732   3.854  22.408  0.00  0.00    -0.501 OA
ATOM     31  H   UNL     1       8.033   4.550  23.025  0.00  0.00    +0.292 HD
ENDBRANCH   7  30
BRANCH  11  32
ATOM     32  O   UNL     1       6.395  -1.174  22.248  0.00  0.00    -0.505 OA
ATOM     33  H   UNL     1       5.920  -0.319  22.362  0.00  0.00    +0.292 HD
ENDBRANCH  11  32
TORSDOF 8
ENDMDL
MODEL 2
REMARK VINA RESULT:      -7.8      2.366      9.248
REMARK  Name = 
REMARK  11 active torsions:
REMARK  status: ('A' for Active; 'I' for Inactive)
REMARK    1  A    between atoms: C_1  and  C_2
REMARK    2  A    between atoms: C_2  and  C_3
REMARK    3  A    between atoms: C_2  and  C_4
REMARK    4  A    between atoms: C_2  and  C_5
REMARK    5  A    between atoms: C_5  and  C_7
REMARK    6  A    between atoms: C_8  and  O_28
REMARK    7  A    between atoms: C_12  and  O_13
REMARK    8  A    between atoms: C_15  and  C_20
REMARK    9  A    between atoms: C_16  and  O_19
REMARK   10  A    between atoms: C_22  and  O_27
REMARK   11  A    between atoms: C_23  and  O_26
REMARK                            x       y       z     vdW  Elec       q    Type
REMARK                         _______ _______ _______ _____ _____    ______ ____
ROOT
ATOM      1  C   UNL     1       8.382   0.411  22.953  0.00  0.00    +0.102 A 
ATOM      2  C   UNL     1       6.980   0.357  23.080  0.00  0.00    +0.134 A 
ATOM      3  C   UNL     1       6.334  -0.801  23.535  0.00  0.00    +0.093 A 
ATOM      4  C   UNL     1       7.057  -1.935  23.872  0.00  0.00    +0.147 A 
ATOM      5  O   UNL     1       6.317  -2.996  24.339  0.00  0.00    -0.451 OA
ATOM      6  C   UNL     1       6.961  -4.181  24.620  0.00  0.00    +0.181 A 
ATOM      7  C   UNL     1       8.292  -4.355  24.497  0.00  0.00    +0.208 A 
ATOM      8  C   UNL     1       9.143  -3.216  24.066  0.00  0.00    +0.238 A 
ATOM      9  O   UNL     1      10.358  -3.388  24.017  0.00  0.00    -0.283 OA
ATOM     10  C   UNL     1       8.443  -1.956  23.714  0.00  0.00    +0.110 A 
ATOM     11  C   UNL     1       9.092  -0.798  23.230  0.00  0.00    +0.145 A 
ENDROOT
BRANCH   6  12
ATOM     12  C   UNL     1       6.065  -5.320  24.952  0.00  0.00    +0.025 A 
ATOM     13  C   UNL     1       5.910  -5.729  26.287  0.00  0.00    +0.015 A 
ATOM     14  C   UNL     1       4.945  -6.684  26.635  0.00  0.00    +0.050 A 
ATOM     15  C   UNL     1       4.131  -7.218  25.651  0.00  0.00    +0.158 A 
ATOM     16  C   UNL     1       4.302  -6.857  24.319  0.00  0.00    +0.159 A 
ATOM     17  C   UNL     1       5.290  -5.952  23.961  0.00  0.00    +0.060 A 
BRANCH  15  18
ATOM     18  O   UNL     1       3.136  -8.083  25.995  0.00  0.00    -0.503 OA
ATOM     19  H   UNL     1       3.006  -8.637  25.199  0.00  0.00    +0.292 HD
ENDBRANCH  15  18
BRANCH  16  20
ATOM     20  O   UNL     1       3.446  -7.384  23.392  0.00  0.00    -0.503 OA
ATOM     21  H   UNL     1       3.984  -7.744  22.663  0.00  0.00    +0.292 HD
ENDBRANCH  16  20
ENDBRANCH   6  12
BRANCH   1  22
ATOM     22  C   UNL     1       9.182   1.644  22.543  0.00  0.00    +0.176 C 
ATOM     23  O   UNL     1       9.792   1.553  21.467  0.00  0.00    -0.291 OA
BRANCH  22  25
ATOM     24  C   UNL     1       8.861   2.694  24.817  0.00  0.00    +0.019 C 
ATOM     25  C   UNL     1       9.276   2.972  23.343  0.00  0.00    +0.025 C 
ATOM     26  C   UNL     1      10.739   3.440  23.421  0.00  0.00    +0.019 C 
ATOM     27  C   UNL     1       8.274   4.041  22.866  0.00  0.00    +0.019 C 
ENDBRANCH  22  25
ENDBRANCH   1  22
BRANCH   2  28
ATOM     28  O   UNL     1       6.175   1.396  22.746  0.00  0.00    -0.506 OA
ATOM     29  H   UNL     1       6.366   1.712  21.846  0.00  0.00    +0.292 HD
ENDBRANCH   2  28
BRANCH   7  30
ATOM     30  O   UNL     1       8.910  -5.578  24.679  0.00  0.00    -0.501 OA
ATOM     31  H   UNL     1       9.303  -5.799  23.812  0.00  0.00    +0.292 HD
ENDBRANCH   7  30
BRANCH  11  32
ATOM     32  O   UNL     1      10.444  -0.899  22.989  0.00  0.00    -0.505 OA
ATOM     33  H   UNL     1      10.859  -0.007  23.026  0.00  0.00    +0.292 HD
ENDBRANCH  11  32
TORSDOF 8
ENDMDL
MODEL 3
REMARK VINA RESULT:      -7.4      1.769      2.147
REMARK  Name = 
REMARK  11 active torsions:
REMARK  status: ('A' for Active; 'I' for Inactive)
REMARK    1  A    between atoms: C_1  and  C_2
REMARK    2  A    between atoms: C_2  and  C_3
REMARK    3  A    between atoms: C_2  and  C_4
REMARK    4  A    between atoms: C_2  and  C_5
REMARK    5  A    between atoms: C_5  and  C_7
REMARK    6  A    between atoms: C_8  and  O_28
REMARK    7  A    between atoms: C_12  and  O_13
REMARK    8  A    between atoms: C_15  and  C_20
REMARK    9  A    between atoms: C_16  and  O_19
REMARK   10  A    between atoms: C_22  and  O_27
REMARK   11  A    between atoms: C_23  and  O_26
REMARK                            x       y       z     vdW  Elec       q    Type
REMARK                         _______ _______ _______ _____ _____    ______ ____
ROOT
ATOM      1  C   UNL     1       7.075  -1.660  24.732  0.00  0.00    +0.102 A 
ATOM      2  C   UNL     1       7.205  -0.810  25.848  0.00  0.00    +0.134 A 
ATOM      3  C   UNL     1       7.876   0.417  25.755  0.00  0.00    +0.093 A 
ATOM      4  C   UNL     1       8.439   0.832  24.557  0.00  0.00    +0.147 A 
ATOM      5  O   UNL     1       9.040   2.069  24.579  0.00  0.00    -0.451 OA
ATOM      6  C   UNL     1       9.687   2.512  23.446  0.00  0.00    +0.181 A 
ATOM      7  C   UNL     1       9.736   1.816  22.293  0.00  0.00    +0.208 A 
ATOM      8  C   UNL     1       9.039   0.506  22.198  0.00  0.00    +0.238 A 
ATOM      9  O   UNL     1       9.054  -0.079  21.119  0.00  0.00    -0.283 OA
ATOM     10  C   UNL     1       8.387   0.007  23.434  0.00  0.00    +0.110 A 
ATOM     11  C   UNL     1       7.734  -1.242  23.535  0.00  0.00    +0.145 A 
ENDROOT
BRANCH   6  12
ATOM     12  C   UNL     1      10.451   3.776  23.614  0.00  0.00    +0.025 A 
ATOM     13  C   UNL     1       9.856   4.884  24.240  0.00  0.00    +0.015 A 
ATOM     14  C   UNL     1      10.613   6.020  24.556  0.00  0.00    +0.050 A 
ATOM     15  C   UNL     1      11.964   6.041  24.257  0.00  0.00    +0.158 A 
ATOM     16  C   UNL     1      12.559   4.972  23.596  0.00  0.00    +0.159 A 
ATOM     17  C   UNL     1      11.804   3.867  23.234  0.00  0.00    +0.060 A 
BRANCH  15  18
ATOM     18  O   UNL     1      12.722   7.108  24.638  0.00  0.00    -0.503 OA
ATOM     19  H   UNL     1      13.452   6.718  25.158  0.00  0.00    +0.292 HD
ENDBRANCH  15  18
BRANCH  16  20
ATOM     20  O   UNL     1      13.905   5.027  23.360  0.00  0.00    -0.503 OA
ATOM     21  H   UNL     1      14.310   5.546  24.079  0.00  0.00    +0.292 HD
ENDBRANCH  16  20
ENDBRANCH   6  12
BRANCH   1  22
ATOM     22  C   UNL     1       6.299  -2.974  24.712  0.00  0.00    +0.176 C 
ATOM     23  O   UNL     1       5.097  -2.881  24.418  0.00  0.00    -0.291 OA
BRANCH  22  25
ATOM     24  C   UNL     1       6.855  -5.217  23.695  0.00  0.00    +0.019 C 
ATOM     25  C   UNL     1       6.886  -4.380  25.008  0.00  0.00    +0.025 C 
ATOM     26  C   UNL     1       8.376  -4.265  25.372  0.00  0.00    +0.019 C 
ATOM     27  C   UNL     1       6.035  -5.199  25.996  0.00  0.00    +0.019 C 
ENDBRANCH  22  25
ENDBRANCH   1  22
BRANCH   2  28
ATOM     28  O   UNL     1       6.723  -1.133  27.074  0.00  0.00    -0.506 OA
ATOM     29  H   UNL     1       5.791  -0.871  27.164  0.00  0.00    +0.292 HD
ENDBRANCH   2  28
BRANCH   7  30
ATOM     30  O   UNL     1      10.478   2.223  21.201  0.00  0.00    -0.501 OA
ATOM     31  H   UNL     1      11.235   2.715  21.573  0.00  0.00    +0.292 HD
ENDBRANCH   7  30
BRANCH  11  32
ATOM     32  O   UNL     1       7.801  -2.068  22.435  0.00  0.00    -0.505 OA
ATOM     33  H   UNL     1       8.279  -1.614  21.703  0.00  0.00    +0.292 HD
ENDBRANCH  11  32
TORSDOF 8
ENDMDL
MODEL 4
REMARK VINA RESULT:      -7.2      3.521      6.082
REMARK  Name = 
REMARK  11 active torsions:
REMARK  status: ('A' for Active; 'I' for Inactive)
REMARK    1  A    between atoms: C_1  and  C_2
REMARK    2  A    between atoms: C_2  and  C_3
REMARK    3  A    between atoms: C_2  and  C_4
REMARK    4  A    between atoms: C_2  and  C_5
REMARK    5  A    between atoms: C_5  and  C_7
REMARK    6  A    between atoms: C_8  and  O_28
REMARK    7  A    between atoms: C_12  and  O_13
REMARK    8  A    between atoms: C_15  and  C_20
REMARK    9  A    between atoms: C_16  and  O_19
REMARK   10  A    between atoms: C_22  and  O_27
REMARK   11  A    between atoms: C_23  and  O_26
REMARK                            x       y       z     vdW  Elec       q    Type
REMARK                         _______ _______ _______ _____ _____    ______ ____
ROOT
ATOM      1  C   UNL     1       5.564  -4.296  28.035  0.00  0.00    +0.102 A 
ATOM      2  C   UNL     1       5.105  -2.994  27.755  0.00  0.00    +0.134 A 
ATOM      3  C   UNL     1       5.747  -2.182  26.810  0.00  0.00    +0.093 A 
ATOM      4  C   UNL     1       6.863  -2.635  26.122  0.00  0.00    +0.147 A 
ATOM      5  O   UNL     1       7.386  -1.763  25.197  0.00  0.00    -0.451 OA
ATOM      6  C   UNL     1       8.540  -2.116  24.531  0.00  0.00    +0.181 A 
ATOM      7  C   UNL     1       9.174  -3.292  24.708  0.00  0.00    +0.208 A 
ATOM      8  C   UNL     1       8.607  -4.296  25.644  0.00  0.00    +0.238 A 
ATOM      9  O   UNL     1       9.176  -5.380  25.743  0.00  0.00    -0.283 OA
ATOM     10  C   UNL     1       7.394  -3.895  26.398  0.00  0.00    +0.110 A 
ATOM     11  C   UNL     1       6.762  -4.703  27.370  0.00  0.00    +0.145 A 
ENDROOT
BRANCH   6  12
ATOM     12  C   UNL     1       9.126  -1.047  23.680  0.00  0.00    +0.025 A 
ATOM     13  C   UNL     1       8.813  -0.983  22.312  0.00  0.00    +0.015 A 
ATOM     14  C   UNL     1       9.220   0.111  21.536  0.00  0.00    +0.050 A 
ATOM     15  C   UNL     1       9.926   1.142  22.131  0.00  0.00    +0.158 A 
ATOM     16  C   UNL     1      10.283   1.072  23.473  0.00  0.00    +0.159 A 
ATOM     17  C   UNL     1       9.929  -0.032  24.234  0.00  0.00    +0.060 A 
BRANCH  15  18
ATOM     18  O   UNL     1      10.251   2.246  21.401  0.00  0.00    -0.503 OA
ATOM     19  H   UNL     1       9.726   2.160  20.580  0.00  0.00    +0.292 HD
ENDBRANCH  15  18
BRANCH  16  20
ATOM     20  O   UNL     1      10.947   2.135  24.021  0.00  0.00    -0.503 OA
ATOM     21  H   UNL     1      11.126   1.923  24.956  0.00  0.00    +0.292 HD
ENDBRANCH  16  20
ENDBRANCH   6  12
BRANCH   1  22
ATOM     22  C   UNL     1       4.890  -5.282  28.984  0.00  0.00    +0.176 C 
ATOM     23  O   UNL     1       5.443  -5.430  30.084  0.00  0.00    -0.291 OA
BRANCH  22  25
ATOM     24  C   UNL     1       2.367  -5.174  29.006  0.00  0.00    +0.019 C 
ATOM     25  C   UNL     1       3.592  -6.082  28.690  0.00  0.00    +0.025 C 
ATOM     26  C   UNL     1       3.486  -6.385  27.186  0.00  0.00    +0.019 C 
ATOM     27  C   UNL     1       3.405  -7.299  29.615  0.00  0.00    +0.019 C 
ENDBRANCH  22  25
ENDBRANCH   1  22
BRANCH   2  28
ATOM     28  O   UNL     1       4.045  -2.439  28.394  0.00  0.00    -0.506 OA
ATOM     29  H   UNL     1       3.385  -3.114  28.629  0.00  0.00    +0.292 HD
ENDBRANCH   2  28
BRANCH   7  30
ATOM     30  O   UNL     1      10.387  -3.588  24.115  0.00  0.00    -0.501 OA
ATOM     31  H   UNL     1      10.591  -4.503  24.390  0.00  0.00    +0.292 HD
ENDBRANCH   7  30
BRANCH  11  32
ATOM     32  O   UNL     1       7.381  -5.892  27.686  0.00  0.00    -0.505 OA
ATOM     33  H   UNL     1       6.841  -6.648  27.359  0.00  0.00    +0.292 HD
ENDBRANCH  11  32
TORSDOF 8
ENDMDL
MODEL 5
REMARK VINA RESULT:      -7.2      2.807      9.216
REMARK  Name = 
REMARK  11 active torsions:
REMARK  status: ('A' for Active; 'I' for Inactive)
REMARK    1  A    between atoms: C_1  and  C_2
REMARK    2  A    between atoms: C_2  and  C_3
REMARK    3  A    between atoms: C_2  and  C_4
REMARK    4  A    between atoms: C_2  and  C_5
REMARK    5  A    between atoms: C_5  and  C_7
REMARK    6  A    between atoms: C_8  and  O_28
REMARK    7  A    between atoms: C_12  and  O_13
REMARK    8  A    between atoms: C_15  and  C_20
REMARK    9  A    between atoms: C_16  and  O_19
REMARK   10  A    between atoms: C_22  and  O_27
REMARK   11  A    between atoms: C_23  and  O_26
REMARK                            x       y       z     vdW  Elec       q    Type
REMARK                         _______ _______ _______ _____ _____    ______ ____
ROOT
ATOM      1  C   UNL     1       9.627  -0.442  24.076  0.00  0.00    +0.102 A 
ATOM      2  C   UNL     1       9.679  -1.489  23.136  0.00  0.00    +0.134 A 
ATOM      3  C   UNL     1       8.799  -2.577  23.207  0.00  0.00    +0.093 A 
ATOM      4  C   UNL     1       7.848  -2.660  24.213  0.00  0.00    +0.147 A 
ATOM      5  O   UNL     1       7.018  -3.755  24.159  0.00  0.00    -0.451 OA
ATOM      6  C   UNL     1       6.100  -3.941  25.169  0.00  0.00    +0.181 A 
ATOM      7  C   UNL     1       5.940  -3.088  26.200  0.00  0.00    +0.208 A 
ATOM      8  C   UNL     1       6.763  -1.852  26.263  0.00  0.00    +0.238 A 
ATOM      9  O   UNL     1       6.555  -1.066  27.183  0.00  0.00    -0.283 OA
ATOM     10  C   UNL     1       7.786  -1.679  25.203  0.00  0.00    +0.110 A 
ATOM     11  C   UNL     1       8.692  -0.595  25.146  0.00  0.00    +0.145 A 
ENDROOT
BRANCH   6  12
ATOM     12  C   UNL     1       5.368  -5.235  25.122  0.00  0.00    +0.025 A 
ATOM     13  C   UNL     1       5.296  -6.047  26.266  0.00  0.00    +0.015 A 
ATOM     14  C   UNL     1       4.473  -7.181  26.287  0.00  0.00    +0.050 A 
ATOM     15  C   UNL     1       3.715  -7.492  25.172  0.00  0.00    +0.158 A 
ATOM     16  C   UNL     1       3.810  -6.724  24.016  0.00  0.00    +0.159 A 
ATOM     17  C   UNL     1       4.662  -5.632  23.971  0.00  0.00    +0.060 A 
BRANCH  15  18
ATOM     18  O   UNL     1       2.850  -8.544  25.217  0.00  0.00    -0.503 OA
ATOM     19  H   UNL     1       2.203  -8.301  25.908  0.00  0.00    +0.292 HD
ENDBRANCH  15  18
BRANCH  16  20
ATOM     20  O   UNL     1       3.010  -7.052  22.956  0.00  0.00    -0.503 OA
ATOM     21  H   UNL     1       3.016  -8.023  22.870  0.00  0.00    +0.292 HD
ENDBRANCH  16  20
ENDBRANCH   6  12
BRANCH   1  22
ATOM     22  C   UNL     1      10.485   0.820  24.039  0.00  0.00    +0.176 C 
ATOM     23  O   UNL     1      11.572   0.746  24.632  0.00  0.00    -0.291 OA
BRANCH  22  25
ATOM     24  C   UNL     1      11.348   3.099  23.378  0.00  0.00    +0.019 C 
ATOM     25  C   UNL     1      10.118   2.147  23.321  0.00  0.00    +0.025 C 
ATOM     26  C   UNL     1       9.880   1.891  21.824  0.00  0.00    +0.019 C 
ATOM     27  C   UNL     1       9.001   2.934  24.033  0.00  0.00    +0.019 C 
ENDBRANCH  22  25
ENDBRANCH   1  22
BRANCH   2  28
ATOM     28  O   UNL     1      10.591  -1.526  22.132  0.00  0.00    -0.506 OA
ATOM     29  H   UNL     1      11.485  -1.696  22.477  0.00  0.00    +0.292 HD
ENDBRANCH   2  28
BRANCH   7  30
ATOM     30  O   UNL     1       5.092  -3.342  27.261  0.00  0.00    -0.501 OA
ATOM     31  H   UNL     1       4.531  -2.545  27.339  0.00  0.00    +0.292 HD
ENDBRANCH   7  30
BRANCH  11  32
ATOM     32  O   UNL     1       8.666   0.291  26.200  0.00  0.00    -0.505 OA
ATOM     33  H   UNL     1       9.232  -0.043  26.933  0.00  0.00    +0.292 HD
ENDBRANCH  11  32
TORSDOF 8
ENDMDL
MODEL 6
REMARK VINA RESULT:      -7.1      2.133      8.678
REMARK  Name = 
REMARK  11 active torsions:
REMARK  status: ('A' for Active; 'I' for Inactive)
REMARK    1  A    between atoms: C_1  and  C_2
REMARK    2  A    between atoms: C_2  and  C_3
REMARK    3  A    between atoms: C_2  and  C_4
REMARK    4  A    between atoms: C_2  and  C_5
REMARK    5  A    between atoms: C_5  and  C_7
REMARK    6  A    between atoms: C_8  and  O_28
REMARK    7  A    between atoms: C_12  and  O_13
REMARK    8  A    between atoms: C_15  and  C_20
REMARK    9  A    between atoms: C_16  and  O_19
REMARK   10  A    between atoms: C_22  and  O_27
REMARK   11  A    between atoms: C_23  and  O_26
REMARK                            x       y       z     vdW  Elec       q    Type
REMARK                         _______ _______ _______ _____ _____    ______ ____
ROOT
ATOM      1  C   UNL     1       7.873   3.193  24.491  0.00  0.00    +0.102 A 
ATOM      2  C   UNL     1       6.553   2.702  24.454  0.00  0.00    +0.134 A 
ATOM      3  C   UNL     1       6.288   1.337  24.284  0.00  0.00    +0.093 A 
ATOM      4  C   UNL     1       7.320   0.422  24.141  0.00  0.00    +0.147 A 
ATOM      5  O   UNL     1       6.938  -0.892  24.016  0.00  0.00    -0.451 OA
ATOM      6  C   UNL     1       7.906  -1.847  23.794  0.00  0.00    +0.181 A 
ATOM      7  C   UNL     1       9.224  -1.572  23.726  0.00  0.00    +0.208 A 
ATOM      8  C   UNL     1       9.692  -0.176  23.927  0.00  0.00    +0.238 A 
ATOM      9  O   UNL     1      10.902   0.035  23.916  0.00  0.00    -0.283 OA
ATOM     10  C   UNL     1       8.645   0.858  24.116  0.00  0.00    +0.110 A 
ATOM     11  C   UNL     1       8.912   2.238  24.260  0.00  0.00    +0.145 A 
ENDROOT
BRANCH   6  12
ATOM     12  C   UNL     1       7.390  -3.210  23.501  0.00  0.00    +0.025 A 
ATOM     13  C   UNL     1       7.144  -4.112  24.549  0.00  0.00    +0.015 A 
ATOM     14  C   UNL     1       6.501  -5.333  24.306  0.00  0.00    +0.050 A 
ATOM     15  C   UNL     1       6.095  -5.644  23.020  0.00  0.00    +0.158 A 
ATOM     16  C   UNL     1       6.373  -4.783  21.963  0.00  0.00    +0.159 A 
ATOM     17  C   UNL     1       7.055  -3.597  22.189  0.00  0.00    +0.060 A 
BRANCH  15  18
ATOM     18  O   UNL     1       5.396  -6.791  22.792  0.00  0.00    -0.503 OA
ATOM     19  H   UNL     1       4.974  -6.653  21.921  0.00  0.00    +0.292 HD
ENDBRANCH  15  18
BRANCH  16  20
ATOM     20  O   UNL     1       5.916  -5.119  20.719  0.00  0.00    -0.503 OA
ATOM     21  H   UNL     1       6.449  -5.871  20.402  0.00  0.00    +0.292 HD
ENDBRANCH  16  20
ENDBRANCH   6  12
BRANCH   1  22
ATOM     22  C   UNL     1       8.267   4.644  24.749  0.00  0.00    +0.176 C 
ATOM     23  O   UNL     1       8.618   4.905  25.910  0.00  0.00    -0.291 OA
BRANCH  22  25
ATOM     24  C   UNL     1       7.465   6.988  24.260  0.00  0.00    +0.019 C 
ATOM     25  C   UNL     1       8.275   5.784  23.695  0.00  0.00    +0.025 C 
ATOM     26  C   UNL     1       9.704   6.318  23.505  0.00  0.00    +0.019 C 
ATOM     27  C   UNL     1       7.539   5.414  22.394  0.00  0.00    +0.019 C 
ENDBRANCH  22  25
ENDBRANCH   1  22
BRANCH   2  28
ATOM     28  O   UNL     1       5.469   3.512  24.549  0.00  0.00    -0.506 OA
ATOM     29  H   UNL     1       5.717   4.392  24.881  0.00  0.00    +0.292 HD
ENDBRANCH   2  28
BRANCH   7  30
ATOM     30  O   UNL     1      10.174  -2.520  23.396  0.00  0.00    -0.501 OA
ATOM     31  H   UNL     1      10.366  -2.992  24.230  0.00  0.00    +0.292 HD
ENDBRANCH   7  30
BRANCH  11  32
ATOM     32  O   UNL     1      10.223   2.635  24.122  0.00  0.00    -0.505 OA
ATOM     33  H   UNL     1      10.263   3.519  23.690  0.00  0.00    +0.292 HD
ENDBRANCH  11  32
TORSDOF 8
ENDMDL
MODEL 7
REMARK VINA RESULT:      -6.9      2.145      4.005
REMARK  Name = 
REMARK  11 active torsions:
REMARK  status: ('A' for Active; 'I' for Inactive)
REMARK    1  A    between atoms: C_1  and  C_2
REMARK    2  A    between atoms: C_2  and  C_3
REMARK    3  A    between atoms: C_2  and  C_4
REMARK    4  A    between atoms: C_2  and  C_5
REMARK    5  A    between atoms: C_5  and  C_7
REMARK    6  A    between atoms: C_8  and  O_28
REMARK    7  A    between atoms: C_12  and  O_13
REMARK    8  A    between atoms: C_15  and  C_20
REMARK    9  A    between atoms: C_16  and  O_19
REMARK   10  A    between atoms: C_22  and  O_27
REMARK   11  A    between atoms: C_23  and  O_26
REMARK                            x       y       z     vdW  Elec       q    Type
REMARK                         _______ _______ _______ _____ _____    ______ ____
ROOT
ATOM      1  C   UNL     1       6.103  -4.126  23.409  0.00  0.00    +0.102 A 
ATOM      2  C   UNL     1       6.052  -3.230  22.323  0.00  0.00    +0.134 A 
ATOM      3  C   UNL     1       6.727  -2.002  22.360  0.00  0.00    +0.093 A 
ATOM      4  C   UNL     1       7.465  -1.627  23.472  0.00  0.00    +0.147 A 
ATOM      5  O   UNL     1       8.111  -0.417  23.378  0.00  0.00    -0.451 OA
ATOM      6  C   UNL     1       8.800   0.055  24.474  0.00  0.00    +0.181 A 
ATOM      7  C   UNL     1       8.911  -0.622  25.634  0.00  0.00    +0.208 A 
ATOM      8  C   UNL     1       8.291  -1.967  25.760  0.00  0.00    +0.238 A 
ATOM      9  O   UNL     1       8.456  -2.583  26.809  0.00  0.00    -0.283 OA
ATOM     10  C   UNL     1       7.506  -2.450  24.597  0.00  0.00    +0.110 A 
ATOM     11  C   UNL     1       6.804  -3.676  24.571  0.00  0.00    +0.145 A 
ENDROOT
BRANCH   6  12
ATOM     12  C   UNL     1       9.320   1.441  24.340  0.00  0.00    +0.025 A 
ATOM     13  C   UNL     1      10.544   1.677  23.692  0.00  0.00    +0.015 A 
ATOM     14  C   UNL     1      10.964   2.983  23.410  0.00  0.00    +0.050 A 
ATOM     15  C   UNL     1      10.155   4.049  23.764  0.00  0.00    +0.158 A 
ATOM     16  C   UNL     1       8.963   3.836  24.448  0.00  0.00    +0.159 A 
ATOM     17  C   UNL     1       8.567   2.548  24.776  0.00  0.00    +0.060 A 
BRANCH  15  18
ATOM     18  O   UNL     1      10.519   5.316  23.418  0.00  0.00    -0.503 OA
ATOM     19  H   UNL     1      10.100   5.885  24.094  0.00  0.00    +0.292 HD
ENDBRANCH  15  18
BRANCH  16  20
ATOM     20  O   UNL     1       8.183   4.920  24.739  0.00  0.00    -0.503 OA
ATOM     21  H   UNL     1       7.861   4.815  25.654  0.00  0.00    +0.292 HD
ENDBRANCH  16  20
ENDBRANCH   6  12
BRANCH   1  22
ATOM     22  C   UNL     1       5.471  -5.514  23.435  0.00  0.00    +0.176 C 
ATOM     23  O   UNL     1       6.118  -6.408  22.870  0.00  0.00    -0.291 OA
BRANCH  22  25
ATOM     24  C   UNL     1       3.141  -6.390  23.013  0.00  0.00    +0.019 C 
ATOM     25  C   UNL     1       4.122  -5.885  24.110  0.00  0.00    +0.025 C 
ATOM     26  C   UNL     1       4.315  -7.082  25.056  0.00  0.00    +0.019 C 
ATOM     27  C   UNL     1       3.400  -4.674  24.731  0.00  0.00    +0.019 C 
ENDBRANCH  22  25
ENDBRANCH   1  22
BRANCH   2  28
ATOM     28  O   UNL     1       5.333  -3.480  21.201  0.00  0.00    -0.506 OA
ATOM     29  H   UNL     1       4.835  -4.312  21.282  0.00  0.00    +0.292 HD
ENDBRANCH   2  28
BRANCH   7  30
ATOM     30  O   UNL     1       9.513  -0.091  26.759  0.00  0.00    -0.501 OA
ATOM     31  H   UNL     1       9.907  -0.855  27.224  0.00  0.00    +0.292 HD
ENDBRANCH   7  30
BRANCH  11  32
ATOM     32  O   UNL     1       6.784  -4.406  25.739  0.00  0.00    -0.505 OA
ATOM     33  H   UNL     1       7.698  -4.684  25.976  0.00  0.00    +0.292 HD
ENDBRANCH  11  32
TORSDOF 8
ENDMDL
MODEL 8
REMARK VINA RESULT:      -6.9      3.489      5.264
REMARK  Name = 
REMARK  11 active torsions:
REMARK  status: ('A' for Active; 'I' for Inactive)
REMARK    1  A    between atoms: C_1  and  C_2
REMARK    2  A    between atoms: C_2  and  C_3
REMARK    3  A    between atoms: C_2  and  C_4
REMARK    4  A    between atoms: C_2  and  C_5
REMARK    5  A    between atoms: C_5  and  C_7
REMARK    6  A    between atoms: C_8  and  O_28
REMARK    7  A    between atoms: C_12  and  O_13
REMARK    8  A    between atoms: C_15  and  C_20
REMARK    9  A    between atoms: C_16  and  O_19
REMARK   10  A    between atoms: C_22  and  O_27
REMARK   11  A    between atoms: C_23  and  O_26
REMARK                            x       y       z     vdW  Elec       q    Type
REMARK                         _______ _______ _______ _____ _____    ______ ____
ROOT
ATOM      1  C   UNL     1       5.834  -5.015  27.395  0.00  0.00    +0.102 A 
ATOM      2  C   UNL     1       7.223  -5.120  27.186  0.00  0.00    +0.134 A 
ATOM      3  C   UNL     1       7.935  -4.122  26.507  0.00  0.00    +0.093 A 
ATOM      4  C   UNL     1       7.292  -2.998  26.012  0.00  0.00    +0.147 A 
ATOM      5  O   UNL     1       8.100  -2.073  25.395  0.00  0.00    -0.451 OA
ATOM      6  C   UNL     1       7.518  -0.968  24.813  0.00  0.00    +0.181 A 
ATOM      7  C   UNL     1       6.194  -0.717  24.842  0.00  0.00    +0.208 A 
ATOM      8  C   UNL     1       5.288  -1.652  25.560  0.00  0.00    +0.238 A 
ATOM      9  O   UNL     1       4.095  -1.368  25.618  0.00  0.00    -0.283 OA
ATOM     10  C   UNL     1       5.909  -2.867  26.142  0.00  0.00    +0.110 A 
ATOM     11  C   UNL     1       5.186  -3.885  26.804  0.00  0.00    +0.145 A 
ENDROOT
BRANCH   6  12
ATOM     12  C   UNL     1       8.444  -0.113  24.023  0.00  0.00    +0.025 A 
ATOM     13  C   UNL     1       8.865  -0.522  22.747  0.00  0.00    +0.015 A 
ATOM     14  C   UNL     1       9.598   0.344  21.924  0.00  0.00    +0.050 A 
ATOM     15  C   UNL     1       9.896   1.619  22.373  0.00  0.00    +0.158 A 
ATOM     16  C   UNL     1       9.527   2.023  23.652  0.00  0.00    +0.159 A 
ATOM     17  C   UNL     1       8.848   1.152  24.490  0.00  0.00    +0.060 A 
BRANCH  15  18
ATOM     18  O   UNL     1      10.535   2.493  21.545  0.00  0.00    -0.503 OA
ATOM     19  H   UNL     1       9.814   2.980  21.099  0.00  0.00    +0.292 HD
ENDBRANCH  15  18
BRANCH  16  20
ATOM     20  O   UNL     1       9.812   3.305  24.031  0.00  0.00    -0.503 OA
ATOM     21  H   UNL     1       9.827   3.855  23.226  0.00  0.00    +0.292 HD
ENDBRANCH  16  20
ENDBRANCH   6  12
BRANCH   1  22
ATOM     22  C   UNL     1       4.985  -6.004  28.188  0.00  0.00    +0.176 C 
ATOM     23  O   UNL     1       4.403  -6.869  27.515  0.00  0.00    -0.291 OA
BRANCH  22  25
ATOM     24  C   UNL     1       4.522  -4.565  30.210  0.00  0.00    +0.019 C 
ATOM     25  C   UNL     1       4.810  -6.018  29.730  0.00  0.00    +0.025 C 
ATOM     26  C   UNL     1       3.557  -6.821  30.114  0.00  0.00    +0.019 C 
ATOM     27  C   UNL     1       6.094  -6.414  30.484  0.00  0.00    +0.019 C 
ENDBRANCH  22  25
ENDBRANCH   1  22
BRANCH   2  28
ATOM     28  O   UNL     1       7.945  -6.192  27.597  0.00  0.00    -0.506 OA
ATOM     29  H   UNL     1       7.365  -6.939  27.825  0.00  0.00    +0.292 HD
ENDBRANCH   2  28
BRANCH   7  30
ATOM     30  O   UNL     1       5.613   0.336  24.163  0.00  0.00    -0.501 OA
ATOM     31  H   UNL     1       4.659   0.127  24.131  0.00  0.00    +0.292 HD
ENDBRANCH   7  30
BRANCH  11  32
ATOM     32  O   UNL     1       3.815  -3.766  26.815  0.00  0.00    -0.505 OA
ATOM     33  H   UNL     1       3.550  -2.989  27.359  0.00  0.00    +0.292 HD
ENDBRANCH  11  32
TORSDOF 8
ENDMDL
MODEL 9
REMARK VINA RESULT:      -6.9      1.829      8.776
REMARK  Name = 
REMARK  11 active torsions:
REMARK  status: ('A' for Active; 'I' for Inactive)
REMARK    1  A    between atoms: C_1  and  C_2
REMARK    2  A    between atoms: C_2  and  C_3
REMARK    3  A    between atoms: C_2  and  C_4
REMARK    4  A    between atoms: C_2  and  C_5
REMARK    5  A    between atoms: C_5  and  C_7
REMARK    6  A    between atoms: C_8  and  O_28
REMARK    7  A    between atoms: C_12  and  O_13
REMARK    8  A    between atoms: C_15  and  C_20
REMARK    9  A    between atoms: C_16  and  O_19
REMARK   10  A    between atoms: C_22  and  O_27
REMARK   11  A    between atoms: C_23  and  O_26
REMARK                            x       y       z     vdW  Elec       q    Type
REMARK                         _______ _______ _______ _____ _____    ______ ____
ROOT
ATOM      1  C   UNL     1       9.057   3.117  23.403  0.00  0.00    +0.102 A 
ATOM      2  C   UNL     1       7.930   3.048  22.562  0.00  0.00    +0.134 A 
ATOM      3  C   UNL     1       7.219   1.852  22.393  0.00  0.00    +0.093 A 
ATOM      4  C   UNL     1       7.608   0.693  23.047  0.00  0.00    +0.147 A 
ATOM      5  O   UNL     1       6.813  -0.408  22.830  0.00  0.00    -0.451 OA
ATOM      6  C   UNL     1       7.184  -1.613  23.387  0.00  0.00    +0.181 A 
ATOM      7  C   UNL     1       8.270  -1.772  24.169  0.00  0.00    +0.208 A 
ATOM      8  C   UNL     1       9.119  -0.596  24.490  0.00  0.00    +0.238 A 
ATOM      9  O   UNL     1      10.070  -0.761  25.251  0.00  0.00    -0.283 OA
ATOM     10  C   UNL     1       8.749   0.689  23.849  0.00  0.00    +0.110 A 
ATOM     11  C   UNL     1       9.481   1.889  23.999  0.00  0.00    +0.145 A 
ENDROOT
BRANCH   6  12
ATOM     12  C   UNL     1       6.366  -2.779  22.961  0.00  0.00    +0.025 A 
ATOM     13  C   UNL     1       6.850  -3.659  21.978  0.00  0.00    +0.015 A 
ATOM     14  C   UNL     1       6.172  -4.850  21.688  0.00  0.00    +0.050 A 
ATOM     15  C   UNL     1       5.020  -5.165  22.389  0.00  0.00    +0.158 A 
ATOM     16  C   UNL     1       4.503  -4.284  23.331  0.00  0.00    +0.159 A 
ATOM     17  C   UNL     1       5.140  -3.079  23.585  0.00  0.00    +0.060 A 
BRANCH  15  18
ATOM     18  O   UNL     1       4.404  -6.361  22.170  0.00  0.00    -0.503 OA
ATOM     19  H   UNL     1       5.130  -7.016  22.173  0.00  0.00    +0.292 HD
ENDBRANCH  15  18
BRANCH  16  20
ATOM     20  O   UNL     1       3.385  -4.661  24.023  0.00  0.00    -0.503 OA
ATOM     21  H   UNL     1       2.664  -4.053  23.773  0.00  0.00    +0.292 HD
ENDBRANCH  16  20
ENDBRANCH   6  12
BRANCH   1  22
ATOM     22  C   UNL     1       9.848   4.385  23.714  0.00  0.00    +0.176 C 
ATOM     23  O   UNL     1      11.019   4.399  23.304  0.00  0.00    -0.291 OA
BRANCH  22  25
ATOM     24  C   UNL     1       8.688   6.610  23.434  0.00  0.00    +0.019 C 
ATOM     25  C   UNL     1       9.309   5.628  24.471  0.00  0.00    +0.025 C 
ATOM     26  C   UNL     1       8.141   5.225  25.387  0.00  0.00    +0.019 C 
ATOM     27  C   UNL     1      10.416   6.453  25.152  0.00  0.00    +0.019 C 
ENDBRANCH  22  25
ENDBRANCH   1  22
BRANCH   2  28
ATOM     28  O   UNL     1       7.483   4.112  21.849  0.00  0.00    -0.506 OA
ATOM     29  H   UNL     1       7.718   4.027  20.909  0.00  0.00    +0.292 HD
ENDBRANCH   2  28
BRANCH   7  30
ATOM     30  O   UNL     1       8.689  -3.005  24.631  0.00  0.00    -0.501 OA
ATOM     31  H   UNL     1       8.348  -3.066  25.545  0.00  0.00    +0.292 HD
ENDBRANCH   7  30
BRANCH  11  32
ATOM     32  O   UNL     1      10.657   1.813  24.712  0.00  0.00    -0.505 OA
ATOM     33  H   UNL     1      11.364   2.317  24.247  0.00  0.00    +0.292 HD
ENDBRANCH  11  32
TORSDOF 8
ENDMDL
