MODEL 1
REMARK VINA RESULT:      -7.4      0.000      0.000
REMARK  Name = 
REMARK  10 active torsions:
REMARK  status: ('A' for Active; 'I' for Inactive)
REMARK    1  A    between atoms: C_1  and  O_2
REMARK    2  A    between atoms: O_2  and  C_3
REMARK    3  A    between atoms: C_5  and  O_28
REMARK    4  A    between atoms: C_10  and  C_16
REMARK    5  A    between atoms: C_11  and  O_14
REMARK    6  A    between atoms: O_14  and  C_15
REMARK    7  A    between atoms: C_18  and  O_27
REMARK    8  A    between atoms: C_19  and  O_22
REMARK    9  A    between atoms: O_22  and  S_23
REMARK   10  A    between atoms: S_23  and  O_26
REMARK                            x       y       z     vdW  Elec       q    Type
REMARK                         _______ _______ _______ _____ _____    ______ ____
ROOT
ATOM      1  C   UNL     1       6.077  -5.848  28.236  0.00  0.00    +0.127 A 
ATOM      2  C   UNL     1       6.611  -4.858  27.406  0.00  0.00    +0.092 A 
ATOM      3  C   UNL     1       6.305  -4.837  26.039  0.00  0.00    +0.147 A 
ATOM      4  O   UNL     1       6.893  -3.849  25.291  0.00  0.00    -0.451 OA
ATOM      5  C   UNL     1       6.559  -3.742  23.952  0.00  0.00    +0.181 A 
ATOM      6  C   UNL     1       5.745  -4.579  23.280  0.00  0.00    +0.211 A 
ATOM      7  C   UNL     1       5.174  -5.738  24.044  0.00  0.00    +0.238 A 
ATOM      8  O   UNL     1       4.515  -6.612  23.495  0.00  0.00    -0.283 OA
ATOM      9  C   UNL     1       5.452  -5.792  25.495  0.00  0.00    +0.109 A 
ATOM     10  C   UNL     1       4.894  -6.764  26.341  0.00  0.00    +0.135 A 
ATOM     11  C   UNL     1       5.201  -6.790  27.704  0.00  0.00    +0.092 A 
ENDROOT
BRANCH   5  12
ATOM     12  C   UNL     1       7.180  -2.566  23.310  0.00  0.00    +0.025 A 
ATOM     13  C   UNL     1       6.564  -1.311  23.418  0.00  0.00    +0.015 A 
ATOM     14  C   UNL     1       7.177  -0.163  22.901  0.00  0.00    +0.053 A 
ATOM     15  C   UNL     1       8.412  -0.257  22.261  0.00  0.00    +0.200 A 
ATOM     16  C   UNL     1       9.008  -1.515  22.118  0.00  0.00    +0.162 A 
ATOM     17  C   UNL     1       8.402  -2.666  22.634  0.00  0.00    +0.061 A 
BRANCH  16  18
ATOM     18  O   UNL     1      10.209  -1.597  21.463  0.00  0.00    -0.503 OA
ATOM     19  H   UNL     1      10.923  -1.677  22.116  0.00  0.00    +0.292 HD
ENDBRANCH  16  18
BRANCH  15  20
ATOM     20  O   UNL     1       9.136   0.814  21.800  0.00  0.00    -0.321 OA
BRANCH  20  21
ATOM     21  S   UNL     1       9.833   1.893  22.792  0.00  0.00    +0.251 S 
ATOM     22  O   UNL     1      10.658   1.204  23.758  0.00  0.00    -0.108 OA
ATOM     23  O   UNL     1       8.840   2.868  23.190  0.00  0.00    -0.108 OA
BRANCH  21  24
ATOM     24  O   UNL     1      10.825   2.688  21.801  0.00  0.00    -0.222 OA
ATOM     25  H   UNL     1      10.575   2.462  20.884  0.00  0.00    +0.248 HD
ENDBRANCH  21  24
ENDBRANCH  20  21
ENDBRANCH  15  20
ENDBRANCH   5  12
BRANCH   1  27
ATOM     26  C   UNL     1       5.435  -6.189  30.485  0.00  0.00    +0.277 C 
ATOM     27  O   UNL     1       6.442  -5.792  29.554  0.00  0.00    -0.495 OA
ENDBRANCH   1  27
BRANCH   6  28
ATOM     28  O   UNL     1       5.444  -4.330  21.945  0.00  0.00    -0.488 OA
ATOM     29  C   UNL     1       6.074  -5.155  20.971  0.00  0.00    +0.277 C 
ENDBRANCH   6  28
BRANCH  10  30
ATOM     30  O   UNL     1       4.030  -7.708  25.859  0.00  0.00    -0.506 OA
ATOM     31  H   UNL     1       3.261  -7.804  26.442  0.00  0.00    +0.292 HD
ENDBRANCH  10  30
TORSDOF 8
ENDMDL
MODEL 2
REMARK VINA RESULT:      -7.2      1.924      3.591
REMARK  Name = 
REMARK  10 active torsions:
REMARK  status: ('A' for Active; 'I' for Inactive)
REMARK    1  A    between atoms: C_1  and  O_2
REMARK    2  A    between atoms: O_2  and  C_3
REMARK    3  A    between atoms: C_5  and  O_28
REMARK    4  A    between atoms: C_10  and  C_16
REMARK    5  A    between atoms: C_11  and  O_14
REMARK    6  A    between atoms: O_14  and  C_15
REMARK    7  A    between atoms: C_18  and  O_27
REMARK    8  A    between atoms: C_19  and  O_22
REMARK    9  A    between atoms: O_22  and  S_23
REMARK   10  A    between atoms: S_23  and  O_26
REMARK                            x       y       z     vdW  Elec       q    Type
REMARK                         _______ _______ _______ _____ _____    ______ ____
ROOT
ATOM      1  C   UNL     1       2.934  -5.528  23.544  0.00  0.00    +0.127 A 
ATOM      2  C   UNL     1       3.863  -4.488  23.440  0.00  0.00    +0.092 A 
ATOM      3  C   UNL     1       5.006  -4.474  24.250  0.00  0.00    +0.147 A 
ATOM      4  O   UNL     1       5.851  -3.403  24.104  0.00  0.00    -0.451 OA
ATOM      5  C   UNL     1       7.031  -3.385  24.826  0.00  0.00    +0.181 A 
ATOM      6  C   UNL     1       7.406  -4.307  25.734  0.00  0.00    +0.211 A 
ATOM      7  C   UNL     1       6.450  -5.433  26.001  0.00  0.00    +0.238 A 
ATOM      8  O   UNL     1       6.651  -6.256  26.885  0.00  0.00    -0.283 OA
ATOM      9  C   UNL     1       5.239  -5.503  25.155  0.00  0.00    +0.109 A 
ATOM     10  C   UNL     1       4.317  -6.560  25.233  0.00  0.00    +0.135 A 
ATOM     11  C   UNL     1       3.175  -6.575  24.429  0.00  0.00    +0.092 A 
ENDROOT
BRANCH   5  12
ATOM     12  C   UNL     1       7.886  -2.232  24.478  0.00  0.00    +0.025 A 
ATOM     13  C   UNL     1       8.118  -1.229  25.429  0.00  0.00    +0.015 A 
ATOM     14  C   UNL     1       8.999  -0.174  25.160  0.00  0.00    +0.053 A 
ATOM     15  C   UNL     1       9.652  -0.104  23.931  0.00  0.00    +0.200 A 
ATOM     16  C   UNL     1       9.390  -1.083  22.966  0.00  0.00    +0.162 A 
ATOM     17  C   UNL     1       8.513  -2.141  23.228  0.00  0.00    +0.061 A 
BRANCH  16  18
ATOM     18  O   UNL     1      10.019  -0.988  21.751  0.00  0.00    -0.503 OA
ATOM     19  H   UNL     1      10.794  -1.571  21.749  0.00  0.00    +0.292 HD
ENDBRANCH  16  18
BRANCH  15  20
ATOM     20  O   UNL     1      10.598   0.835  23.601  0.00  0.00    -0.321 OA
BRANCH  20  21
ATOM     21  S   UNL     1      10.213   2.324  23.083  0.00  0.00    +0.251 S 
ATOM     22  O   UNL     1      11.292   3.238  23.383  0.00  0.00    -0.108 OA
ATOM     23  O   UNL     1       8.844   2.608  23.459  0.00  0.00    -0.108 OA
BRANCH  21  24
ATOM     24  O   UNL     1      10.178   2.139  21.483  0.00  0.00    -0.222 OA
ATOM     25  H   UNL     1       9.248   1.996  21.220  0.00  0.00    +0.248 HD
ENDBRANCH  21  24
ENDBRANCH  20  21
ENDBRANCH  15  20
ENDBRANCH   5  12
BRANCH   1  27
ATOM     26  C   UNL     1       0.976  -6.581  22.744  0.00  0.00    +0.277 C 
ATOM     27  O   UNL     1       1.845  -5.449  22.719  0.00  0.00    -0.495 OA
ENDBRANCH   1  27
BRANCH   6  28
ATOM     28  O   UNL     1       8.647  -4.204  26.356  0.00  0.00    -0.488 OA
ATOM     29  C   UNL     1       9.711  -4.979  25.817  0.00  0.00    +0.277 C 
ENDBRANCH   6  28
BRANCH  10  30
ATOM     30  O   UNL     1       4.515  -7.608  26.089  0.00  0.00    -0.506 OA
ATOM     31  H   UNL     1       3.682  -8.071  26.268  0.00  0.00    +0.292 HD
ENDBRANCH  10  30
TORSDOF 8
ENDMDL
MODEL 3
REMARK VINA RESULT:      -7.2      3.186      8.214
REMARK  Name = 
REMARK  10 active torsions:
REMARK  status: ('A' for Active; 'I' for Inactive)
REMARK    1  A    between atoms: C_1  and  O_2
REMARK    2  A    between atoms: O_2  and  C_3
REMARK    3  A    between atoms: C_5  and  O_28
REMARK    4  A    between atoms: C_10  and  C_16
REMARK    5  A    between atoms: C_11  and  O_14
REMARK    6  A    between atoms: O_14  and  C_15
REMARK    7  A    between atoms: C_18  and  O_27
REMARK    8  A    between atoms: C_19  and  O_22
REMARK    9  A    between atoms: O_22  and  S_23
REMARK   10  A    between atoms: S_23  and  O_26
REMARK                            x       y       z     vdW  Elec       q    Type
REMARK                         _______ _______ _______ _____ _____    ______ ____
ROOT
ATOM      1  C   UNL     1       8.474   2.939  24.751  0.00  0.00    +0.127 A 
ATOM      2  C   UNL     1       7.989   1.734  25.268  0.00  0.00    +0.092 A 
ATOM      3  C   UNL     1       8.075   0.554  24.517  0.00  0.00    +0.147 A 
ATOM      4  O   UNL     1       7.550  -0.579  25.087  0.00  0.00    -0.451 OA
ATOM      5  C   UNL     1       7.683  -1.781  24.417  0.00  0.00    +0.181 A 
ATOM      6  C   UNL     1       8.229  -1.940  23.195  0.00  0.00    +0.211 A 
ATOM      7  C   UNL     1       8.711  -0.702  22.496  0.00  0.00    +0.238 A 
ATOM      8  O   UNL     1       9.120  -0.730  21.342  0.00  0.00    -0.283 OA
ATOM      9  C   UNL     1       8.660   0.565  23.256  0.00  0.00    +0.109 A 
ATOM     10  C   UNL     1       9.173   1.773  22.756  0.00  0.00    +0.135 A 
ATOM     11  C   UNL     1       9.085   2.951  23.501  0.00  0.00    +0.092 A 
ENDROOT
BRANCH   5  12
ATOM     12  C   UNL     1       7.173  -2.923  25.204  0.00  0.00    +0.025 A 
ATOM     13  C   UNL     1       5.801  -3.207  25.204  0.00  0.00    +0.015 A 
ATOM     14  C   UNL     1       5.301  -4.337  25.864  0.00  0.00    +0.053 A 
ATOM     15  C   UNL     1       6.169  -5.193  26.541  0.00  0.00    +0.200 A 
ATOM     16  C   UNL     1       7.534  -4.887  26.574  0.00  0.00    +0.162 A 
ATOM     17  C   UNL     1       8.040  -3.762  25.916  0.00  0.00    +0.061 A 
BRANCH  16  18
ATOM     18  O   UNL     1       8.373  -5.722  27.265  0.00  0.00    -0.503 OA
ATOM     19  H   UNL     1       9.292  -5.502  27.046  0.00  0.00    +0.292 HD
ENDBRANCH  16  18
BRANCH  15  20
ATOM     20  O   UNL     1       5.795  -6.369  27.141  0.00  0.00    -0.321 OA
BRANCH  20  21
ATOM     21  S   UNL     1       5.571  -6.504  28.743  0.00  0.00    +0.251 S 
ATOM     22  O   UNL     1       5.141  -5.233  29.282  0.00  0.00    -0.108 OA
ATOM     23  O   UNL     1       6.683  -7.238  29.308  0.00  0.00    -0.108 OA
BRANCH  21  24
ATOM     24  O   UNL     1       4.315  -7.509  28.836  0.00  0.00    -0.222 OA
ATOM     25  H   UNL     1       4.270  -7.847  29.751  0.00  0.00    +0.248 HD
ENDBRANCH  21  24
ENDBRANCH  20  21
ENDBRANCH  15  20
ENDBRANCH   5  12
BRANCH   1  27
ATOM     26  C   UNL     1       8.873   5.252  25.026  0.00  0.00    +0.277 C 
ATOM     27  O   UNL     1       8.335   4.039  25.554  0.00  0.00    -0.495 OA
ENDBRANCH   1  27
BRANCH   6  28
ATOM     28  O   UNL     1       8.352  -3.215  22.651  0.00  0.00    -0.488 OA
ATOM     29  C   UNL     1       7.244  -3.718  21.914  0.00  0.00    +0.277 C 
ENDBRANCH   6  28
BRANCH  10  30
ATOM     30  O   UNL     1       9.780   1.829  21.532  0.00  0.00    -0.506 OA
ATOM     31  H   UNL     1      10.386   2.585  21.480  0.00  0.00    +0.292 HD
ENDBRANCH  10  30
TORSDOF 8
ENDMDL
MODEL 4
REMARK VINA RESULT:      -6.9      3.057      8.480
REMARK  Name = 
REMARK  10 active torsions:
REMARK  status: ('A' for Active; 'I' for Inactive)
REMARK    1  A    between atoms: C_1  and  O_2
REMARK    2  A    between atoms: O_2  and  C_3
REMARK    3  A    between atoms: C_5  and  O_28
REMARK    4  A    between atoms: C_10  and  C_16
REMARK    5  A    between atoms: C_11  and  O_14
REMARK    6  A    between atoms: O_14  and  C_15
REMARK    7  A    between atoms: C_18  and  O_27
REMARK    8  A    between atoms: C_19  and  O_22
REMARK    9  A    between atoms: O_22  and  S_23
REMARK   10  A    between atoms: S_23  and  O_26
REMARK                            x       y       z     vdW  Elec       q    Type
REMARK                         _______ _______ _______ _____ _____    ______ ____
ROOT
ATOM      1  C   UNL     1       6.685   3.522  22.915  0.00  0.00    +0.127 A 
ATOM      2  C   UNL     1       6.135   2.296  23.301  0.00  0.00    +0.092 A 
ATOM      3  C   UNL     1       6.843   1.105  23.098  0.00  0.00    +0.147 A 
ATOM      4  O   UNL     1       6.219  -0.056  23.479  0.00  0.00    -0.451 OA
ATOM      5  C   UNL     1       6.912  -1.249  23.369  0.00  0.00    +0.181 A 
ATOM      6  C   UNL     1       8.144  -1.392  22.844  0.00  0.00    +0.211 A 
ATOM      7  C   UNL     1       8.809  -0.155  22.313  0.00  0.00    +0.238 A 
ATOM      8  O   UNL     1       9.879  -0.201  21.719  0.00  0.00    -0.283 OA
ATOM      9  C   UNL     1       8.110   1.130  22.524  0.00  0.00    +0.109 A 
ATOM     10  C   UNL     1       8.669   2.368  22.167  0.00  0.00    +0.135 A 
ATOM     11  C   UNL     1       7.963   3.557  22.366  0.00  0.00    +0.092 A 
ENDROOT
BRANCH   5  12
ATOM     12  C   UNL     1       6.157  -2.390  23.924  0.00  0.00    +0.025 A 
ATOM     13  C   UNL     1       6.211  -2.653  25.300  0.00  0.00    +0.015 A 
ATOM     14  C   UNL     1       5.432  -3.669  25.868  0.00  0.00    +0.053 A 
ATOM     15  C   UNL     1       4.595  -4.442  25.065  0.00  0.00    +0.200 A 
ATOM     16  C   UNL     1       4.572  -4.206  23.685  0.00  0.00    +0.162 A 
ATOM     17  C   UNL     1       5.346  -3.192  23.111  0.00  0.00    +0.061 A 
BRANCH  16  18
ATOM     18  O   UNL     1       3.766  -4.991  22.902  0.00  0.00    -0.503 OA
ATOM     19  H   UNL     1       3.577  -4.525  22.073  0.00  0.00    +0.292 HD
ENDBRANCH  16  18
BRANCH  15  20
ATOM     20  O   UNL     1       3.729  -5.399  25.532  0.00  0.00    -0.321 OA
BRANCH  20  21
ATOM     21  S   UNL     1       4.173  -6.941  25.776  0.00  0.00    +0.251 S 
ATOM     22  O   UNL     1       5.276  -6.987  26.709  0.00  0.00    -0.108 OA
ATOM     23  O   UNL     1       4.224  -7.619  24.498  0.00  0.00    -0.108 OA
BRANCH  21  24
ATOM     24  O   UNL     1       2.888  -7.558  26.527  0.00  0.00    -0.222 OA
ATOM     25  H   UNL     1       2.431  -8.150  25.899  0.00  0.00    +0.248 HD
ENDBRANCH  21  24
ENDBRANCH  20  21
ENDBRANCH  15  20
ENDBRANCH   5  12
BRANCH   1  27
ATOM     26  C   UNL     1       5.714   4.961  24.520  0.00  0.00    +0.277 C 
ATOM     27  O   UNL     1       5.913   4.630  23.146  0.00  0.00    -0.495 OA
ENDBRANCH   1  27
BRANCH   6  28
ATOM     28  O   UNL     1       8.756  -2.642  22.841  0.00  0.00    -0.488 OA
ATOM     29  C   UNL     1       9.688  -2.913  23.881  0.00  0.00    +0.277 C 
ENDBRANCH   6  28
BRANCH  10  30
ATOM     30  O   UNL     1       9.921   2.447  21.624  0.00  0.00    -0.506 OA
ATOM     31  H   UNL     1      10.542   1.874  22.100  0.00  0.00    +0.292 HD
ENDBRANCH  10  30
TORSDOF 8
ENDMDL
MODEL 5
REMARK VINA RESULT:      -6.8      3.136      8.423
REMARK  Name = 
REMARK  10 active torsions:
REMARK  status: ('A' for Active; 'I' for Inactive)
REMARK    1  A    between atoms: C_1  and  O_2
REMARK    2  A    between atoms: O_2  and  C_3
REMARK    3  A    between atoms: C_5  and  O_28
REMARK    4  A    between atoms: C_10  and  C_16
REMARK    5  A    between atoms: C_11  and  O_14
REMARK    6  A    between atoms: O_14  and  C_15
REMARK    7  A    between atoms: C_18  and  O_27
REMARK    8  A    between atoms: C_19  and  O_22
REMARK    9  A    between atoms: O_22  and  S_23
REMARK   10  A    between atoms: S_23  and  O_26
REMARK                            x       y       z     vdW  Elec       q    Type
REMARK                         _______ _______ _______ _____ _____    ______ ____
ROOT
ATOM      1  C   UNL     1       7.215   1.233  22.866  0.00  0.00    +0.127 A 
ATOM      2  C   UNL     1       6.525   0.036  23.076  0.00  0.00    +0.092 A 
ATOM      3  C   UNL     1       7.226  -1.157  23.296  0.00  0.00    +0.147 A 
ATOM      4  O   UNL     1       6.473  -2.292  23.464  0.00  0.00    -0.451 OA
ATOM      5  C   UNL     1       7.119  -3.479  23.761  0.00  0.00    +0.181 A 
ATOM      6  C   UNL     1       8.453  -3.646  23.834  0.00  0.00    +0.211 A 
ATOM      7  C   UNL     1       9.310  -2.448  23.543  0.00  0.00    +0.238 A 
ATOM      8  O   UNL     1      10.530  -2.527  23.475  0.00  0.00    -0.283 OA
ATOM      9  C   UNL     1       8.616  -1.161  23.325  0.00  0.00    +0.109 A 
ATOM     10  C   UNL     1       9.302   0.052  23.145  0.00  0.00    +0.135 A 
ATOM     11  C   UNL     1       8.606   1.243  22.922  0.00  0.00    +0.092 A 
ENDROOT
BRANCH   5  12
ATOM     12  C   UNL     1       6.173  -4.582  24.027  0.00  0.00    +0.025 A 
ATOM     13  C   UNL     1       5.365  -5.067  22.989  0.00  0.00    +0.015 A 
ATOM     14  C   UNL     1       4.529  -6.173  23.188  0.00  0.00    +0.053 A 
ATOM     15  C   UNL     1       4.482  -6.802  24.431  0.00  0.00    +0.200 A 
ATOM     16  C   UNL     1       5.258  -6.292  25.478  0.00  0.00    +0.162 A 
ATOM     17  C   UNL     1       6.097  -5.190  25.287  0.00  0.00    +0.061 A 
BRANCH  16  18
ATOM     18  O   UNL     1       5.183  -6.903  26.703  0.00  0.00    -0.503 OA
ATOM     19  H   UNL     1       4.391  -6.587  27.167  0.00  0.00    +0.292 HD
ENDBRANCH  16  18
BRANCH  15  20
ATOM     20  O   UNL     1       3.767  -7.941  24.704  0.00  0.00    -0.321 OA
BRANCH  20  21
ATOM     21  S   UNL     1       2.214  -7.910  25.175  0.00  0.00    +0.251 S 
ATOM     22  O   UNL     1       1.573  -9.157  24.821  0.00  0.00    -0.108 OA
ATOM     23  O   UNL     1       1.644  -6.628  24.816  0.00  0.00    -0.108 OA
BRANCH  21  24
ATOM     24  O   UNL     1       2.338  -7.878  26.781  0.00  0.00    -0.222 OA
ATOM     25  H   UNL     1       2.511  -6.955  27.049  0.00  0.00    +0.248 HD
ENDBRANCH  21  24
ENDBRANCH  20  21
ENDBRANCH  15  20
ENDBRANCH   5  12
BRANCH   1  27
ATOM     26  C   UNL     1       7.159   3.521  22.272  0.00  0.00    +0.277 C 
ATOM     27  O   UNL     1       6.444   2.344  22.650  0.00  0.00    -0.495 OA
ENDBRANCH   1  27
BRANCH   6  28
ATOM     28  O   UNL     1       8.979  -4.883  24.196  0.00  0.00    -0.488 OA
ATOM     29  C   UNL     1       9.578  -4.983  25.483  0.00  0.00    +0.277 C 
ENDBRANCH   6  28
BRANCH  10  30
ATOM     30  O   UNL     1      10.667   0.105  23.191  0.00  0.00    -0.506 OA
ATOM     31  H   UNL     1      11.059  -0.456  22.504  0.00  0.00    +0.292 HD
ENDBRANCH  10  30
TORSDOF 8
ENDMDL
MODEL 6
REMARK VINA RESULT:      -6.8      2.268      3.307
REMARK  Name = 
REMARK  10 active torsions:
REMARK  status: ('A' for Active; 'I' for Inactive)
REMARK    1  A    between atoms: C_1  and  O_2
REMARK    2  A    between atoms: O_2  and  C_3
REMARK    3  A    between atoms: C_5  and  O_28
REMARK    4  A    between atoms: C_10  and  C_16
REMARK    5  A    between atoms: C_11  and  O_14
REMARK    6  A    between atoms: O_14  and  C_15
REMARK    7  A    between atoms: C_18  and  O_27
REMARK    8  A    between atoms: C_19  and  O_22
REMARK    9  A    between atoms: O_22  and  S_23
REMARK   10  A    between atoms: S_23  and  O_26
REMARK                            x       y       z     vdW  Elec       q    Type
REMARK                         _______ _______ _______ _____ _____    ______ ____
ROOT
ATOM      1  C   UNL     1       2.794  -5.062  26.549  0.00  0.00    +0.127 A 
ATOM      2  C   UNL     1       3.690  -4.096  26.082  0.00  0.00    +0.092 A 
ATOM      3  C   UNL     1       5.063  -4.225  26.326  0.00  0.00    +0.147 A 
ATOM      4  O   UNL     1       5.869  -3.219  25.858  0.00  0.00    -0.451 OA
ATOM      5  C   UNL     1       7.239  -3.342  26.007  0.00  0.00    +0.181 A 
ATOM      6  C   UNL     1       7.869  -4.347  26.646  0.00  0.00    +0.211 A 
ATOM      7  C   UNL     1       7.008  -5.408  27.268  0.00  0.00    +0.238 A 
ATOM      8  O   UNL     1       7.481  -6.299  27.962  0.00  0.00    -0.283 OA
ATOM      9  C   UNL     1       5.553  -5.326  27.021  0.00  0.00    +0.109 A 
ATOM     10  C   UNL     1       4.650  -6.308  27.459  0.00  0.00    +0.135 A 
ATOM     11  C   UNL     1       3.279  -6.180  27.220  0.00  0.00    +0.092 A 
ENDROOT
BRANCH   5  12
ATOM     12  C   UNL     1       7.977  -2.242  25.354  0.00  0.00    +0.025 A 
ATOM     13  C   UNL     1       8.539  -1.224  26.137  0.00  0.00    +0.015 A 
ATOM     14  C   UNL     1       9.324  -0.220  25.555  0.00  0.00    +0.053 A 
ATOM     15  C   UNL     1       9.548  -0.216  24.179  0.00  0.00    +0.200 A 
ATOM     16  C   UNL     1       8.953  -1.209  23.392  0.00  0.00    +0.162 A 
ATOM     17  C   UNL     1       8.170  -2.216  23.967  0.00  0.00    +0.061 A 
BRANCH  16  18
ATOM     18  O   UNL     1       9.159  -1.178  22.037  0.00  0.00    -0.503 OA
ATOM     19  H   UNL     1       8.357  -0.847  21.602  0.00  0.00    +0.292 HD
ENDBRANCH  16  18
BRANCH  15  20
ATOM     20  O   UNL     1      10.370   0.667  23.524  0.00  0.00    -0.321 OA
BRANCH  20  21
ATOM     21  S   UNL     1       9.862   2.119  23.007  0.00  0.00    +0.251 S 
ATOM     22  O   UNL     1      10.880   3.111  23.270  0.00  0.00    -0.108 OA
ATOM     23  O   UNL     1       8.488   2.306  23.420  0.00  0.00    -0.108 OA
BRANCH  21  24
ATOM     24  O   UNL     1       9.796   1.917  21.410  0.00  0.00    -0.222 OA
ATOM     25  H   UNL     1       8.953   1.470  21.201  0.00  0.00    +0.248 HD
ENDBRANCH  21  24
ENDBRANCH  20  21
ENDBRANCH  15  20
ENDBRANCH   5  12
BRANCH   1  27
ATOM     26  C   UNL     1       0.908  -3.671  26.859  0.00  0.00    +0.277 C 
ATOM     27  O   UNL     1       1.471  -4.843  26.271  0.00  0.00    -0.495 OA
ENDBRANCH   1  27
BRANCH   6  28
ATOM     28  O   UNL     1       9.260  -4.384  26.679  0.00  0.00    -0.488 OA
ATOM     29  C   UNL     1       9.916  -5.120  25.653  0.00  0.00    +0.277 C 
ENDBRANCH   6  28
BRANCH  10  30
ATOM     30  O   UNL     1       5.085  -7.421  28.123  0.00  0.00    -0.506 OA
ATOM     31  H   UNL     1       6.053  -7.433  28.183  0.00  0.00    +0.292 HD
ENDBRANCH  10  30
TORSDOF 8
ENDMDL
MODEL 7
REMARK VINA RESULT:      -6.6      3.091      4.727
REMARK  Name = 
REMARK  10 active torsions:
REMARK  status: ('A' for Active; 'I' for Inactive)
REMARK    1  A    between atoms: C_1  and  O_2
REMARK    2  A    between atoms: O_2  and  C_3
REMARK    3  A    between atoms: C_5  and  O_28
REMARK    4  A    between atoms: C_10  and  C_16
REMARK    5  A    between atoms: C_11  and  O_14
REMARK    6  A    between atoms: O_14  and  C_15
REMARK    7  A    between atoms: C_18  and  O_27
REMARK    8  A    between atoms: C_19  and  O_22
REMARK    9  A    between atoms: O_22  and  S_23
REMARK   10  A    between atoms: S_23  and  O_26
REMARK                            x       y       z     vdW  Elec       q    Type
REMARK                         _______ _______ _______ _____ _____    ______ ____
ROOT
ATOM      1  C   UNL     1       7.228  -4.320  27.064  0.00  0.00    +0.127 A 
ATOM      2  C   UNL     1       7.031  -2.976  26.731  0.00  0.00    +0.092 A 
ATOM      3  C   UNL     1       7.833  -2.360  25.762  0.00  0.00    +0.147 A 
ATOM      4  O   UNL     1       7.593  -1.032  25.516  0.00  0.00    -0.451 OA
ATOM      5  C   UNL     1       8.307  -0.403  24.512  0.00  0.00    +0.181 A 
ATOM      6  C   UNL     1       9.290  -0.964  23.782  0.00  0.00    +0.211 A 
ATOM      7  C   UNL     1       9.656  -2.384  24.104  0.00  0.00    +0.238 A 
ATOM      8  O   UNL     1      10.607  -2.942  23.573  0.00  0.00    -0.283 OA
ATOM      9  C   UNL     1       8.824  -3.083  25.106  0.00  0.00    +0.109 A 
ATOM     10  C   UNL     1       8.995  -4.441  25.423  0.00  0.00    +0.135 A 
ATOM     11  C   UNL     1       8.199  -5.057  26.392  0.00  0.00    +0.092 A 
ENDROOT
BRANCH   5  12
ATOM     12  C   UNL     1       7.858   0.987  24.289  0.00  0.00    +0.025 A 
ATOM     13  C   UNL     1       6.723   1.230  23.503  0.00  0.00    +0.015 A 
ATOM     14  C   UNL     1       6.219   2.529  23.352  0.00  0.00    +0.053 A 
ATOM     15  C   UNL     1       6.850   3.602  23.978  0.00  0.00    +0.200 A 
ATOM     16  C   UNL     1       8.007   3.364  24.731  0.00  0.00    +0.162 A 
ATOM     17  C   UNL     1       8.514   2.070  24.887  0.00  0.00    +0.061 A 
BRANCH  16  18
ATOM     18  O   UNL     1       8.633   4.431  25.319  0.00  0.00    -0.503 OA
ATOM     19  H   UNL     1       9.500   4.560  24.903  0.00  0.00    +0.292 HD
ENDBRANCH  16  18
BRANCH  15  20
ATOM     20  O   UNL     1       6.388   4.894  23.967  0.00  0.00    -0.321 OA
BRANCH  20  21
ATOM     21  S   UNL     1       6.900   5.999  22.894  0.00  0.00    +0.251 S 
ATOM     22  O   UNL     1       8.066   6.678  23.413  0.00  0.00    -0.108 OA
ATOM     23  O   UNL     1       5.753   6.725  22.391  0.00  0.00    -0.108 OA
BRANCH  21  24
ATOM     24  O   UNL     1       7.391   5.086  21.661  0.00  0.00    -0.222 OA
ATOM     25  H   UNL     1       6.940   5.404  20.855  0.00  0.00    +0.248 HD
ENDBRANCH  21  24
ENDBRANCH  20  21
ENDBRANCH  15  20
ENDBRANCH   5  12
BRANCH   1  27
ATOM     26  C   UNL     1       5.172  -4.130  28.214  0.00  0.00    +0.277 C 
ATOM     27  O   UNL     1       6.402  -4.830  28.029  0.00  0.00    -0.495 OA
ENDBRANCH   1  27
BRANCH   6  28
ATOM     28  O   UNL     1       9.896  -0.238  22.761  0.00  0.00    -0.488 OA
ATOM     29  C   UNL     1       9.458  -0.494  21.432  0.00  0.00    +0.277 C 
ENDBRANCH   6  28
BRANCH  10  30
ATOM     30  O   UNL     1       9.937  -5.201  24.788  0.00  0.00    -0.506 OA
ATOM     31  H   UNL     1      10.568  -5.574  25.423  0.00  0.00    +0.292 HD
ENDBRANCH  10  30
TORSDOF 8
ENDMDL
MODEL 8
REMARK VINA RESULT:      -6.6      1.605      2.239
REMARK  Name = 
REMARK  10 active torsions:
REMARK  status: ('A' for Active; 'I' for Inactive)
REMARK    1  A    between atoms: C_1  and  O_2
REMARK    2  A    between atoms: O_2  and  C_3
REMARK    3  A    between atoms: C_5  and  O_28
REMARK    4  A    between atoms: C_10  and  C_16
REMARK    5  A    between atoms: C_11  and  O_14
REMARK    6  A    between atoms: O_14  and  C_15
REMARK    7  A    between atoms: C_18  and  O_27
REMARK    8  A    between atoms: C_19  and  O_22
REMARK    9  A    between atoms: O_22  and  S_23
REMARK   10  A    between atoms: S_23  and  O_26
REMARK                            x       y       z     vdW  Elec       q    Type
REMARK                         _______ _______ _______ _____ _____    ______ ____
ROOT
ATOM      1  C   UNL     1       5.347  -6.462  28.195  0.00  0.00    +0.127 A 
ATOM      2  C   UNL     1       6.174  -5.382  27.873  0.00  0.00    +0.092 A 
ATOM      3  C   UNL     1       6.366  -5.009  26.537  0.00  0.00    +0.147 A 
ATOM      4  O   UNL     1       7.215  -3.956  26.307  0.00  0.00    -0.451 OA
ATOM      5  C   UNL     1       7.374  -3.503  25.009  0.00  0.00    +0.181 A 
ATOM      6  C   UNL     1       6.816  -4.054  23.914  0.00  0.00    +0.211 A 
ATOM      7  C   UNL     1       5.971  -5.278  24.120  0.00  0.00    +0.238 A 
ATOM      8  O   UNL     1       5.514  -5.913  23.178  0.00  0.00    -0.283 OA
ATOM      9  C   UNL     1       5.722  -5.699  25.515  0.00  0.00    +0.109 A 
ATOM     10  C   UNL     1       4.868  -6.763  25.848  0.00  0.00    +0.135 A 
ATOM     11  C   UNL     1       4.678  -7.139  27.180  0.00  0.00    +0.092 A 
ENDROOT
BRANCH   5  12
ATOM     12  C   UNL     1       8.224  -2.297  24.935  0.00  0.00    +0.025 A 
ATOM     13  C   UNL     1       9.384  -2.314  24.148  0.00  0.00    +0.015 A 
ATOM     14  C   UNL     1      10.158  -1.158  23.983  0.00  0.00    +0.053 A 
ATOM     15  C   UNL     1       9.786   0.029  24.613  0.00  0.00    +0.200 A 
ATOM     16  C   UNL     1       8.650   0.035  25.432  0.00  0.00    +0.162 A 
ATOM     17  C   UNL     1       7.872  -1.115  25.599  0.00  0.00    +0.061 A 
BRANCH  16  18
ATOM     18  O   UNL     1       8.310   1.201  26.067  0.00  0.00    -0.503 OA
ATOM     19  H   UNL     1       8.619   1.953  25.537  0.00  0.00    +0.292 HD
ENDBRANCH  16  18
BRANCH  15  20
ATOM     20  O   UNL     1      10.421   1.234  24.447  0.00  0.00    -0.321 OA
BRANCH  20  21
ATOM     21  S   UNL     1      10.026   2.279  23.270  0.00  0.00    +0.251 S 
ATOM     22  O   UNL     1       8.777   2.929  23.596  0.00  0.00    -0.108 OA
ATOM     23  O   UNL     1      10.244   1.641  21.989  0.00  0.00    -0.108 OA
BRANCH  21  24
ATOM     24  O   UNL     1      11.186   3.390  23.386  0.00  0.00    -0.222 OA
ATOM     25  H   UNL     1      10.981   4.104  22.752  0.00  0.00    +0.248 HD
ENDBRANCH  21  24
ENDBRANCH  20  21
ENDBRANCH  15  20
ENDBRANCH   5  12
BRANCH   1  27
ATOM     26  C   UNL     1       3.897  -6.756  30.039  0.00  0.00    +0.277 C 
ATOM     27  O   UNL     1       5.230  -6.757  29.527  0.00  0.00    -0.495 OA
ENDBRANCH   1  27
BRANCH   6  28
ATOM     28  O   UNL     1       7.011  -3.469  22.667  0.00  0.00    -0.488 OA
ATOM     29  C   UNL     1       5.906  -2.784  22.090  0.00  0.00    +0.277 C 
ENDBRANCH   6  28
BRANCH  10  30
ATOM     30  O   UNL     1       4.193  -7.455  24.882  0.00  0.00    -0.506 OA
ATOM     31  H   UNL     1       3.235  -7.410  25.028  0.00  0.00    +0.292 HD
ENDBRANCH  10  30
TORSDOF 8
ENDMDL
MODEL 9
REMARK VINA RESULT:      -6.5      4.195      9.468
REMARK  Name = 
REMARK  10 active torsions:
REMARK  status: ('A' for Active; 'I' for Inactive)
REMARK    1  A    between atoms: C_1  and  O_2
REMARK    2  A    between atoms: O_2  and  C_3
REMARK    3  A    between atoms: C_5  and  O_28
REMARK    4  A    between atoms: C_10  and  C_16
REMARK    5  A    between atoms: C_11  and  O_14
REMARK    6  A    between atoms: O_14  and  C_15
REMARK    7  A    between atoms: C_18  and  O_27
REMARK    8  A    between atoms: C_19  and  O_22
REMARK    9  A    between atoms: O_22  and  S_23
REMARK   10  A    between atoms: S_23  and  O_26
REMARK                            x       y       z     vdW  Elec       q    Type
REMARK                         _______ _______ _______ _____ _____    ______ ____
ROOT
ATOM      1  C   UNL     1      12.034   5.005  23.337  0.00  0.00    +0.127 A 
ATOM      2  C   UNL     1      11.627   3.690  23.583  0.00  0.00    +0.092 A 
ATOM      3  C   UNL     1      10.298   3.411  23.925  0.00  0.00    +0.147 A 
ATOM      4  O   UNL     1       9.990   2.098  24.178  0.00  0.00    -0.451 OA
ATOM      5  C   UNL     1       8.673   1.765  24.443  0.00  0.00    +0.181 A 
ATOM      6  C   UNL     1       7.652   2.637  24.549  0.00  0.00    +0.211 A 
ATOM      7  C   UNL     1       7.977   4.094  24.389  0.00  0.00    +0.238 A 
ATOM      8  O   UNL     1       7.139   4.967  24.577  0.00  0.00    -0.283 OA
ATOM      9  C   UNL     1       9.363   4.437  24.007  0.00  0.00    +0.109 A 
ATOM     10  C   UNL     1       9.772   5.752  23.727  0.00  0.00    +0.135 A 
ATOM     11  C   UNL     1      11.098   6.033  23.389  0.00  0.00    +0.092 A 
ENDROOT
BRANCH   5  12
ATOM     12  C   UNL     1       8.479   0.307  24.579  0.00  0.00    +0.025 A 
ATOM     13  C   UNL     1       8.609  -0.294  25.839  0.00  0.00    +0.015 A 
ATOM     14  C   UNL     1       8.338  -1.657  26.015  0.00  0.00    +0.053 A 
ATOM     15  C   UNL     1       7.943  -2.439  24.931  0.00  0.00    +0.200 A 
ATOM     16  C   UNL     1       7.853  -1.847  23.665  0.00  0.00    +0.162 A 
ATOM     17  C   UNL     1       8.120  -0.486  23.482  0.00  0.00    +0.061 A 
BRANCH  16  18
ATOM     18  O   UNL     1       7.490  -2.632  22.603  0.00  0.00    -0.503 OA
ATOM     19  H   UNL     1       6.716  -3.163  22.850  0.00  0.00    +0.292 HD
ENDBRANCH  16  18
BRANCH  15  20
ATOM     20  O   UNL     1       7.570  -3.757  25.013  0.00  0.00    -0.321 OA
BRANCH  20  21
ATOM     21  S   UNL     1       8.631  -4.978  24.883  0.00  0.00    +0.251 S 
ATOM     22  O   UNL     1       8.333  -5.989  25.873  0.00  0.00    -0.108 OA
ATOM     23  O   UNL     1       9.961  -4.426  24.731  0.00  0.00    -0.108 OA
BRANCH  21  24
ATOM     24  O   UNL     1       8.270  -5.603  23.443  0.00  0.00    -0.222 OA
ATOM     25  H   UNL     1       9.086  -5.989  23.071  0.00  0.00    +0.248 HD
ENDBRANCH  21  24
ENDBRANCH  20  21
ENDBRANCH  15  20
ENDBRANCH   5  12
BRANCH   1  27
ATOM     26  C   UNL     1      13.603   5.867  21.793  0.00  0.00    +0.277 C 
ATOM     27  O   UNL     1      13.355   5.179  23.019  0.00  0.00    -0.495 OA
ENDBRANCH   1  27
BRANCH   6  28
ATOM     28  O   UNL     1       6.360   2.168  24.765  0.00  0.00    -0.488 OA
ATOM     29  C   UNL     1       5.859   2.231  26.096  0.00  0.00    +0.277 C 
ENDBRANCH   6  28
BRANCH  10  30
ATOM     30  O   UNL     1       8.884   6.791  23.769  0.00  0.00    -0.506 OA
ATOM     31  H   UNL     1       8.029   6.532  23.393  0.00  0.00    +0.292 HD
ENDBRANCH  10  30
TORSDOF 8
ENDMDL
