MODEL 1
REMARK VINA RESULT:      -6.9      0.000      0.000
REMARK  Name = 
REMARK  24 active torsions:
REMARK  status: ('A' for Active; 'I' for Inactive)
REMARK    1  A    between atoms: C_1  and  C_2
REMARK    2  A    between atoms: C_3  and  O_63
REMARK    3  A    between atoms: C_5  and  O_62
REMARK    4  A    between atoms: C_7  and  O_61
REMARK    5  A    between atoms: C_8  and  O_11
REMARK    6  A    between atoms: O_11  and  C_12
REMARK    7  A    between atoms: C_12  and  C_13
REMARK    8  A    between atoms: C_14  and  O_60
REMARK    9  A    between atoms: C_16  and  O_59
REMARK   10  A    between atoms: C_17  and  O_44
REMARK   11  A    between atoms: C_18  and  O_21
REMARK   12  A    between atoms: O_21  and  C_22
REMARK   13  A    between atoms: C_23  and  C_35
REMARK   14  A    between atoms: C_27  and  O_34
REMARK   15  A    between atoms: C_29  and  O_33
REMARK   16  A    between atoms: C_37  and  O_42
REMARK   17  A    between atoms: C_38  and  O_41
REMARK   18  A    between atoms: O_42  and  C_43
REMARK   19  A    between atoms: O_44  and  C_45
REMARK   20  A    between atoms: C_47  and  O_58
REMARK   21  A    between atoms: C_49  and  O_57
REMARK   22  A    between atoms: C_50  and  O_56
REMARK   23  A    between atoms: C_52  and  C_54
REMARK   24  A    between atoms: C_54  and  O_55
REMARK                            x       y       z     vdW  Elec       q    Type
REMARK                         _______ _______ _______ _____ _____    ______ ____
ROOT
ATOM      1  C   UNL     1       3.278  -0.080  27.821  0.00  0.00    +0.179 C 
ATOM      2  O   UNL     1       4.649  -0.077  27.337  0.00  0.00    -0.331 OA
ATOM      3  C   UNL     1       4.975  -0.891  26.174  0.00  0.00    +0.340 C 
ATOM      4  C   UNL     1       4.391  -2.370  26.226  0.00  0.00    +0.221 C 
ATOM      5  C   UNL     1       2.894  -2.219  26.525  0.00  0.00    +0.180 C 
ATOM      6  C   UNL     1       2.722  -1.519  27.880  0.00  0.00    +0.177 C 
ENDROOT
BRANCH   5   7
ATOM      7  O   UNL     1       2.224  -3.483  26.500  0.00  0.00    -0.386 OA
ATOM      8  H   UNL     1       1.599  -3.444  25.747  0.00  0.00    +0.210 HD
ENDBRANCH   5   7
BRANCH   6   9
ATOM      9  O   UNL     1       1.355  -1.604  28.272  0.00  0.00    -0.386 OA
ATOM     10  H   UNL     1       1.042  -2.497  28.033  0.00  0.00    +0.210 HD
ENDBRANCH   6   9
BRANCH   4  11
ATOM     11  O   UNL     1       5.060  -3.250  27.184  0.00  0.00    -0.337 OA
BRANCH  11  12
ATOM     12  C   UNL     1       6.071  -4.140  26.648  0.00  0.00    +0.282 C 
ATOM     13  O   UNL     1       5.635  -4.735  25.403  0.00  0.00    -0.341 OA
ATOM     14  C   UNL     1       4.522  -5.616  25.546  0.00  0.00    +0.178 C 
ATOM     15  C   UNL     1       4.834  -6.756  26.534  0.00  0.00    +0.177 C 
ATOM     16  C   UNL     1       5.332  -6.175  27.864  0.00  0.00    +0.179 C 
ATOM     17  C   UNL     1       6.536  -5.278  27.596  0.00  0.00    +0.201 C 
BRANCH  17  18
ATOM     18  O   UNL     1       7.585  -6.098  27.032  0.00  0.00    -0.384 OA
ATOM     19  H   UNL     1       7.982  -6.623  27.752  0.00  0.00    +0.210 HD
ENDBRANCH  17  18
BRANCH  16  20
ATOM     20  O   UNL     1       5.668  -7.228  28.769  0.00  0.00    -0.386 OA
ATOM     21  H   UNL     1       5.326  -8.053  28.376  0.00  0.00    +0.210 HD
ENDBRANCH  16  20
BRANCH  15  22
ATOM     22  O   UNL     1       3.684  -7.563  26.744  0.00  0.00    -0.386 OA
ATOM     23  H   UNL     1       3.923  -8.238  27.411  0.00  0.00    +0.210 HD
ENDBRANCH  15  22
BRANCH  14  24
ATOM     24  C   UNL     1       4.160  -6.165  24.154  0.00  0.00    +0.190 C 
BRANCH  24  25
ATOM     25  O   UNL     1       4.461  -7.554  24.036  0.00  0.00    -0.392 OA
ATOM     26  H   UNL     1       3.618  -8.017  24.229  0.00  0.00    +0.210 HD
ENDBRANCH  24  25
ENDBRANCH  14  24
ENDBRANCH  11  12
ENDBRANCH   4  11
BRANCH   3  27
ATOM     27  O   UNL     1       6.402  -0.996  25.968  0.00  0.00    -0.453 OA
BRANCH  27  28
ATOM     28  C   UNL     1       7.158  -0.143  25.161  0.00  0.00    +0.214 A 
ATOM     29  C   UNL     1       7.176   1.337  25.277  0.00  0.00    +0.238 A 
ATOM     30  O   UNL     1       6.277   1.934  25.865  0.00  0.00    -0.283 OA
ATOM     31  C   UNL     1       8.275   2.069  24.608  0.00  0.00    +0.109 A 
ATOM     32  C   UNL     1       9.025   1.395  23.650  0.00  0.00    +0.147 A 
ATOM     33  C   UNL     1      10.068   2.025  22.953  0.00  0.00    +0.092 A 
ATOM     34  C   UNL     1      10.383   3.346  23.264  0.00  0.00    +0.124 A 
ATOM     35  C   UNL     1       9.667   4.040  24.234  0.00  0.00    +0.091 A 
ATOM     36  O   UNL     1       8.775   0.079  23.342  0.00  0.00    -0.451 OA
ATOM     37  C   UNL     1       8.626   3.397  24.913  0.00  0.00    +0.135 A 
ATOM     38  C   UNL     1       7.983  -0.644  24.219  0.00  0.00    +0.181 A 
BRANCH  38  39
ATOM     39  C   UNL     1       8.264  -2.082  24.178  0.00  0.00    +0.025 A 
ATOM     40  C   UNL     1       9.154  -2.565  25.145  0.00  0.00    +0.015 A 
ATOM     41  C   UNL     1       9.524  -3.897  25.155  0.00  0.00    +0.050 A 
ATOM     42  C   UNL     1       8.922  -4.782  24.265  0.00  0.00    +0.158 A 
ATOM     43  C   UNL     1       7.982  -4.337  23.327  0.00  0.00    +0.162 A 
ATOM     44  C   UNL     1       7.717  -2.960  23.239  0.00  0.00    +0.061 A 
BRANCH  42  45
ATOM     45  O   UNL     1       9.291  -6.090  24.387  0.00  0.00    -0.503 OA
ATOM     46  H   UNL     1       9.137  -6.336  25.323  0.00  0.00    +0.292 HD
ENDBRANCH  42  45
BRANCH  43  47
ATOM     47  O   UNL     1       7.224  -5.093  22.476  0.00  0.00    -0.491 OA
ATOM     48  C   UNL     1       6.229  -4.454  21.682  0.00  0.00    +0.277 C 
ENDBRANCH  43  47
ENDBRANCH  38  39
BRANCH  37  49
ATOM     49  O   UNL     1       7.954   4.087  25.882  0.00  0.00    -0.506 OA
ATOM     50  H   UNL     1       8.372   4.944  26.021  0.00  0.00    +0.292 HD
ENDBRANCH  37  49
BRANCH  34  51
ATOM     51  O   UNL     1      11.402   4.017  22.650  0.00  0.00    -0.507 OA
ATOM     52  H   UNL     1      12.135   4.135  23.278  0.00  0.00    +0.292 HD
ENDBRANCH  34  51
ENDBRANCH  27  28
ENDBRANCH   3  27
BRANCH   1  53
ATOM     53  C   UNL     1       2.346   1.025  27.162  0.00  0.00    +0.197 C 
BRANCH  53  54
ATOM     54  O   UNL     1       2.762   2.414  27.392  0.00  0.00    -0.346 OA
BRANCH  54  58
ATOM     55  C   UNL     1       2.115   3.285  23.098  0.00  0.00    +0.041 C 
ATOM     56  C   UNL     1       3.462   3.157  23.805  0.00  0.00    +0.149 C 
ATOM     57  O   UNL     1       3.323   2.477  25.075  0.00  0.00    -0.343 OA
ATOM     58  C   UNL     1       2.776   3.230  26.164  0.00  0.00    +0.282 C 
ATOM     59  C   UNL     1       3.633   4.534  26.345  0.00  0.00    +0.201 C 
ATOM     60  C   UNL     1       3.608   5.359  25.034  0.00  0.00    +0.179 C 
ATOM     61  C   UNL     1       4.165   4.524  23.873  0.00  0.00    +0.174 C 
BRANCH  59  62
ATOM     62  O   UNL     1       5.014   4.202  26.624  0.00  0.00    -0.384 OA
ATOM     63  H   UNL     1       5.514   4.569  25.873  0.00  0.00    +0.210 HD
ENDBRANCH  59  62
BRANCH  60  64
ATOM     64  O   UNL     1       4.335   6.591  25.157  0.00  0.00    -0.386 OA
ATOM     65  H   UNL     1       4.384   6.819  26.108  0.00  0.00    +0.210 HD
ENDBRANCH  60  64
BRANCH  61  66
ATOM     66  O   UNL     1       5.582   4.364  24.008  0.00  0.00    -0.387 OA
ATOM     67  H   UNL     1       5.902   5.130  24.539  0.00  0.00    +0.210 HD
ENDBRANCH  61  66
ENDBRANCH  54  58
ENDBRANCH  53  54
ENDBRANCH   1  53
TORSDOF 22
ENDMDL
MODEL 2
REMARK VINA RESULT:      -6.7      1.837      2.731
REMARK  Name = 
REMARK  24 active torsions:
REMARK  status: ('A' for Active; 'I' for Inactive)
REMARK    1  A    between atoms: C_1  and  C_2
REMARK    2  A    between atoms: C_3  and  O_63
REMARK    3  A    between atoms: C_5  and  O_62
REMARK    4  A    between atoms: C_7  and  O_61
REMARK    5  A    between atoms: C_8  and  O_11
REMARK    6  A    between atoms: O_11  and  C_12
REMARK    7  A    between atoms: C_12  and  C_13
REMARK    8  A    between atoms: C_14  and  O_60
REMARK    9  A    between atoms: C_16  and  O_59
REMARK   10  A    between atoms: C_17  and  O_44
REMARK   11  A    between atoms: C_18  and  O_21
REMARK   12  A    between atoms: O_21  and  C_22
REMARK   13  A    between atoms: C_23  and  C_35
REMARK   14  A    between atoms: C_27  and  O_34
REMARK   15  A    between atoms: C_29  and  O_33
REMARK   16  A    between atoms: C_37  and  O_42
REMARK   17  A    between atoms: C_38  and  O_41
REMARK   18  A    between atoms: O_42  and  C_43
REMARK   19  A    between atoms: O_44  and  C_45
REMARK   20  A    between atoms: C_47  and  O_58
REMARK   21  A    between atoms: C_49  and  O_57
REMARK   22  A    between atoms: C_50  and  O_56
REMARK   23  A    between atoms: C_52  and  C_54
REMARK   24  A    between atoms: C_54  and  O_55
REMARK                            x       y       z     vdW  Elec       q    Type
REMARK                         _______ _______ _______ _____ _____    ______ ____
ROOT
ATOM      1  C   UNL     1       4.727   0.332  28.821  0.00  0.00    +0.179 C 
ATOM      2  O   UNL     1       5.534   0.002  27.658  0.00  0.00    -0.331 OA
ATOM      3  C   UNL     1       4.914  -0.751  26.576  0.00  0.00    +0.340 C 
ATOM      4  C   UNL     1       4.063  -2.007  27.055  0.00  0.00    +0.221 C 
ATOM      5  C   UNL     1       3.099  -1.475  28.124  0.00  0.00    +0.180 C 
ATOM      6  C   UNL     1       3.913  -0.894  29.288  0.00  0.00    +0.177 C 
ENDROOT
BRANCH   5   7
ATOM      7  O   UNL     1       2.199  -2.494  28.572  0.00  0.00    -0.386 OA
ATOM      8  H   UNL     1       1.316  -2.244  28.231  0.00  0.00    +0.210 HD
ENDBRANCH   5   7
BRANCH   6   9
ATOM      9  O   UNL     1       3.035  -0.634  30.380  0.00  0.00    -0.386 OA
ATOM     10  H   UNL     1       2.779  -1.497  30.755  0.00  0.00    +0.210 HD
ENDBRANCH   6   9
BRANCH   4  11
ATOM     11  O   UNL     1       4.864  -3.129  27.543  0.00  0.00    -0.337 OA
BRANCH  11  12
ATOM     12  C   UNL     1       4.648  -4.407  26.894  0.00  0.00    +0.282 C 
ATOM     13  O   UNL     1       3.634  -5.176  27.581  0.00  0.00    -0.341 OA
ATOM     14  C   UNL     1       4.011  -5.580  28.897  0.00  0.00    +0.178 C 
ATOM     15  C   UNL     1       5.305  -6.414  28.877  0.00  0.00    +0.177 C 
ATOM     16  C   UNL     1       6.408  -5.652  28.128  0.00  0.00    +0.179 C 
ATOM     17  C   UNL     1       5.909  -5.299  26.731  0.00  0.00    +0.201 C 
BRANCH  17  18
ATOM     18  O   UNL     1       5.646  -6.535  26.026  0.00  0.00    -0.384 OA
ATOM     19  H   UNL     1       6.427  -7.112  26.124  0.00  0.00    +0.210 HD
ENDBRANCH  17  18
BRANCH  16  20
ATOM     20  O   UNL     1       7.598  -6.440  28.064  0.00  0.00    -0.386 OA
ATOM     21  H   UNL     1       7.340  -7.305  27.693  0.00  0.00    +0.210 HD
ENDBRANCH  16  20
BRANCH  15  22
ATOM     22  O   UNL     1       5.723  -6.720  30.200  0.00  0.00    -0.386 OA
ATOM     23  H   UNL     1       4.918  -6.746  30.757  0.00  0.00    +0.210 HD
ENDBRANCH  15  22
BRANCH  14  24
ATOM     24  C   UNL     1       2.843  -6.375  29.510  0.00  0.00    +0.190 C 
BRANCH  24  25
ATOM     25  O   UNL     1       3.119  -7.772  29.559  0.00  0.00    -0.392 OA
ATOM     26  H   UNL     1       2.291  -8.187  29.883  0.00  0.00    +0.210 HD
ENDBRANCH  24  25
ENDBRANCH  14  24
ENDBRANCH  11  12
ENDBRANCH   4  11
BRANCH   3  27
ATOM     27  O   UNL     1       5.887  -1.228  25.619  0.00  0.00    -0.453 OA
BRANCH  27  28
ATOM     28  C   UNL     1       6.795  -0.419  24.931  0.00  0.00    +0.214 A 
ATOM     29  C   UNL     1       6.693   1.057  24.813  0.00  0.00    +0.238 A 
ATOM     30  O   UNL     1       5.628   1.634  25.024  0.00  0.00    -0.283 OA
ATOM     31  C   UNL     1       7.895   1.799  24.370  0.00  0.00    +0.109 A 
ATOM     32  C   UNL     1       8.929   1.081  23.779  0.00  0.00    +0.147 A 
ATOM     33  C   UNL     1      10.091   1.713  23.310  0.00  0.00    +0.092 A 
ATOM     34  C   UNL     1      10.225   3.090  23.485  0.00  0.00    +0.124 A 
ATOM     35  C   UNL     1       9.219   3.832  24.093  0.00  0.00    +0.091 A 
ATOM     36  O   UNL     1       8.856  -0.282  23.625  0.00  0.00    -0.451 OA
ATOM     37  C   UNL     1       8.064   3.184  24.548  0.00  0.00    +0.135 A 
ATOM     38  C   UNL     1       7.886  -0.957  24.349  0.00  0.00    +0.181 A 
BRANCH  38  39
ATOM     39  C   UNL     1       8.250  -2.351  24.615  0.00  0.00    +0.025 A 
ATOM     40  C   UNL     1       8.748  -2.626  25.895  0.00  0.00    +0.015 A 
ATOM     41  C   UNL     1       9.169  -3.901  26.225  0.00  0.00    +0.050 A 
ATOM     42  C   UNL     1       8.993  -4.938  25.314  0.00  0.00    +0.158 A 
ATOM     43  C   UNL     1       8.439  -4.704  24.049  0.00  0.00    +0.162 A 
ATOM     44  C   UNL     1       8.141  -3.382  23.678  0.00  0.00    +0.061 A 
BRANCH  42  45
ATOM     45  O   UNL     1       9.370  -6.177  25.744  0.00  0.00    -0.503 OA
ATOM     46  H   UNL     1       9.369  -6.757  24.954  0.00  0.00    +0.292 HD
ENDBRANCH  42  45
BRANCH  43  47
ATOM     47  O   UNL     1       8.095  -5.627  23.100  0.00  0.00    -0.491 OA
ATOM     48  C   UNL     1       6.758  -5.652  22.612  0.00  0.00    +0.277 C 
ENDBRANCH  43  47
ENDBRANCH  38  39
BRANCH  37  49
ATOM     49  O   UNL     1       7.100   3.927  25.168  0.00  0.00    -0.506 OA
ATOM     50  H   UNL     1       7.476   4.762  25.471  0.00  0.00    +0.292 HD
ENDBRANCH  37  49
BRANCH  34  51
ATOM     51  O   UNL     1      11.338   3.771  23.082  0.00  0.00    -0.507 OA
ATOM     52  H   UNL     1      12.115   3.428  23.554  0.00  0.00    +0.292 HD
ENDBRANCH  34  51
ENDBRANCH  27  28
ENDBRANCH   3  27
BRANCH   1  53
ATOM     53  C   UNL     1       3.949   1.712  28.710  0.00  0.00    +0.197 C 
BRANCH  53  54
ATOM     54  O   UNL     1       4.423   2.616  27.653  0.00  0.00    -0.346 OA
BRANCH  54  58
ATOM     55  C   UNL     1       4.694   7.015  28.086  0.00  0.00    +0.041 C 
ATOM     56  C   UNL     1       5.726   6.102  27.430  0.00  0.00    +0.149 C 
ATOM     57  O   UNL     1       5.151   4.817  27.096  0.00  0.00    -0.343 OA
ATOM     58  C   UNL     1       4.954   3.890  28.170  0.00  0.00    +0.282 C 
ATOM     59  C   UNL     1       6.326   3.688  28.908  0.00  0.00    +0.201 C 
ATOM     60  C   UNL     1       6.836   5.051  29.440  0.00  0.00    +0.179 C 
ATOM     61  C   UNL     1       7.008   6.040  28.279  0.00  0.00    +0.174 C 
BRANCH  59  62
ATOM     62  O   UNL     1       7.326   3.175  27.995  0.00  0.00    -0.384 OA
ATOM     63  H   UNL     1       6.819   2.857  27.226  0.00  0.00    +0.210 HD
ENDBRANCH  59  62
BRANCH  60  64
ATOM     64  O   UNL     1       8.066   4.920  30.170  0.00  0.00    -0.386 OA
ATOM     65  H   UNL     1       8.728   4.512  29.575  0.00  0.00    +0.210 HD
ENDBRANCH  60  64
BRANCH  61  66
ATOM     66  O   UNL     1       8.136   5.678  27.476  0.00  0.00    -0.387 OA
ATOM     67  H   UNL     1       8.394   6.485  26.973  0.00  0.00    +0.210 HD
ENDBRANCH  61  66
ENDBRANCH  54  58
ENDBRANCH  53  54
ENDBRANCH   1  53
TORSDOF 22
ENDMDL
MODEL 3
REMARK VINA RESULT:      -6.6      1.838      6.103
REMARK  Name = 
REMARK  24 active torsions:
REMARK  status: ('A' for Active; 'I' for Inactive)
REMARK    1  A    between atoms: C_1  and  C_2
REMARK    2  A    between atoms: C_3  and  O_63
REMARK    3  A    between atoms: C_5  and  O_62
REMARK    4  A    between atoms: C_7  and  O_61
REMARK    5  A    between atoms: C_8  and  O_11
REMARK    6  A    between atoms: O_11  and  C_12
REMARK    7  A    between atoms: C_12  and  C_13
REMARK    8  A    between atoms: C_14  and  O_60
REMARK    9  A    between atoms: C_16  and  O_59
REMARK   10  A    between atoms: C_17  and  O_44
REMARK   11  A    between atoms: C_18  and  O_21
REMARK   12  A    between atoms: O_21  and  C_22
REMARK   13  A    between atoms: C_23  and  C_35
REMARK   14  A    between atoms: C_27  and  O_34
REMARK   15  A    between atoms: C_29  and  O_33
REMARK   16  A    between atoms: C_37  and  O_42
REMARK   17  A    between atoms: C_38  and  O_41
REMARK   18  A    between atoms: O_42  and  C_43
REMARK   19  A    between atoms: O_44  and  C_45
REMARK   20  A    between atoms: C_47  and  O_58
REMARK   21  A    between atoms: C_49  and  O_57
REMARK   22  A    between atoms: C_50  and  O_56
REMARK   23  A    between atoms: C_52  and  C_54
REMARK   24  A    between atoms: C_54  and  O_55
REMARK                            x       y       z     vdW  Elec       q    Type
REMARK                         _______ _______ _______ _____ _____    ______ ____
ROOT
ATOM      1  C   UNL     1       8.619  -3.011  24.057  0.00  0.00    +0.179 C 
ATOM      2  O   UNL     1       7.378  -2.285  24.272  0.00  0.00    -0.331 OA
ATOM      3  C   UNL     1       6.874  -2.161  25.633  0.00  0.00    +0.340 C 
ATOM      4  C   UNL     1       6.894  -3.517  26.465  0.00  0.00    +0.221 C 
ATOM      5  C   UNL     1       8.321  -4.064  26.338  0.00  0.00    +0.180 C 
ATOM      6  C   UNL     1       8.626  -4.331  24.858  0.00  0.00    +0.177 C 
ENDROOT
BRANCH   5   7
ATOM      7  O   UNL     1       8.503  -5.243  27.129  0.00  0.00    -0.386 OA
ATOM      8  H   UNL     1       7.733  -5.285  27.734  0.00  0.00    +0.210 HD
ENDBRANCH   5   7
BRANCH   6   9
ATOM      9  O   UNL     1       9.842  -5.068  24.763  0.00  0.00    -0.386 OA
ATOM     10  H   UNL     1       9.684  -5.938  25.175  0.00  0.00    +0.210 HD
ENDBRANCH   6   9
BRANCH   4  11
ATOM     11  O   UNL     1       5.888  -4.494  26.050  0.00  0.00    -0.337 OA
BRANCH  11  12
ATOM     12  C   UNL     1       5.015  -4.102  24.961  0.00  0.00    +0.282 C 
ATOM     13  O   UNL     1       3.641  -4.453  25.242  0.00  0.00    -0.341 OA
ATOM     14  C   UNL     1       3.407  -5.860  25.306  0.00  0.00    +0.178 C 
ATOM     15  C   UNL     1       3.816  -6.554  23.994  0.00  0.00    +0.177 C 
ATOM     16  C   UNL     1       5.262  -6.187  23.635  0.00  0.00    +0.179 C 
ATOM     17  C   UNL     1       5.388  -4.669  23.564  0.00  0.00    +0.201 C 
BRANCH  17  18
ATOM     18  O   UNL     1       4.519  -4.198  22.508  0.00  0.00    -0.384 OA
ATOM     19  H   UNL     1       3.681  -3.905  22.912  0.00  0.00    +0.210 HD
ENDBRANCH  17  18
BRANCH  16  20
ATOM     20  O   UNL     1       5.633  -6.790  22.394  0.00  0.00    -0.386 OA
ATOM     21  H   UNL     1       5.174  -7.651  22.354  0.00  0.00    +0.210 HD
ENDBRANCH  16  20
BRANCH  15  22
ATOM     22  O   UNL     1       3.676  -7.963  24.111  0.00  0.00    -0.386 OA
ATOM     23  H   UNL     1       4.068  -8.360  23.306  0.00  0.00    +0.210 HD
ENDBRANCH  15  22
BRANCH  14  24
ATOM     24  C   UNL     1       1.917  -6.087  25.620  0.00  0.00    +0.190 C 
BRANCH  24  25
ATOM     25  O   UNL     1       1.727  -7.148  26.552  0.00  0.00    -0.392 OA
ATOM     26  H   UNL     1       1.518  -7.936  26.006  0.00  0.00    +0.210 HD
ENDBRANCH  24  25
ENDBRANCH  14  24
ENDBRANCH  11  12
ENDBRANCH   4  11
BRANCH   3  27
ATOM     27  O   UNL     1       5.522  -1.652  25.667  0.00  0.00    -0.453 OA
BRANCH  27  28
ATOM     28  C   UNL     1       5.133  -0.455  26.273  0.00  0.00    +0.214 A 
ATOM     29  C   UNL     1       5.433   0.899  25.743  0.00  0.00    +0.238 A 
ATOM     30  O   UNL     1       6.327   1.068  24.918  0.00  0.00    -0.283 OA
ATOM     31  C   UNL     1       4.663   2.040  26.288  0.00  0.00    +0.109 A 
ATOM     32  C   UNL     1       3.959   1.850  27.472  0.00  0.00    +0.147 A 
ATOM     33  C   UNL     1       3.226   2.889  28.068  0.00  0.00    +0.092 A 
ATOM     34  C   UNL     1       3.170   4.126  27.428  0.00  0.00    +0.124 A 
ATOM     35  C   UNL     1       3.845   4.340  26.231  0.00  0.00    +0.091 A 
ATOM     36  O   UNL     1       3.953   0.636  28.114  0.00  0.00    -0.451 OA
ATOM     37  C   UNL     1       4.576   3.294  25.656  0.00  0.00    +0.135 A 
ATOM     38  C   UNL     1       4.394  -0.467  27.401  0.00  0.00    +0.181 A 
BRANCH  38  39
ATOM     39  C   UNL     1       3.803  -1.720  27.879  0.00  0.00    +0.025 A 
ATOM     40  C   UNL     1       2.529  -2.031  27.387  0.00  0.00    +0.015 A 
ATOM     41  C   UNL     1       1.867  -3.165  27.821  0.00  0.00    +0.050 A 
ATOM     42  C   UNL     1       2.518  -4.057  28.667  0.00  0.00    +0.158 A 
ATOM     43  C   UNL     1       3.817  -3.803  29.126  0.00  0.00    +0.162 A 
ATOM     44  C   UNL     1       4.426  -2.583  28.786  0.00  0.00    +0.061 A 
BRANCH  42  45
ATOM     45  O   UNL     1       1.821  -5.184  28.992  0.00  0.00    -0.503 OA
ATOM     46  H   UNL     1       0.898  -5.034  28.699  0.00  0.00    +0.292 HD
ENDBRANCH  42  45
BRANCH  43  47
ATOM     47  O   UNL     1       4.625  -4.630  29.856  0.00  0.00    -0.491 OA
ATOM     48  C   UNL     1       5.306  -5.692  29.195  0.00  0.00    +0.277 C 
ENDBRANCH  43  47
ENDBRANCH  38  39
BRANCH  37  49
ATOM     49  O   UNL     1       5.208   3.516  24.466  0.00  0.00    -0.506 OA
ATOM     50  H   UNL     1       4.695   4.135  23.935  0.00  0.00    +0.292 HD
ENDBRANCH  37  49
BRANCH  34  51
ATOM     51  O   UNL     1       2.455   5.176  27.930  0.00  0.00    -0.507 OA
ATOM     52  H   UNL     1       2.325   5.840  27.233  0.00  0.00    +0.292 HD
ENDBRANCH  34  51
ENDBRANCH  27  28
ENDBRANCH   3  27
BRANCH   1  53
ATOM     53  C   UNL     1       9.927  -2.113  24.138  0.00  0.00    +0.197 C 
BRANCH  53  54
ATOM     54  O   UNL     1       9.752  -0.806  24.786  0.00  0.00    -0.346 OA
BRANCH  54  58
ATOM     55  C   UNL     1      10.901   3.275  23.507  0.00  0.00    +0.041 C 
ATOM     56  C   UNL     1       9.480   2.747  23.690  0.00  0.00    +0.149 C 
ATOM     57  O   UNL     1       9.469   1.543  24.492  0.00  0.00    -0.343 OA
ATOM     58  C   UNL     1       9.882   0.328  23.854  0.00  0.00    +0.282 C 
ATOM     59  C   UNL     1       9.006   0.123  22.566  0.00  0.00    +0.201 C 
ATOM     60  C   UNL     1       9.184   1.335  21.617  0.00  0.00    +0.179 C 
ATOM     61  C   UNL     1       8.770   2.629  22.329  0.00  0.00    +0.174 C 
BRANCH  59  62
ATOM     62  O   UNL     1       7.602   0.043  22.911  0.00  0.00    -0.384 OA
ATOM     63  H   UNL     1       7.198   0.821  22.487  0.00  0.00    +0.210 HD
ENDBRANCH  59  62
BRANCH  60  64
ATOM     64  O   UNL     1       8.445   1.179  20.396  0.00  0.00    -0.386 OA
ATOM     65  H   UNL     1       8.099   2.058  20.138  0.00  0.00    +0.210 HD
ENDBRANCH  60  64
BRANCH  61  66
ATOM     66  O   UNL     1       7.348   2.679  22.489  0.00  0.00    -0.387 OA
ATOM     67  H   UNL     1       7.039   1.745  22.546  0.00  0.00    +0.210 HD
ENDBRANCH  61  66
ENDBRANCH  54  58
ENDBRANCH  53  54
ENDBRANCH   1  53
TORSDOF 22
ENDMDL
MODEL 4
REMARK VINA RESULT:      -6.6      2.113      9.337
REMARK  Name = 
REMARK  24 active torsions:
REMARK  status: ('A' for Active; 'I' for Inactive)
REMARK    1  A    between atoms: C_1  and  C_2
REMARK    2  A    between atoms: C_3  and  O_63
REMARK    3  A    between atoms: C_5  and  O_62
REMARK    4  A    between atoms: C_7  and  O_61
REMARK    5  A    between atoms: C_8  and  O_11
REMARK    6  A    between atoms: O_11  and  C_12
REMARK    7  A    between atoms: C_12  and  C_13
REMARK    8  A    between atoms: C_14  and  O_60
REMARK    9  A    between atoms: C_16  and  O_59
REMARK   10  A    between atoms: C_17  and  O_44
REMARK   11  A    between atoms: C_18  and  O_21
REMARK   12  A    between atoms: O_21  and  C_22
REMARK   13  A    between atoms: C_23  and  C_35
REMARK   14  A    between atoms: C_27  and  O_34
REMARK   15  A    between atoms: C_29  and  O_33
REMARK   16  A    between atoms: C_37  and  O_42
REMARK   17  A    between atoms: C_38  and  O_41
REMARK   18  A    between atoms: O_42  and  C_43
REMARK   19  A    between atoms: O_44  and  C_45
REMARK   20  A    between atoms: C_47  and  O_58
REMARK   21  A    between atoms: C_49  and  O_57
REMARK   22  A    between atoms: C_50  and  O_56
REMARK   23  A    between atoms: C_52  and  C_54
REMARK   24  A    between atoms: C_54  and  O_55
REMARK                            x       y       z     vdW  Elec       q    Type
REMARK                         _______ _______ _______ _____ _____    ______ ____
ROOT
ATOM      1  C   UNL     1       9.322  -0.551  23.248  0.00  0.00    +0.179 C 
ATOM      2  O   UNL     1       8.718  -0.879  24.529  0.00  0.00    -0.331 OA
ATOM      3  C   UNL     1       7.285  -0.675  24.693  0.00  0.00    +0.340 C 
ATOM      4  C   UNL     1       6.759   0.727  24.157  0.00  0.00    +0.221 C 
ATOM      5  C   UNL     1       7.281   0.848  22.720  0.00  0.00    +0.180 C 
ATOM      6  C   UNL     1       8.815   0.816  22.739  0.00  0.00    +0.177 C 
ENDROOT
BRANCH   5   7
ATOM      7  O   UNL     1       6.791   2.032  22.081  0.00  0.00    -0.386 OA
ATOM      8  H   UNL     1       6.645   2.685  22.797  0.00  0.00    +0.210 HD
ENDBRANCH   5   7
BRANCH   6   9
ATOM      9  O   UNL     1       9.300   1.178  21.449  0.00  0.00    -0.386 OA
ATOM     10  H   UNL     1       9.542   2.123  21.488  0.00  0.00    +0.210 HD
ENDBRANCH   6   9
BRANCH   4  11
ATOM     11  O   UNL     1       7.142   1.873  24.982  0.00  0.00    -0.337 OA
BRANCH  11  12
ATOM     12  C   UNL     1       6.180   2.953  25.074  0.00  0.00    +0.282 C 
ATOM     13  O   UNL     1       6.387   3.926  24.024  0.00  0.00    -0.341 OA
ATOM     14  C   UNL     1       7.624   4.630  24.127  0.00  0.00    +0.178 C 
ATOM     15  C   UNL     1       7.742   5.360  25.479  0.00  0.00    +0.177 C 
ATOM     16  C   UNL     1       7.498   4.373  26.629  0.00  0.00    +0.179 C 
ATOM     17  C   UNL     1       6.142   3.704  26.433  0.00  0.00    +0.201 C 
BRANCH  17  18
ATOM     18  O   UNL     1       5.126   4.732  26.488  0.00  0.00    -0.384 OA
ATOM     19  H   UNL     1       4.253   4.297  26.477  0.00  0.00    +0.210 HD
ENDBRANCH  17  18
BRANCH  16  20
ATOM     20  O   UNL     1       7.559   5.052  27.885  0.00  0.00    -0.386 OA
ATOM     21  H   UNL     1       7.154   5.929  27.747  0.00  0.00    +0.210 HD
ENDBRANCH  16  20
BRANCH  15  22
ATOM     22  O   UNL     1       9.019   5.968  25.608  0.00  0.00    -0.386 OA
ATOM     23  H   UNL     1       9.054   6.705  24.964  0.00  0.00    +0.210 HD
ENDBRANCH  15  22
BRANCH  14  24
ATOM     24  C   UNL     1       7.716   5.617  22.949  0.00  0.00    +0.190 C 
BRANCH  24  25
ATOM     25  O   UNL     1       7.280   5.027  21.727  0.00  0.00    -0.392 OA
ATOM     26  H   UNL     1       8.069   4.571  21.364  0.00  0.00    +0.210 HD
ENDBRANCH  24  25
ENDBRANCH  14  24
ENDBRANCH  11  12
ENDBRANCH   4  11
BRANCH   3  27
ATOM     27  O   UNL     1       6.875  -0.792  26.074  0.00  0.00    -0.453 OA
BRANCH  27  28
ATOM     28  C   UNL     1       6.229  -1.901  26.625  0.00  0.00    +0.214 A 
ATOM     29  C   UNL     1       6.777  -3.281  26.636  0.00  0.00    +0.238 A 
ATOM     30  O   UNL     1       7.680  -3.606  25.869  0.00  0.00    -0.283 OA
ATOM     31  C   UNL     1       6.156  -4.263  27.554  0.00  0.00    +0.109 A 
ATOM     32  C   UNL     1       4.913  -3.957  28.099  0.00  0.00    +0.147 A 
ATOM     33  C   UNL     1       4.247  -4.845  28.958  0.00  0.00    +0.092 A 
ATOM     34  C   UNL     1       4.872  -6.042  29.304  0.00  0.00    +0.124 A 
ATOM     35  C   UNL     1       6.125  -6.366  28.794  0.00  0.00    +0.091 A 
ATOM     36  O   UNL     1       4.281  -2.771  27.817  0.00  0.00    -0.451 OA
ATOM     37  C   UNL     1       6.770  -5.470  27.934  0.00  0.00    +0.135 A 
ATOM     38  C   UNL     1       5.038  -1.763  27.243  0.00  0.00    +0.181 A 
BRANCH  38  39
ATOM     39  C   UNL     1       4.515  -0.426  27.539  0.00  0.00    +0.025 A 
ATOM     40  C   UNL     1       4.951   0.157  28.736  0.00  0.00    +0.015 A 
ATOM     41  C   UNL     1       4.471   1.392  29.129  0.00  0.00    +0.050 A 
ATOM     42  C   UNL     1       3.636   2.107  28.276  0.00  0.00    +0.158 A 
ATOM     43  C   UNL     1       3.233   1.575  27.045  0.00  0.00    +0.162 A 
ATOM     44  C   UNL     1       3.618   0.264  26.718  0.00  0.00    +0.061 A 
BRANCH  42  45
ATOM     45  O   UNL     1       3.264   3.346  28.709  0.00  0.00    -0.503 OA
ATOM     46  H   UNL     1       3.937   3.973  28.368  0.00  0.00    +0.292 HD
ENDBRANCH  42  45
BRANCH  43  47
ATOM     47  O   UNL     1       2.521   2.195  26.056  0.00  0.00    -0.491 OA
ATOM     48  C   UNL     1       1.102   2.253  26.156  0.00  0.00    +0.277 C 
ENDBRANCH  43  47
ENDBRANCH  38  39
BRANCH  37  49
ATOM     49  O   UNL     1       8.012  -5.794  27.466  0.00  0.00    -0.506 OA
ATOM     50  H   UNL     1       8.139  -5.416  26.589  0.00  0.00    +0.292 HD
ENDBRANCH  37  49
BRANCH  34  51
ATOM     51  O   UNL     1       4.300  -6.944  30.156  0.00  0.00    -0.507 OA
ATOM     52  H   UNL     1       3.385  -7.115  29.878  0.00  0.00    +0.292 HD
ENDBRANCH  34  51
ENDBRANCH  27  28
ENDBRANCH   3  27
BRANCH   1  53
ATOM     53  C   UNL     1       9.336  -1.747  22.202  0.00  0.00    +0.197 C 
BRANCH  53  54
ATOM     54  O   UNL     1       8.019  -2.146  21.687  0.00  0.00    -0.346 OA
BRANCH  54  58
ATOM     55  C   UNL     1       8.044  -5.979  23.905  0.00  0.00    +0.041 C 
ATOM     56  C   UNL     1       7.493  -5.746  22.501  0.00  0.00    +0.149 C 
ATOM     57  O   UNL     1       8.006  -4.518  21.935  0.00  0.00    -0.343 OA
ATOM     58  C   UNL     1       7.434  -3.291  22.406  0.00  0.00    +0.282 C 
ATOM     59  C   UNL     1       5.877  -3.364  22.211  0.00  0.00    +0.201 C 
ATOM     60  C   UNL     1       5.310  -4.576  22.992  0.00  0.00    +0.179 C 
ATOM     61  C   UNL     1       5.960  -5.875  22.496  0.00  0.00    +0.174 C 
BRANCH  59  62
ATOM     62  O   UNL     1       5.547  -3.553  20.814  0.00  0.00    -0.384 OA
ATOM     63  H   UNL     1       4.857  -4.240  20.812  0.00  0.00    +0.210 HD
ENDBRANCH  59  62
BRANCH  60  64
ATOM     64  O   UNL     1       3.880  -4.663  22.891  0.00  0.00    -0.386 OA
ATOM     65  H   UNL     1       3.535  -3.763  22.717  0.00  0.00    +0.210 HD
ENDBRANCH  60  64
BRANCH  61  66
ATOM     66  O   UNL     1       5.478  -6.207  21.189  0.00  0.00    -0.387 OA
ATOM     67  H   UNL     1       4.780  -6.892  21.313  0.00  0.00    +0.210 HD
ENDBRANCH  61  66
ENDBRANCH  54  58
ENDBRANCH  53  54
ENDBRANCH   1  53
TORSDOF 22
ENDMDL
MODEL 5
REMARK VINA RESULT:      -6.5      1.976      5.500
REMARK  Name = 
REMARK  24 active torsions:
REMARK  status: ('A' for Active; 'I' for Inactive)
REMARK    1  A    between atoms: C_1  and  C_2
REMARK    2  A    between atoms: C_3  and  O_63
REMARK    3  A    between atoms: C_5  and  O_62
REMARK    4  A    between atoms: C_7  and  O_61
REMARK    5  A    between atoms: C_8  and  O_11
REMARK    6  A    between atoms: O_11  and  C_12
REMARK    7  A    between atoms: C_12  and  C_13
REMARK    8  A    between atoms: C_14  and  O_60
REMARK    9  A    between atoms: C_16  and  O_59
REMARK   10  A    between atoms: C_17  and  O_44
REMARK   11  A    between atoms: C_18  and  O_21
REMARK   12  A    between atoms: O_21  and  C_22
REMARK   13  A    between atoms: C_23  and  C_35
REMARK   14  A    between atoms: C_27  and  O_34
REMARK   15  A    between atoms: C_29  and  O_33
REMARK   16  A    between atoms: C_37  and  O_42
REMARK   17  A    between atoms: C_38  and  O_41
REMARK   18  A    between atoms: O_42  and  C_43
REMARK   19  A    between atoms: O_44  and  C_45
REMARK   20  A    between atoms: C_47  and  O_58
REMARK   21  A    between atoms: C_49  and  O_57
REMARK   22  A    between atoms: C_50  and  O_56
REMARK   23  A    between atoms: C_52  and  C_54
REMARK   24  A    between atoms: C_54  and  O_55
REMARK                            x       y       z     vdW  Elec       q    Type
REMARK                         _______ _______ _______ _____ _____    ______ ____
ROOT
ATOM      1  C   UNL     1       7.893   0.478  22.639  0.00  0.00    +0.179 C 
ATOM      2  O   UNL     1       7.225   0.349  23.924  0.00  0.00    -0.331 OA
ATOM      3  C   UNL     1       7.981  -0.190  25.047  0.00  0.00    +0.340 C 
ATOM      4  C   UNL     1       8.818  -1.498  24.705  0.00  0.00    +0.221 C 
ATOM      5  C   UNL     1       9.645  -1.152  23.460  0.00  0.00    +0.180 C 
ATOM      6  C   UNL     1       8.695  -0.799  22.308  0.00  0.00    +0.177 C 
ENDROOT
BRANCH   5   7
ATOM      7  O   UNL     1      10.527  -2.221  23.101  0.00  0.00    -0.386 OA
ATOM      8  H   UNL     1      10.027  -2.784  22.473  0.00  0.00    +0.210 HD
ENDBRANCH   5   7
BRANCH   6   9
ATOM      9  O   UNL     1       9.443  -0.724  21.098  0.00  0.00    -0.386 OA
ATOM     10  H   UNL     1      10.381  -0.618  21.346  0.00  0.00    +0.210 HD
ENDBRANCH   6   9
BRANCH   4  11
ATOM     11  O   UNL     1       8.008  -2.701  24.512  0.00  0.00    -0.337 OA
BRANCH  11  12
ATOM     12  C   UNL     1       8.725  -3.959  24.452  0.00  0.00    +0.282 C 
ATOM     13  O   UNL     1       8.341  -4.723  23.285  0.00  0.00    -0.341 OA
ATOM     14  C   UNL     1       6.984  -5.164  23.308  0.00  0.00    +0.178 C 
ATOM     15  C   UNL     1       6.695  -6.023  24.552  0.00  0.00    +0.177 C 
ATOM     16  C   UNL     1       7.116  -5.267  25.820  0.00  0.00    +0.179 C 
ATOM     17  C   UNL     1       8.584  -4.873  25.701  0.00  0.00    +0.201 C 
BRANCH  17  18
ATOM     18  O   UNL     1       9.366  -6.087  25.610  0.00  0.00    -0.384 OA
ATOM     19  H   UNL     1       8.840  -6.815  25.990  0.00  0.00    +0.210 HD
ENDBRANCH  17  18
BRANCH  16  20
ATOM     20  O   UNL     1       6.895  -6.076  26.976  0.00  0.00    -0.386 OA
ATOM     21  H   UNL     1       7.400  -6.901  26.840  0.00  0.00    +0.210 HD
ENDBRANCH  16  20
BRANCH  15  22
ATOM     22  O   UNL     1       5.318  -6.367  24.613  0.00  0.00    -0.386 OA
ATOM     23  H   UNL     1       5.026  -6.226  25.538  0.00  0.00    +0.210 HD
ENDBRANCH  15  22
BRANCH  14  24
ATOM     24  C   UNL     1       6.711  -5.949  22.011  0.00  0.00    +0.190 C 
BRANCH  24  25
ATOM     25  O   UNL     1       5.319  -6.017  21.714  0.00  0.00    -0.392 OA
ATOM     26  H   UNL     1       4.986  -6.793  22.214  0.00  0.00    +0.210 HD
ENDBRANCH  24  25
ENDBRANCH  14  24
ENDBRANCH  11  12
ENDBRANCH   4  11
BRANCH   3  27
ATOM     27  O   UNL     1       7.131  -0.503  26.173  0.00  0.00    -0.453 OA
BRANCH  27  28
ATOM     28  C   UNL     1       6.178   0.360  26.720  0.00  0.00    +0.214 A 
ATOM     29  C   UNL     1       6.283   1.841  26.729  0.00  0.00    +0.238 A 
ATOM     30  O   UNL     1       7.366   2.397  26.560  0.00  0.00    -0.283 OA
ATOM     31  C   UNL     1       5.056   2.619  27.013  0.00  0.00    +0.109 A 
ATOM     32  C   UNL     1       3.972   1.952  27.574  0.00  0.00    +0.147 A 
ATOM     33  C   UNL     1       2.781   2.623  27.897  0.00  0.00    +0.092 A 
ATOM     34  C   UNL     1       2.673   3.981  27.604  0.00  0.00    +0.124 A 
ATOM     35  C   UNL     1       3.732   4.670  27.022  0.00  0.00    +0.091 A 
ATOM     36  O   UNL     1       4.020   0.605  27.841  0.00  0.00    -0.451 OA
ATOM     37  C   UNL     1       4.914   3.986  26.714  0.00  0.00    +0.135 A 
ATOM     38  C   UNL     1       5.039  -0.127  27.253  0.00  0.00    +0.181 A 
BRANCH  38  39
ATOM     39  C   UNL     1       4.686  -1.537  27.069  0.00  0.00    +0.025 A 
ATOM     40  C   UNL     1       4.568  -2.303  28.236  0.00  0.00    +0.015 A 
ATOM     41  C   UNL     1       4.291  -3.655  28.162  0.00  0.00    +0.050 A 
ATOM     42  C   UNL     1       4.018  -4.233  26.926  0.00  0.00    +0.158 A 
ATOM     43  C   UNL     1       4.068  -3.477  25.748  0.00  0.00    +0.162 A 
ATOM     44  C   UNL     1       4.483  -2.137  25.823  0.00  0.00    +0.061 A 
BRANCH  42  45
ATOM     45  O   UNL     1       3.686  -5.556  26.949  0.00  0.00    -0.503 OA
ATOM     46  H   UNL     1       3.185  -5.730  26.124  0.00  0.00    +0.292 HD
ENDBRANCH  42  45
BRANCH  43  47
ATOM     47  O   UNL     1       3.713  -3.867  24.486  0.00  0.00    -0.491 OA
ATOM     48  C   UNL     1       2.395  -4.355  24.257  0.00  0.00    +0.277 C 
ENDBRANCH  43  47
ENDBRANCH  38  39
BRANCH  37  49
ATOM     49  O   UNL     1       5.930   4.675  26.117  0.00  0.00    -0.506 OA
ATOM     50  H   UNL     1       6.516   5.041  26.789  0.00  0.00    +0.292 HD
ENDBRANCH  37  49
BRANCH  34  51
ATOM     51  O   UNL     1       1.538   4.695  27.861  0.00  0.00    -0.507 OA
ATOM     52  H   UNL     1       1.724   5.360  28.545  0.00  0.00    +0.292 HD
ENDBRANCH  34  51
ENDBRANCH  27  28
ENDBRANCH   3  27
BRANCH   1  53
ATOM     53  C   UNL     1       8.631   1.868  22.420  0.00  0.00    +0.197 C 
BRANCH  53  54
ATOM     54  O   UNL     1       8.865   2.654  23.639  0.00  0.00    -0.346 OA
BRANCH  54  58
ATOM     55  C   UNL     1       9.951   6.896  24.294  0.00  0.00    +0.041 C 
ATOM     56  C   UNL     1       8.609   6.243  24.616  0.00  0.00    +0.149 C 
ATOM     57  O   UNL     1       8.728   4.802  24.665  0.00  0.00    -0.343 OA
ATOM     58  C   UNL     1       8.812   4.109  23.414  0.00  0.00    +0.282 C 
ATOM     59  C   UNL     1       7.573   4.515  22.539  0.00  0.00    +0.201 C 
ATOM     60  C   UNL     1       7.568   6.050  22.324  0.00  0.00    +0.179 C 
ATOM     61  C   UNL     1       7.513   6.773  23.676  0.00  0.00    +0.174 C 
BRANCH  59  62
ATOM     62  O   UNL     1       6.338   4.166  23.211  0.00  0.00    -0.384 OA
ATOM     63  H   UNL     1       6.606   3.932  24.117  0.00  0.00    +0.210 HD
ENDBRANCH  59  62
BRANCH  60  64
ATOM     64  O   UNL     1       6.482   6.475  21.485  0.00  0.00    -0.386 OA
ATOM     65  H   UNL     1       6.799   6.473  20.558  0.00  0.00    +0.210 HD
ENDBRANCH  60  64
BRANCH  61  66
ATOM     66  O   UNL     1       6.217   6.628  24.268  0.00  0.00    -0.387 OA
ATOM     67  H   UNL     1       5.563   6.710  23.535  0.00  0.00    +0.210 HD
ENDBRANCH  61  66
ENDBRANCH  54  58
ENDBRANCH  53  54
ENDBRANCH   1  53
TORSDOF 22
ENDMDL
MODEL 6
REMARK VINA RESULT:      -6.4      1.953      5.870
REMARK  Name = 
REMARK  24 active torsions:
REMARK  status: ('A' for Active; 'I' for Inactive)
REMARK    1  A    between atoms: C_1  and  C_2
REMARK    2  A    between atoms: C_3  and  O_63
REMARK    3  A    between atoms: C_5  and  O_62
REMARK    4  A    between atoms: C_7  and  O_61
REMARK    5  A    between atoms: C_8  and  O_11
REMARK    6  A    between atoms: O_11  and  C_12
REMARK    7  A    between atoms: C_12  and  C_13
REMARK    8  A    between atoms: C_14  and  O_60
REMARK    9  A    between atoms: C_16  and  O_59
REMARK   10  A    between atoms: C_17  and  O_44
REMARK   11  A    between atoms: C_18  and  O_21
REMARK   12  A    between atoms: O_21  and  C_22
REMARK   13  A    between atoms: C_23  and  C_35
REMARK   14  A    between atoms: C_27  and  O_34
REMARK   15  A    between atoms: C_29  and  O_33
REMARK   16  A    between atoms: C_37  and  O_42
REMARK   17  A    between atoms: C_38  and  O_41
REMARK   18  A    between atoms: O_42  and  C_43
REMARK   19  A    between atoms: O_44  and  C_45
REMARK   20  A    between atoms: C_47  and  O_58
REMARK   21  A    between atoms: C_49  and  O_57
REMARK   22  A    between atoms: C_50  and  O_56
REMARK   23  A    between atoms: C_52  and  C_54
REMARK   24  A    between atoms: C_54  and  O_55
REMARK                            x       y       z     vdW  Elec       q    Type
REMARK                         _______ _______ _______ _____ _____    ______ ____
ROOT
ATOM      1  C   UNL     1       7.935  -0.474  22.293  0.00  0.00    +0.179 C 
ATOM      2  O   UNL     1       6.814  -0.700  23.191  0.00  0.00    -0.331 OA
ATOM      3  C   UNL     1       7.084  -1.248  24.513  0.00  0.00    +0.340 C 
ATOM      4  C   UNL     1       8.078  -2.490  24.517  0.00  0.00    +0.221 C 
ATOM      5  C   UNL     1       9.313  -2.040  23.725  0.00  0.00    +0.180 C 
ATOM      6  C   UNL     1       8.890  -1.687  22.293  0.00  0.00    +0.177 C 
ENDROOT
BRANCH   5   7
ATOM      7  O   UNL     1      10.337  -3.040  23.737  0.00  0.00    -0.386 OA
ATOM      8  H   UNL     1      11.161  -2.581  24.000  0.00  0.00    +0.210 HD
ENDBRANCH   5   7
BRANCH   6   9
ATOM      9  O   UNL     1      10.058  -1.515  21.496  0.00  0.00    -0.386 OA
ATOM     10  H   UNL     1      10.801  -1.915  21.985  0.00  0.00    +0.210 HD
ENDBRANCH   6   9
BRANCH   4  11
ATOM     11  O   UNL     1       7.503  -3.726  23.987  0.00  0.00    -0.337 OA
BRANCH  11  12
ATOM     12  C   UNL     1       6.573  -3.585  22.884  0.00  0.00    +0.282 C 
ATOM     13  O   UNL     1       5.208  -3.524  23.358  0.00  0.00    -0.341 OA
ATOM     14  C   UNL     1       4.755  -4.735  23.964  0.00  0.00    +0.178 C 
ATOM     15  C   UNL     1       4.867  -5.924  22.992  0.00  0.00    +0.177 C 
ATOM     16  C   UNL     1       6.295  -6.012  22.435  0.00  0.00    +0.179 C 
ATOM     17  C   UNL     1       6.661  -4.680  21.787  0.00  0.00    +0.201 C 
BRANCH  17  18
ATOM     18  O   UNL     1       5.751  -4.458  20.685  0.00  0.00    -0.384 OA
ATOM     19  H   UNL     1       5.678  -5.288  20.178  0.00  0.00    +0.210 HD
ENDBRANCH  17  18
BRANCH  16  20
ATOM     20  O   UNL     1       6.395  -7.084  21.497  0.00  0.00    -0.386 OA
ATOM     21  H   UNL     1       7.312  -7.415  21.549  0.00  0.00    +0.210 HD
ENDBRANCH  16  20
BRANCH  15  22
ATOM     22  O   UNL     1       4.512  -7.135  23.643  0.00  0.00    -0.386 OA
ATOM     23  H   UNL     1       5.003  -7.857  23.197  0.00  0.00    +0.210 HD
ENDBRANCH  15  22
BRANCH  14  24
ATOM     24  C   UNL     1       3.301  -4.527  24.428  0.00  0.00    +0.190 C 
BRANCH  24  25
ATOM     25  O   UNL     1       3.060  -3.181  24.830  0.00  0.00    -0.392 OA
ATOM     26  H   UNL     1       3.256  -3.159  25.791  0.00  0.00    +0.210 HD
ENDBRANCH  24  25
ENDBRANCH  14  24
ENDBRANCH  11  12
ENDBRANCH   4  11
BRANCH   3  27
ATOM     27  O   UNL     1       5.874  -1.660  25.188  0.00  0.00    -0.453 OA
BRANCH  27  28
ATOM     28  C   UNL     1       5.299  -0.997  26.274  0.00  0.00    +0.214 A 
ATOM     29  C   UNL     1       4.851   0.419  26.261  0.00  0.00    +0.238 A 
ATOM     30  O   UNL     1       5.259   1.201  25.406  0.00  0.00    -0.283 OA
ATOM     31  C   UNL     1       3.950   0.868  27.347  0.00  0.00    +0.109 A 
ATOM     32  C   UNL     1       3.838   0.068  28.480  0.00  0.00    +0.147 A 
ATOM     33  C   UNL     1       3.025   0.436  29.563  0.00  0.00    +0.092 A 
ATOM     34  C   UNL     1       2.280   1.610  29.478  0.00  0.00    +0.124 A 
ATOM     35  C   UNL     1       2.353   2.419  28.349  0.00  0.00    +0.091 A 
ATOM     36  O   UNL     1       4.523  -1.118  28.589  0.00  0.00    -0.451 OA
ATOM     37  C   UNL     1       3.174   2.039  27.281  0.00  0.00    +0.135 A 
ATOM     38  C   UNL     1       5.069  -1.650  27.431  0.00  0.00    +0.181 A 
BRANCH  38  39
ATOM     39  C   UNL     1       5.212  -3.107  27.494  0.00  0.00    +0.025 A 
ATOM     40  C   UNL     1       4.108  -3.816  27.982  0.00  0.00    +0.015 A 
ATOM     41  C   UNL     1       4.165  -5.190  28.129  0.00  0.00    +0.050 A 
ATOM     42  C   UNL     1       5.289  -5.880  27.686  0.00  0.00    +0.158 A 
ATOM     43  C   UNL     1       6.384  -5.202  27.136  0.00  0.00    +0.162 A 
ATOM     44  C   UNL     1       6.368  -3.798  27.117  0.00  0.00    +0.061 A 
BRANCH  42  45
ATOM     45  O   UNL     1       5.237  -7.238  27.804  0.00  0.00    -0.503 OA
ATOM     46  H   UNL     1       4.288  -7.483  27.772  0.00  0.00    +0.292 HD
ENDBRANCH  42  45
BRANCH  43  47
ATOM     47  O   UNL     1       7.498  -5.741  26.553  0.00  0.00    -0.491 OA
ATOM     48  C   UNL     1       8.755  -5.098  26.737  0.00  0.00    +0.277 C 
ENDBRANCH  43  47
ENDBRANCH  38  39
BRANCH  37  49
ATOM     49  O   UNL     1       3.210   2.833  26.170  0.00  0.00    -0.506 OA
ATOM     50  H   UNL     1       2.435   2.663  25.622  0.00  0.00    +0.292 HD
ENDBRANCH  37  49
BRANCH  34  51
ATOM     51  O   UNL     1       1.445   2.019  30.478  0.00  0.00    -0.507 OA
ATOM     52  H   UNL     1       0.895   1.271  30.765  0.00  0.00    +0.292 HD
ENDBRANCH  34  51
ENDBRANCH  27  28
ENDBRANCH   3  27
BRANCH   1  53
ATOM     53  C   UNL     1       8.600   0.963  22.423  0.00  0.00    +0.197 C 
BRANCH  53  54
ATOM     54  O   UNL     1       8.104   1.971  21.476  0.00  0.00    -0.346 OA
BRANCH  54  58
ATOM     55  C   UNL     1       8.640   5.657  23.871  0.00  0.00    +0.041 C 
ATOM     56  C   UNL     1       7.822   4.429  24.265  0.00  0.00    +0.149 C 
ATOM     57  O   UNL     1       8.189   3.279  23.468  0.00  0.00    -0.343 OA
ATOM     58  C   UNL     1       7.694   3.229  22.125  0.00  0.00    +0.282 C 
ATOM     59  C   UNL     1       6.130   3.375  22.168  0.00  0.00    +0.201 C 
ATOM     60  C   UNL     1       5.751   4.714  22.849  0.00  0.00    +0.179 C 
ATOM     61  C   UNL     1       6.320   4.763  24.273  0.00  0.00    +0.174 C 
BRANCH  59  62
ATOM     62  O   UNL     1       5.540   2.308  22.948  0.00  0.00    -0.384 OA
ATOM     63  H   UNL     1       6.246   2.024  23.555  0.00  0.00    +0.210 HD
ENDBRANCH  59  62
BRANCH  60  64
ATOM     64  O   UNL     1       4.331   4.927  22.871  0.00  0.00    -0.386 OA
ATOM     65  H   UNL     1       4.033   5.065  21.948  0.00  0.00    +0.210 HD
ENDBRANCH  60  64
BRANCH  61  66
ATOM     66  O   UNL     1       5.602   3.867  25.129  0.00  0.00    -0.387 OA
ATOM     67  H   UNL     1       6.078   3.862  25.992  0.00  0.00    +0.210 HD
ENDBRANCH  61  66
ENDBRANCH  54  58
ENDBRANCH  53  54
ENDBRANCH   1  53
TORSDOF 22
ENDMDL
MODEL 7
REMARK VINA RESULT:      -6.1      2.391      8.322
REMARK  Name = 
REMARK  24 active torsions:
REMARK  status: ('A' for Active; 'I' for Inactive)
REMARK    1  A    between atoms: C_1  and  C_2
REMARK    2  A    between atoms: C_3  and  O_63
REMARK    3  A    between atoms: C_5  and  O_62
REMARK    4  A    between atoms: C_7  and  O_61
REMARK    5  A    between atoms: C_8  and  O_11
REMARK    6  A    between atoms: O_11  and  C_12
REMARK    7  A    between atoms: C_12  and  C_13
REMARK    8  A    between atoms: C_14  and  O_60
REMARK    9  A    between atoms: C_16  and  O_59
REMARK   10  A    between atoms: C_17  and  O_44
REMARK   11  A    between atoms: C_18  and  O_21
REMARK   12  A    between atoms: O_21  and  C_22
REMARK   13  A    between atoms: C_23  and  C_35
REMARK   14  A    between atoms: C_27  and  O_34
REMARK   15  A    between atoms: C_29  and  O_33
REMARK   16  A    between atoms: C_37  and  O_42
REMARK   17  A    between atoms: C_38  and  O_41
REMARK   18  A    between atoms: O_42  and  C_43
REMARK   19  A    between atoms: O_44  and  C_45
REMARK   20  A    between atoms: C_47  and  O_58
REMARK   21  A    between atoms: C_49  and  O_57
REMARK   22  A    between atoms: C_50  and  O_56
REMARK   23  A    between atoms: C_52  and  C_54
REMARK   24  A    between atoms: C_54  and  O_55
REMARK                            x       y       z     vdW  Elec       q    Type
REMARK                         _______ _______ _______ _____ _____    ______ ____
ROOT
ATOM      1  C   UNL     1       4.240   0.776  28.908  0.00  0.00    +0.179 C 
ATOM      2  O   UNL     1       4.405   0.247  27.564  0.00  0.00    -0.331 OA
ATOM      3  C   UNL     1       5.756   0.077  27.047  0.00  0.00    +0.340 C 
ATOM      4  C   UNL     1       6.712   1.325  27.290  0.00  0.00    +0.221 C 
ATOM      5  C   UNL     1       6.614   1.641  28.788  0.00  0.00    +0.180 C 
ATOM      6  C   UNL     1       5.161   1.994  29.133  0.00  0.00    +0.177 C 
ENDROOT
BRANCH   5   7
ATOM      7  O   UNL     1       7.511   2.693  29.162  0.00  0.00    -0.386 OA
ATOM      8  H   UNL     1       7.061   3.191  29.876  0.00  0.00    +0.210 HD
ENDBRANCH   5   7
BRANCH   6   9
ATOM      9  O   UNL     1       5.117   2.527  30.454  0.00  0.00    -0.386 OA
ATOM     10  H   UNL     1       4.442   3.232  30.456  0.00  0.00    +0.210 HD
ENDBRANCH   6   9
BRANCH   4  11
ATOM     11  O   UNL     1       6.407   2.490  26.459  0.00  0.00    -0.337 OA
BRANCH  11  12
ATOM     12  C   UNL     1       7.538   3.168  25.857  0.00  0.00    +0.282 C 
ATOM     13  O   UNL     1       7.995   4.260  26.689  0.00  0.00    -0.341 OA
ATOM     14  C   UNL     1       7.051   5.324  26.810  0.00  0.00    +0.178 C 
ATOM     15  C   UNL     1       6.679   5.901  25.431  0.00  0.00    +0.177 C 
ATOM     16  C   UNL     1       6.217   4.773  24.498  0.00  0.00    +0.179 C 
ATOM     17  C   UNL     1       7.309   3.711  24.421  0.00  0.00    +0.201 C 
BRANCH  17  18
ATOM     18  O   UNL     1       8.487   4.326  23.849  0.00  0.00    -0.384 OA
ATOM     19  H   UNL     1       9.151   4.427  24.556  0.00  0.00    +0.210 HD
ENDBRANCH  17  18
BRANCH  16  20
ATOM     20  O   UNL     1       5.915   5.294  23.203  0.00  0.00    -0.386 OA
ATOM     21  H   UNL     1       5.872   6.265  23.296  0.00  0.00    +0.210 HD
ENDBRANCH  16  20
BRANCH  15  22
ATOM     22  O   UNL     1       5.664   6.886  25.560  0.00  0.00    -0.386 OA
ATOM     23  H   UNL     1       5.246   6.757  26.436  0.00  0.00    +0.210 HD
ENDBRANCH  15  22
BRANCH  14  24
ATOM     24  C   UNL     1       7.658   6.405  27.723  0.00  0.00    +0.190 C 
BRANCH  24  25
ATOM     25  O   UNL     1       9.029   6.648  27.419  0.00  0.00    -0.392 OA
ATOM     26  H   UNL     1       9.113   7.624  27.367  0.00  0.00    +0.210 HD
ENDBRANCH  24  25
ENDBRANCH  14  24
ENDBRANCH  11  12
ENDBRANCH   4  11
BRANCH   3  27
ATOM     27  O   UNL     1       5.764  -0.204  25.629  0.00  0.00    -0.453 OA
BRANCH  27  28
ATOM     28  C   UNL     1       5.959  -1.467  25.066  0.00  0.00    +0.214 A 
ATOM     29  C   UNL     1       4.918  -2.521  24.968  0.00  0.00    +0.238 A 
ATOM     30  O   UNL     1       3.913  -2.481  25.675  0.00  0.00    -0.283 OA
ATOM     31  C   UNL     1       5.163  -3.650  24.043  0.00  0.00    +0.109 A 
ATOM     32  C   UNL     1       6.458  -3.846  23.575  0.00  0.00    +0.147 A 
ATOM     33  C   UNL     1       6.777  -4.908  22.714  0.00  0.00    +0.092 A 
ATOM     34  C   UNL     1       5.758  -5.758  22.286  0.00  0.00    +0.124 A 
ATOM     35  C   UNL     1       4.449  -5.574  22.719  0.00  0.00    +0.091 A 
ATOM     36  O   UNL     1       7.484  -3.009  23.938  0.00  0.00    -0.451 OA
ATOM     37  C   UNL     1       4.151  -4.513  23.582  0.00  0.00    +0.135 A 
ATOM     38  C   UNL     1       7.145  -1.795  24.515  0.00  0.00    +0.181 A 
BRANCH  38  39
ATOM     39  C   UNL     1       8.167  -0.766  24.302  0.00  0.00    +0.025 A 
ATOM     40  C   UNL     1       9.230  -0.751  25.213  0.00  0.00    +0.015 A 
ATOM     41  C   UNL     1      10.214   0.216  25.127  0.00  0.00    +0.050 A 
ATOM     42  C   UNL     1      10.205   1.111  24.062  0.00  0.00    +0.158 A 
ATOM     43  C   UNL     1       9.187   1.080  23.100  0.00  0.00    +0.162 A 
ATOM     44  C   UNL     1       8.121   0.181  23.274  0.00  0.00    +0.061 A 
BRANCH  42  45
ATOM     45  O   UNL     1      11.249   1.987  24.013  0.00  0.00    -0.503 OA
ATOM     46  H   UNL     1      11.048   2.619  23.291  0.00  0.00    +0.292 HD
ENDBRANCH  42  45
BRANCH  43  47
ATOM     47  O   UNL     1       9.103   1.805  21.944  0.00  0.00    -0.491 OA
ATOM     48  C   UNL     1       7.835   1.964  21.316  0.00  0.00    +0.277 C 
ENDBRANCH  43  47
ENDBRANCH  38  39
BRANCH  37  49
ATOM     49  O   UNL     1       2.855  -4.332  23.972  0.00  0.00    -0.506 OA
ATOM     50  H   UNL     1       2.800  -4.334  24.934  0.00  0.00    +0.292 HD
ENDBRANCH  37  49
BRANCH  34  51
ATOM     51  O   UNL     1       5.985  -6.795  21.427  0.00  0.00    -0.507 OA
ATOM     52  H   UNL     1       6.858  -7.181  21.611  0.00  0.00    +0.292 HD
ENDBRANCH  34  51
ENDBRANCH  27  28
ENDBRANCH   3  27
BRANCH   1  53
ATOM     53  C   UNL     1       4.215  -0.328  30.050  0.00  0.00    +0.197 C 
BRANCH  53  54
ATOM     54  O   UNL     1       2.938  -1.037  30.209  0.00  0.00    -0.346 OA
BRANCH  54  58
ATOM     55  C   UNL     1       4.998  -4.956  30.304  0.00  0.00    +0.041 C 
ATOM     56  C   UNL     1       4.487  -4.229  29.063  0.00  0.00    +0.149 C 
ATOM     57  O   UNL     1       4.249  -2.829  29.338  0.00  0.00    -0.343 OA
ATOM     58  C   UNL     1       3.062  -2.499  30.070  0.00  0.00    +0.282 C 
ATOM     59  C   UNL     1       1.829  -3.115  29.318  0.00  0.00    +0.201 C 
ATOM     60  C   UNL     1       2.002  -4.651  29.206  0.00  0.00    +0.179 C 
ATOM     61  C   UNL     1       3.294  -4.984  28.450  0.00  0.00    +0.174 C 
BRANCH  59  62
ATOM     62  O   UNL     1       1.736  -2.589  27.972  0.00  0.00    -0.384 OA
ATOM     63  H   UNL     1       2.383  -1.861  27.946  0.00  0.00    +0.210 HD
ENDBRANCH  59  62
BRANCH  60  64
ATOM     64  O   UNL     1       0.876  -5.277  28.571  0.00  0.00    -0.386 OA
ATOM     65  H   UNL     1       0.743  -4.848  27.701  0.00  0.00    +0.210 HD
ENDBRANCH  60  64
BRANCH  61  66
ATOM     66  O   UNL     1       3.153  -4.674  27.059  0.00  0.00    -0.387 OA
ATOM     67  H   UNL     1       2.257  -4.280  26.949  0.00  0.00    +0.210 HD
ENDBRANCH  61  66
ENDBRANCH  54  58
ENDBRANCH  53  54
ENDBRANCH   1  53
TORSDOF 22
ENDMDL
MODEL 8
REMARK VINA RESULT:      -6.1      2.123      8.652
REMARK  Name = 
REMARK  24 active torsions:
REMARK  status: ('A' for Active; 'I' for Inactive)
REMARK    1  A    between atoms: C_1  and  C_2
REMARK    2  A    between atoms: C_3  and  O_63
REMARK    3  A    between atoms: C_5  and  O_62
REMARK    4  A    between atoms: C_7  and  O_61
REMARK    5  A    between atoms: C_8  and  O_11
REMARK    6  A    between atoms: O_11  and  C_12
REMARK    7  A    between atoms: C_12  and  C_13
REMARK    8  A    between atoms: C_14  and  O_60
REMARK    9  A    between atoms: C_16  and  O_59
REMARK   10  A    between atoms: C_17  and  O_44
REMARK   11  A    between atoms: C_18  and  O_21
REMARK   12  A    between atoms: O_21  and  C_22
REMARK   13  A    between atoms: C_23  and  C_35
REMARK   14  A    between atoms: C_27  and  O_34
REMARK   15  A    between atoms: C_29  and  O_33
REMARK   16  A    between atoms: C_37  and  O_42
REMARK   17  A    between atoms: C_38  and  O_41
REMARK   18  A    between atoms: O_42  and  C_43
REMARK   19  A    between atoms: O_44  and  C_45
REMARK   20  A    between atoms: C_47  and  O_58
REMARK   21  A    between atoms: C_49  and  O_57
REMARK   22  A    between atoms: C_50  and  O_56
REMARK   23  A    between atoms: C_52  and  C_54
REMARK   24  A    between atoms: C_54  and  O_55
REMARK                            x       y       z     vdW  Elec       q    Type
REMARK                         _______ _______ _______ _____ _____    ______ ____
ROOT
ATOM      1  C   UNL     1       4.142  -0.610  27.602  0.00  0.00    +0.179 C 
ATOM      2  O   UNL     1       5.170  -0.888  26.612  0.00  0.00    -0.331 OA
ATOM      3  C   UNL     1       6.551  -0.551  26.933  0.00  0.00    +0.340 C 
ATOM      4  C   UNL     1       6.742   0.897  27.564  0.00  0.00    +0.221 C 
ATOM      5  C   UNL     1       5.755   0.977  28.735  0.00  0.00    +0.180 C 
ATOM      6  C   UNL     1       4.327   0.801  28.201  0.00  0.00    +0.177 C 
ENDROOT
BRANCH   5   7
ATOM      7  O   UNL     1       5.895   2.205  29.457  0.00  0.00    -0.386 OA
ATOM      8  H   UNL     1       6.821   2.495  29.320  0.00  0.00    +0.210 HD
ENDBRANCH   5   7
BRANCH   6   9
ATOM      9  O   UNL     1       3.404   1.124  29.237  0.00  0.00    -0.386 OA
ATOM     10  H   UNL     1       2.696   1.661  28.834  0.00  0.00    +0.210 HD
ENDBRANCH   6   9
BRANCH   4  11
ATOM     11  O   UNL     1       6.564   1.997  26.616  0.00  0.00    -0.337 OA
BRANCH  11  12
ATOM     12  C   UNL     1       7.538   3.068  26.679  0.00  0.00    +0.282 C 
ATOM     13  O   UNL     1       7.219   4.001  27.738  0.00  0.00    -0.341 OA
ATOM     14  C   UNL     1       6.008   4.724  27.521  0.00  0.00    +0.178 C 
ATOM     15  C   UNL     1       6.053   5.508  26.196  0.00  0.00    +0.177 C 
ATOM     16  C   UNL     1       6.420   4.565  25.042  0.00  0.00    +0.179 C 
ATOM     17  C   UNL     1       7.740   3.871  25.366  0.00  0.00    +0.201 C 
BRANCH  17  18
ATOM     18  O   UNL     1       8.763   4.888  25.470  0.00  0.00    -0.384 OA
ATOM     19  H   UNL     1       8.325   5.760  25.492  0.00  0.00    +0.210 HD
ENDBRANCH  17  18
BRANCH  16  20
ATOM     20  O   UNL     1       6.511   5.293  23.817  0.00  0.00    -0.386 OA
ATOM     21  H   UNL     1       5.953   4.821  23.170  0.00  0.00    +0.210 HD
ENDBRANCH  16  20
BRANCH  15  22
ATOM     22  O   UNL     1       4.805   6.137  25.945  0.00  0.00    -0.386 OA
ATOM     23  H   UNL     1       4.423   6.378  26.815  0.00  0.00    +0.210 HD
ENDBRANCH  15  22
BRANCH  14  24
ATOM     24  C   UNL     1       5.787   5.665  28.720  0.00  0.00    +0.190 C 
BRANCH  24  25
ATOM     25  O   UNL     1       6.064   5.018  29.960  0.00  0.00    -0.392 OA
ATOM     26  H   UNL     1       5.209   5.004  30.440  0.00  0.00    +0.210 HD
ENDBRANCH  24  25
ENDBRANCH  14  24
ENDBRANCH  11  12
ENDBRANCH   4  11
BRANCH   3  27
ATOM     27  O   UNL     1       7.414  -0.637  25.777  0.00  0.00    -0.453 OA
BRANCH  27  28
ATOM     28  C   UNL     1       7.405  -1.681  24.849  0.00  0.00    +0.214 A 
ATOM     29  C   UNL     1       7.023  -3.083  25.154  0.00  0.00    +0.238 A 
ATOM     30  O   UNL     1       7.012  -3.494  26.312  0.00  0.00    -0.283 OA
ATOM     31  C   UNL     1       6.721  -3.979  24.016  0.00  0.00    +0.109 A 
ATOM     32  C   UNL     1       7.123  -3.584  22.744  0.00  0.00    +0.147 A 
ATOM     33  C   UNL     1       6.896  -4.389  21.617  0.00  0.00    +0.092 A 
ATOM     34  C   UNL     1       6.212  -5.593  21.776  0.00  0.00    +0.124 A 
ATOM     35  C   UNL     1       5.778  -6.005  23.031  0.00  0.00    +0.091 A 
ATOM     36  O   UNL     1       7.762  -2.386  22.536  0.00  0.00    -0.451 OA
ATOM     37  C   UNL     1       6.019  -5.192  24.145  0.00  0.00    +0.135 A 
ATOM     38  C   UNL     1       7.715  -1.450  23.557  0.00  0.00    +0.181 A 
BRANCH  38  39
ATOM     39  C   UNL     1       7.847  -0.075  23.066  0.00  0.00    +0.025 A 
ATOM     40  C   UNL     1       6.657   0.653  22.939  0.00  0.00    +0.015 A 
ATOM     41  C   UNL     1       6.673   1.939  22.434  0.00  0.00    +0.050 A 
ATOM     42  C   UNL     1       7.891   2.552  22.155  0.00  0.00    +0.158 A 
ATOM     43  C   UNL     1       9.101   1.868  22.332  0.00  0.00    +0.162 A 
ATOM     44  C   UNL     1       9.063   0.518  22.716  0.00  0.00    +0.061 A 
BRANCH  42  45
ATOM     45  O   UNL     1       7.821   3.845  21.727  0.00  0.00    -0.503 OA
ATOM     46  H   UNL     1       8.672   4.265  21.974  0.00  0.00    +0.292 HD
ENDBRANCH  42  45
BRANCH  43  47
ATOM     47  O   UNL     1      10.369   2.367  22.217  0.00  0.00    -0.491 OA
ATOM     48  C   UNL     1      10.928   3.094  23.306  0.00  0.00    +0.277 C 
ENDBRANCH  43  47
ENDBRANCH  38  39
BRANCH  37  49
ATOM     49  O   UNL     1       5.559  -5.601  25.364  0.00  0.00    -0.506 OA
ATOM     50  H   UNL     1       5.499  -6.563  25.384  0.00  0.00    +0.292 HD
ENDBRANCH  37  49
BRANCH  34  51
ATOM     51  O   UNL     1       5.929  -6.416  20.723  0.00  0.00    -0.507 OA
ATOM     52  H   UNL     1       6.192  -7.325  20.945  0.00  0.00    +0.292 HD
ENDBRANCH  34  51
ENDBRANCH  27  28
ENDBRANCH   3  27
BRANCH   1  53
ATOM     53  C   UNL     1       3.878  -1.796  28.624  0.00  0.00    +0.197 C 
BRANCH  53  54
ATOM     54  O   UNL     1       3.195  -2.969  28.062  0.00  0.00    -0.346 OA
BRANCH  54  58
ATOM     55  C   UNL     1       5.735  -5.668  30.485  0.00  0.00    +0.041 C 
ATOM     56  C   UNL     1       5.500  -5.752  28.978  0.00  0.00    +0.149 C 
ATOM     57  O   UNL     1       4.971  -4.508  28.462  0.00  0.00    -0.343 OA
ATOM     58  C   UNL     1       3.586  -4.236  28.705  0.00  0.00    +0.282 C 
ATOM     59  C   UNL     1       2.741  -5.444  28.163  0.00  0.00    +0.201 C 
ATOM     60  C   UNL     1       3.182  -6.748  28.875  0.00  0.00    +0.179 C 
ATOM     61  C   UNL     1       4.675  -7.004  28.631  0.00  0.00    +0.174 C 
BRANCH  59  62
ATOM     62  O   UNL     1       2.963  -5.627  26.744  0.00  0.00    -0.384 OA
ATOM     63  H   UNL     1       2.850  -6.582  26.595  0.00  0.00    +0.210 HD
ENDBRANCH  59  62
BRANCH  60  64
ATOM     64  O   UNL     1       2.407  -7.882  28.455  0.00  0.00    -0.386 OA
ATOM     65  H   UNL     1       1.888  -7.618  27.668  0.00  0.00    +0.210 HD
ENDBRANCH  60  64
BRANCH  61  66
ATOM     66  O   UNL     1       4.900  -7.404  27.275  0.00  0.00    -0.387 OA
ATOM     67  H   UNL     1       5.232  -6.608  26.799  0.00  0.00    +0.210 HD
ENDBRANCH  61  66
ENDBRANCH  54  58
ENDBRANCH  53  54
ENDBRANCH   1  53
TORSDOF 22
ENDMDL
MODEL 9
REMARK VINA RESULT:      -6.0      2.237      5.401
REMARK  Name = 
REMARK  24 active torsions:
REMARK  status: ('A' for Active; 'I' for Inactive)
REMARK    1  A    between atoms: C_1  and  C_2
REMARK    2  A    between atoms: C_3  and  O_63
REMARK    3  A    between atoms: C_5  and  O_62
REMARK    4  A    between atoms: C_7  and  O_61
REMARK    5  A    between atoms: C_8  and  O_11
REMARK    6  A    between atoms: O_11  and  C_12
REMARK    7  A    between atoms: C_12  and  C_13
REMARK    8  A    between atoms: C_14  and  O_60
REMARK    9  A    between atoms: C_16  and  O_59
REMARK   10  A    between atoms: C_17  and  O_44
REMARK   11  A    between atoms: C_18  and  O_21
REMARK   12  A    between atoms: O_21  and  C_22
REMARK   13  A    between atoms: C_23  and  C_35
REMARK   14  A    between atoms: C_27  and  O_34
REMARK   15  A    between atoms: C_29  and  O_33
REMARK   16  A    between atoms: C_37  and  O_42
REMARK   17  A    between atoms: C_38  and  O_41
REMARK   18  A    between atoms: O_42  and  C_43
REMARK   19  A    between atoms: O_44  and  C_45
REMARK   20  A    between atoms: C_47  and  O_58
REMARK   21  A    between atoms: C_49  and  O_57
REMARK   22  A    between atoms: C_50  and  O_56
REMARK   23  A    between atoms: C_52  and  C_54
REMARK   24  A    between atoms: C_54  and  O_55
REMARK                            x       y       z     vdW  Elec       q    Type
REMARK                         _______ _______ _______ _____ _____    ______ ____
ROOT
ATOM      1  C   UNL     1       5.151  -0.009  28.307  0.00  0.00    +0.179 C 
ATOM      2  O   UNL     1       5.714   0.481  27.059  0.00  0.00    -0.331 OA
ATOM      3  C   UNL     1       5.095   0.064  25.808  0.00  0.00    +0.340 C 
ATOM      4  C   UNL     1       4.782  -1.494  25.721  0.00  0.00    +0.221 C 
ATOM      5  C   UNL     1       3.993  -1.834  26.992  0.00  0.00    +0.180 C 
ATOM      6  C   UNL     1       4.860  -1.522  28.219  0.00  0.00    +0.177 C 
ENDROOT
BRANCH   5   7
ATOM      7  O   UNL     1       3.559  -3.198  26.991  0.00  0.00    -0.386 OA
ATOM      8  H   UNL     1       2.592  -3.174  27.146  0.00  0.00    +0.210 HD
ENDBRANCH   5   7
BRANCH   6   9
ATOM      9  O   UNL     1       4.234  -2.067  29.377  0.00  0.00    -0.386 OA
ATOM     10  H   UNL     1       3.637  -1.381  29.731  0.00  0.00    +0.210 HD
ENDBRANCH   6   9
BRANCH   4  11
ATOM     11  O   UNL     1       5.964  -2.340  25.562  0.00  0.00    -0.337 OA
BRANCH  11  12
ATOM     12  C   UNL     1       5.985  -3.209  24.402  0.00  0.00    +0.282 C 
ATOM     13  O   UNL     1       6.778  -4.393  24.652  0.00  0.00    -0.341 OA
ATOM     14  C   UNL     1       8.168  -4.126  24.839  0.00  0.00    +0.178 C 
ATOM     15  C   UNL     1       8.768  -3.403  23.619  0.00  0.00    +0.177 C 
ATOM     16  C   UNL     1       7.940  -2.152  23.292  0.00  0.00    +0.179 C 
ATOM     17  C   UNL     1       6.485  -2.557  23.084  0.00  0.00    +0.201 C 
BRANCH  17  18
ATOM     18  O   UNL     1       6.430  -3.452  21.949  0.00  0.00    -0.384 OA
ATOM     19  H   UNL     1       7.135  -3.195  21.325  0.00  0.00    +0.210 HD
ENDBRANCH  17  18
BRANCH  16  20
ATOM     20  O   UNL     1       8.463  -1.501  22.133  0.00  0.00    -0.386 OA
ATOM     21  H   UNL     1       8.648  -0.578  22.391  0.00  0.00    +0.210 HD
ENDBRANCH  16  20
BRANCH  15  22
ATOM     22  O   UNL     1      10.122  -3.053  23.863  0.00  0.00    -0.386 OA
ATOM     23  H   UNL     1      10.306  -3.249  24.805  0.00  0.00    +0.210 HD
ENDBRANCH  15  22
BRANCH  14  24
ATOM     24  C   UNL     1       8.883  -5.464  25.104  0.00  0.00    +0.190 C 
BRANCH  24  25
ATOM     25  O   UNL     1      10.096  -5.282  25.829  0.00  0.00    -0.392 OA
ATOM     26  H   UNL     1      10.764  -5.821  25.354  0.00  0.00    +0.210 HD
ENDBRANCH  24  25
ENDBRANCH  14  24
ENDBRANCH  11  12
ENDBRANCH   4  11
BRANCH   3  27
ATOM     27  O   UNL     1       5.904   0.407  24.661  0.00  0.00    -0.453 OA
BRANCH  27  28
ATOM     28  C   UNL     1       6.813   1.467  24.612  0.00  0.00    +0.214 A 
ATOM     29  C   UNL     1       8.286   1.326  24.732  0.00  0.00    +0.238 A 
ATOM     30  O   UNL     1       8.784   0.313  25.217  0.00  0.00    -0.283 OA
ATOM     31  C   UNL     1       9.125   2.470  24.309  0.00  0.00    +0.109 A 
ATOM     32  C   UNL     1       8.513   3.707  24.143  0.00  0.00    +0.147 A 
ATOM     33  C   UNL     1       9.244   4.846  23.769  0.00  0.00    +0.092 A 
ATOM     34  C   UNL     1      10.608   4.717  23.514  0.00  0.00    +0.124 A 
ATOM     35  C   UNL     1      11.245   3.488  23.650  0.00  0.00    +0.091 A 
ATOM     36  O   UNL     1       7.164   3.871  24.343  0.00  0.00    -0.451 OA
ATOM     37  C   UNL     1      10.500   2.365  24.031  0.00  0.00    +0.135 A 
ATOM     38  C   UNL     1       6.383   2.728  24.400  0.00  0.00    +0.181 A 
BRANCH  38  39
ATOM     39  C   UNL     1       4.995   2.973  23.998  0.00  0.00    +0.025 A 
ATOM     40  C   UNL     1       4.761   3.093  22.623  0.00  0.00    +0.015 A 
ATOM     41  C   UNL     1       3.494   3.379  22.149  0.00  0.00    +0.050 A 
ATOM     42  C   UNL     1       2.426   3.438  23.039  0.00  0.00    +0.158 A 
ATOM     43  C   UNL     1       2.621   3.260  24.415  0.00  0.00    +0.162 A 
ATOM     44  C   UNL     1       3.932   3.105  24.896  0.00  0.00    +0.061 A 
BRANCH  42  45
ATOM     45  O   UNL     1       1.200   3.655  22.483  0.00  0.00    -0.503 OA
ATOM     46  H   UNL     1       1.357   4.139  21.645  0.00  0.00    +0.292 HD
ENDBRANCH  42  45
BRANCH  43  47
ATOM     47  O   UNL     1       1.668   3.171  25.392  0.00  0.00    -0.491 OA
ATOM     48  C   UNL     1       1.191   4.365  26.004  0.00  0.00    +0.277 C 
ENDBRANCH  43  47
ENDBRANCH  38  39
BRANCH  37  49
ATOM     49  O   UNL     1      11.139   1.162  24.129  0.00  0.00    -0.506 OA
ATOM     50  H   UNL     1      10.688   0.606  24.775  0.00  0.00    +0.292 HD
ENDBRANCH  37  49
BRANCH  34  51
ATOM     51  O   UNL     1      11.380   5.772  23.118  0.00  0.00    -0.507 OA
ATOM     52  H   UNL     1      11.652   5.643  22.194  0.00  0.00    +0.292 HD
ENDBRANCH  34  51
ENDBRANCH  27  28
ENDBRANCH   3  27
BRANCH   1  53
ATOM     53  C   UNL     1       4.006   0.910  28.916  0.00  0.00    +0.197 C 
BRANCH  53  54
ATOM     54  O   UNL     1       4.397   1.707  30.086  0.00  0.00    -0.346 OA
BRANCH  54  58
ATOM     55  C   UNL     1       4.003   5.704  28.222  0.00  0.00    +0.041 C 
ATOM     56  C   UNL     1       5.007   4.619  27.839  0.00  0.00    +0.149 C 
ATOM     57  O   UNL     1       4.600   3.328  28.349  0.00  0.00    -0.343 OA
ATOM     58  C   UNL     1       4.804   3.082  29.746  0.00  0.00    +0.282 C 
ATOM     59  C   UNL     1       6.318   3.337  30.078  0.00  0.00    +0.201 C 
ATOM     60  C   UNL     1       6.693   4.795  29.712  0.00  0.00    +0.179 C 
ATOM     61  C   UNL     1       6.435   5.049  28.220  0.00  0.00    +0.174 C 
BRANCH  59  62
ATOM     62  O   UNL     1       7.166   2.460  29.297  0.00  0.00    -0.384 OA
ATOM     63  H   UNL     1       7.761   3.059  28.811  0.00  0.00    +0.210 HD
ENDBRANCH  59  62
BRANCH  60  64
ATOM     64  O   UNL     1       8.056   5.102  30.042  0.00  0.00    -0.386 OA
ATOM     65  H   UNL     1       8.634   4.630  29.408  0.00  0.00    +0.210 HD
ENDBRANCH  60  64
BRANCH  61  66
ATOM     66  O   UNL     1       7.405   4.363  27.422  0.00  0.00    -0.387 OA
ATOM     67  H   UNL     1       7.300   3.402  27.616  0.00  0.00    +0.210 HD
ENDBRANCH  61  66
ENDBRANCH  54  58
ENDBRANCH  53  54
ENDBRANCH   1  53
TORSDOF 22
ENDMDL
