MODEL 1
REMARK VINA RESULT:      -7.1      0.000      0.000
REMARK  Name = 
REMARK  11 active torsions:
REMARK  status: ('A' for Active; 'I' for Inactive)
REMARK    1  A    between atoms: C_1  and  O_2
REMARK    2  A    between atoms: O_2  and  C_3
REMARK    3  A    between atoms: C_5  and  O_31
REMARK    4  A    between atoms: C_10  and  C_19
REMARK    5  A    between atoms: C_11  and  O_14
REMARK    6  A    between atoms: O_14  and  S_15
REMARK    7  A    between atoms: S_15  and  O_18
REMARK    8  A    between atoms: C_21  and  O_26
REMARK    9  A    between atoms: C_22  and  O_25
REMARK   10  A    between atoms: O_26  and  S_27
REMARK   11  A    between atoms: S_27  and  O_30
REMARK                            x       y       z     vdW  Elec       q    Type
REMARK                         _______ _______ _______ _____ _____    ______ ____
ROOT
ATOM      1  C   UNL     1       7.575   1.617  22.554  0.00  0.00    +0.127 A 
ATOM      2  C   UNL     1       6.801   0.450  22.628  0.00  0.00    +0.092 A 
ATOM      3  C   UNL     1       7.391  -0.775  22.967  0.00  0.00    +0.147 A 
ATOM      4  O   UNL     1       6.577  -1.883  23.005  0.00  0.00    -0.451 OA
ATOM      5  C   UNL     1       7.116  -3.095  23.420  0.00  0.00    +0.184 A 
ATOM      6  C   UNL     1       8.408  -3.286  23.745  0.00  0.00    +0.248 A 
ATOM      7  C   UNL     1       9.342  -2.143  23.551  0.00  0.00    +0.241 A 
ATOM      8  O   UNL     1      10.554  -2.325  23.608  0.00  0.00    -0.283 OA
ATOM      9  C   UNL     1       8.756  -0.833  23.232  0.00  0.00    +0.109 A 
ATOM     10  C   UNL     1       9.527   0.333  23.162  0.00  0.00    +0.135 A 
ATOM     11  C   UNL     1       8.942   1.552  22.823  0.00  0.00    +0.092 A 
ENDROOT
BRANCH   5  12
ATOM     12  C   UNL     1       6.110  -4.177  23.492  0.00  0.00    +0.025 A 
ATOM     13  C   UNL     1       5.967  -5.071  22.420  0.00  0.00    +0.015 A 
ATOM     14  C   UNL     1       5.056  -6.129  22.496  0.00  0.00    +0.050 A 
ATOM     15  C   UNL     1       4.292  -6.296  23.643  0.00  0.00    +0.161 A 
ATOM     16  C   UNL     1       4.406  -5.414  24.719  0.00  0.00    +0.201 A 
ATOM     17  C   UNL     1       5.308  -4.345  24.639  0.00  0.00    +0.064 A 
BRANCH  15  18
ATOM     18  O   UNL     1       3.440  -7.365  23.683  0.00  0.00    -0.503 OA
ATOM     19  H   UNL     1       2.774  -7.240  22.985  0.00  0.00    +0.292 HD
ENDBRANCH  15  18
BRANCH  16  20
ATOM     20  O   UNL     1       3.566  -5.662  25.775  0.00  0.00    -0.321 OA
BRANCH  20  21
ATOM     21  S   UNL     1       4.123  -6.201  27.205  0.00  0.00    +0.251 S 
ATOM     22  O   UNL     1       4.181  -5.104  28.142  0.00  0.00    -0.108 OA
ATOM     23  O   UNL     1       5.254  -7.074  26.963  0.00  0.00    -0.108 OA
BRANCH  21  24
ATOM     24  O   UNL     1       2.938  -7.187  27.678  0.00  0.00    -0.222 OA
ATOM     25  H   UNL     1       2.836  -7.881  26.995  0.00  0.00    +0.248 HD
ENDBRANCH  21  24
ENDBRANCH  20  21
ENDBRANCH  16  20
ENDBRANCH   5  12
BRANCH   1  27
ATOM     26  C   UNL     1       7.457   3.991  22.671  0.00  0.00    +0.277 C 
ATOM     27  O   UNL     1       6.900   2.759  22.213  0.00  0.00    -0.495 OA
ENDBRANCH   1  27
BRANCH  10  28
ATOM     28  O   UNL     1      10.867   0.304  23.429  0.00  0.00    -0.506 OA
ATOM     29  H   UNL     1      11.354  -0.131  22.711  0.00  0.00    +0.292 HD
ENDBRANCH  10  28
BRANCH   6  30
ATOM     30  O   UNL     1       8.900  -4.515  24.169  0.00  0.00    -0.317 OA
BRANCH  30  31
ATOM     31  S   UNL     1       9.027  -4.920  25.752  0.00  0.00    +0.252 S 
ATOM     32  O   UNL     1       8.082  -5.987  26.007  0.00  0.00    -0.108 OA
ATOM     33  O   UNL     1       8.998  -3.710  26.547  0.00  0.00    -0.108 OA
BRANCH  31  34
ATOM     34  O   UNL     1      10.504  -5.558  25.897  0.00  0.00    -0.222 OA
ATOM     35  H   UNL     1      10.398  -6.546  25.905  0.00  0.00    +0.248 HD
ENDBRANCH  31  34
ENDBRANCH  30  31
ENDBRANCH   6  30
TORSDOF 10
ENDMDL
MODEL 2
REMARK VINA RESULT:      -7.0      3.389      6.010
REMARK  Name = 
REMARK  11 active torsions:
REMARK  status: ('A' for Active; 'I' for Inactive)
REMARK    1  A    between atoms: C_1  and  O_2
REMARK    2  A    between atoms: O_2  and  C_3
REMARK    3  A    between atoms: C_5  and  O_31
REMARK    4  A    between atoms: C_10  and  C_19
REMARK    5  A    between atoms: C_11  and  O_14
REMARK    6  A    between atoms: O_14  and  S_15
REMARK    7  A    between atoms: S_15  and  O_18
REMARK    8  A    between atoms: C_21  and  O_26
REMARK    9  A    between atoms: C_22  and  O_25
REMARK   10  A    between atoms: O_26  and  S_27
REMARK   11  A    between atoms: S_27  and  O_30
REMARK                            x       y       z     vdW  Elec       q    Type
REMARK                         _______ _______ _______ _____ _____    ______ ____
ROOT
ATOM      1  C   UNL     1      11.523   5.163  23.448  0.00  0.00    +0.127 A 
ATOM      2  C   UNL     1      11.353   3.775  23.539  0.00  0.00    +0.092 A 
ATOM      3  C   UNL     1      10.072   3.221  23.659  0.00  0.00    +0.147 A 
ATOM      4  O   UNL     1       9.977   1.852  23.760  0.00  0.00    -0.451 OA
ATOM      5  C   UNL     1       8.716   1.269  23.794  0.00  0.00    +0.184 A 
ATOM      6  C   UNL     1       7.557   1.952  23.788  0.00  0.00    +0.248 A 
ATOM      7  C   UNL     1       7.635   3.437  23.847  0.00  0.00    +0.241 A 
ATOM      8  O   UNL     1       6.625   4.096  24.077  0.00  0.00    -0.283 OA
ATOM      9  C   UNL     1       8.959   4.056  23.688  0.00  0.00    +0.109 A 
ATOM     10  C   UNL     1       9.129   5.442  23.594  0.00  0.00    +0.135 A 
ATOM     11  C   UNL     1      10.403   5.995  23.477  0.00  0.00    +0.092 A 
ENDROOT
BRANCH   5  12
ATOM     12  C   UNL     1       8.768  -0.209  23.819  0.00  0.00    +0.025 A 
ATOM     13  C   UNL     1       9.360  -0.870  24.905  0.00  0.00    +0.015 A 
ATOM     14  C   UNL     1       9.369  -2.267  24.967  0.00  0.00    +0.050 A 
ATOM     15  C   UNL     1       8.784  -3.003  23.946  0.00  0.00    +0.161 A 
ATOM     16  C   UNL     1       8.197  -2.371  22.848  0.00  0.00    +0.201 A 
ATOM     17  C   UNL     1       8.200  -0.971  22.778  0.00  0.00    +0.064 A 
BRANCH  15  18
ATOM     18  O   UNL     1       8.788  -4.365  24.067  0.00  0.00    -0.503 OA
ATOM     19  H   UNL     1       7.864  -4.668  24.032  0.00  0.00    +0.292 HD
ENDBRANCH  15  18
BRANCH  16  20
ATOM     20  O   UNL     1       7.692  -3.209  21.887  0.00  0.00    -0.321 OA
BRANCH  20  21
ATOM     21  S   UNL     1       6.148  -3.721  21.922  0.00  0.00    +0.251 S 
ATOM     22  O   UNL     1       5.715  -4.031  20.579  0.00  0.00    -0.108 OA
ATOM     23  O   UNL     1       5.391  -2.850  22.797  0.00  0.00    -0.108 OA
BRANCH  21  24
ATOM     24  O   UNL     1       6.271  -5.110  22.730  0.00  0.00    -0.222 OA
ATOM     25  H   UNL     1       7.076  -5.570  22.415  0.00  0.00    +0.248 HD
ENDBRANCH  21  24
ENDBRANCH  20  21
ENDBRANCH  16  20
ENDBRANCH   5  12
BRANCH   1  27
ATOM     26  C   UNL     1      13.366   5.638  22.020  0.00  0.00    +0.277 C 
ATOM     27  O   UNL     1      12.816   5.599  23.336  0.00  0.00    -0.495 OA
ENDBRANCH   1  27
BRANCH  10  28
ATOM     28  O   UNL     1       8.052   6.283  23.607  0.00  0.00    -0.506 OA
ATOM     29  H   UNL     1       8.280   7.143  23.218  0.00  0.00    +0.292 HD
ENDBRANCH  10  28
BRANCH   6  30
ATOM     30  O   UNL     1       6.317   1.324  23.810  0.00  0.00    -0.317 OA
BRANCH  30  31
ATOM     31  S   UNL     1       5.571   0.887  25.202  0.00  0.00    +0.252 S 
ATOM     32  O   UNL     1       4.293   1.564  25.244  0.00  0.00    -0.108 OA
ATOM     33  O   UNL     1       6.509   1.024  26.297  0.00  0.00    -0.108 OA
BRANCH  31  34
ATOM     34  O   UNL     1       5.261  -0.689  25.026  0.00  0.00    -0.222 OA
ATOM     35  H   UNL     1       4.667  -0.785  24.236  0.00  0.00    +0.248 HD
ENDBRANCH  31  34
ENDBRANCH  30  31
ENDBRANCH   6  30
TORSDOF 10
ENDMDL
MODEL 3
REMARK VINA RESULT:      -6.9      2.953      7.686
REMARK  Name = 
REMARK  11 active torsions:
REMARK  status: ('A' for Active; 'I' for Inactive)
REMARK    1  A    between atoms: C_1  and  O_2
REMARK    2  A    between atoms: O_2  and  C_3
REMARK    3  A    between atoms: C_5  and  O_31
REMARK    4  A    between atoms: C_10  and  C_19
REMARK    5  A    between atoms: C_11  and  O_14
REMARK    6  A    between atoms: O_14  and  S_15
REMARK    7  A    between atoms: S_15  and  O_18
REMARK    8  A    between atoms: C_21  and  O_26
REMARK    9  A    between atoms: C_22  and  O_25
REMARK   10  A    between atoms: O_26  and  S_27
REMARK   11  A    between atoms: S_27  and  O_30
REMARK                            x       y       z     vdW  Elec       q    Type
REMARK                         _______ _______ _______ _____ _____    ______ ____
ROOT
ATOM      1  C   UNL     1       2.618  -5.228  28.343  0.00  0.00    +0.127 A 
ATOM      2  C   UNL     1       3.245  -4.084  27.830  0.00  0.00    +0.092 A 
ATOM      3  C   UNL     1       4.613  -4.098  27.526  0.00  0.00    +0.147 A 
ATOM      4  O   UNL     1       5.168  -2.937  27.040  0.00  0.00    -0.451 OA
ATOM      5  C   UNL     1       6.502  -2.945  26.650  0.00  0.00    +0.184 A 
ATOM      6  C   UNL     1       7.325  -4.005  26.759  0.00  0.00    +0.248 A 
ATOM      7  C   UNL     1       6.793  -5.220  27.434  0.00  0.00    +0.241 A 
ATOM      8  O   UNL     1       7.558  -6.121  27.767  0.00  0.00    -0.283 OA
ATOM      9  C   UNL     1       5.355  -5.257  27.735  0.00  0.00    +0.109 A 
ATOM     10  C   UNL     1       4.728  -6.400  28.245  0.00  0.00    +0.135 A 
ATOM     11  C   UNL     1       3.367  -6.387  28.550  0.00  0.00    +0.092 A 
ENDROOT
BRANCH   5  12
ATOM     12  C   UNL     1       6.939  -1.655  26.072  0.00  0.00    +0.025 A 
ATOM     13  C   UNL     1       7.070  -0.528  26.897  0.00  0.00    +0.015 A 
ATOM     14  C   UNL     1       7.532   0.684  26.375  0.00  0.00    +0.050 A 
ATOM     15  C   UNL     1       7.867   0.769  25.030  0.00  0.00    +0.161 A 
ATOM     16  C   UNL     1       7.735  -0.335  24.184  0.00  0.00    +0.201 A 
ATOM     17  C   UNL     1       7.259  -1.546  24.704  0.00  0.00    +0.064 A 
BRANCH  15  18
ATOM     18  O   UNL     1       8.346   1.965  24.572  0.00  0.00    -0.503 OA
ATOM     19  H   UNL     1       7.800   2.231  23.812  0.00  0.00    +0.292 HD
ENDBRANCH  15  18
BRANCH  16  20
ATOM     20  O   UNL     1       8.058  -0.111  22.870  0.00  0.00    -0.321 OA
BRANCH  20  21
ATOM     21  S   UNL     1       9.600  -0.103  22.355  0.00  0.00    +0.251 S 
ATOM     22  O   UNL     1      10.414  -0.875  23.264  0.00  0.00    -0.108 OA
ATOM     23  O   UNL     1       9.950   1.247  21.960  0.00  0.00    -0.108 OA
BRANCH  21  24
ATOM     24  O   UNL     1       9.499  -0.922  20.970  0.00  0.00    -0.222 OA
ATOM     25  H   UNL     1       9.710  -1.859  21.161  0.00  0.00    +0.248 HD
ENDBRANCH  21  24
ENDBRANCH  20  21
ENDBRANCH  16  20
ENDBRANCH   5  12
BRANCH   1  27
ATOM     26  C   UNL     1       0.536  -4.239  27.753  0.00  0.00    +0.277 C 
ATOM     27  O   UNL     1       1.280  -5.107  28.608  0.00  0.00    -0.495 OA
ENDBRANCH   1  27
BRANCH  10  28
ATOM     28  O   UNL     1       5.431  -7.553  28.448  0.00  0.00    -0.506 OA
ATOM     29  H   UNL     1       4.831  -8.298  28.620  0.00  0.00    +0.292 HD
ENDBRANCH  10  28
BRANCH   6  30
ATOM     30  O   UNL     1       8.650  -3.970  26.342  0.00  0.00    -0.317 OA
BRANCH  30  31
ATOM     31  S   UNL     1       9.179  -4.758  25.006  0.00  0.00    +0.252 S 
ATOM     32  O   UNL     1      10.232  -3.960  24.416  0.00  0.00    -0.108 OA
ATOM     33  O   UNL     1       8.033  -5.159  24.216  0.00  0.00    -0.108 OA
BRANCH  31  34
ATOM     34  O   UNL     1       9.871  -6.105  25.570  0.00  0.00    -0.222 OA
ATOM     35  H   UNL     1      10.838  -6.054  25.348  0.00  0.00    +0.248 HD
ENDBRANCH  31  34
ENDBRANCH  30  31
ENDBRANCH   6  30
TORSDOF 10
ENDMDL
MODEL 4
REMARK VINA RESULT:      -6.9      2.799      4.704
REMARK  Name = 
REMARK  11 active torsions:
REMARK  status: ('A' for Active; 'I' for Inactive)
REMARK    1  A    between atoms: C_1  and  O_2
REMARK    2  A    between atoms: O_2  and  C_3
REMARK    3  A    between atoms: C_5  and  O_31
REMARK    4  A    between atoms: C_10  and  C_19
REMARK    5  A    between atoms: C_11  and  O_14
REMARK    6  A    between atoms: O_14  and  S_15
REMARK    7  A    between atoms: S_15  and  O_18
REMARK    8  A    between atoms: C_21  and  O_26
REMARK    9  A    between atoms: C_22  and  O_25
REMARK   10  A    between atoms: O_26  and  S_27
REMARK   11  A    between atoms: S_27  and  O_30
REMARK                            x       y       z     vdW  Elec       q    Type
REMARK                         _______ _______ _______ _____ _____    ______ ____
ROOT
ATOM      1  C   UNL     1      10.778   3.870  23.614  0.00  0.00    +0.127 A 
ATOM      2  C   UNL     1      10.560   2.486  23.563  0.00  0.00    +0.092 A 
ATOM      3  C   UNL     1       9.308   1.950  23.895  0.00  0.00    +0.147 A 
ATOM      4  O   UNL     1       9.167   0.583  23.840  0.00  0.00    -0.451 OA
ATOM      5  C   UNL     1       7.915   0.029  24.081  0.00  0.00    +0.184 A 
ATOM      6  C   UNL     1       6.820   0.733  24.421  0.00  0.00    +0.248 A 
ATOM      7  C   UNL     1       6.987   2.194  24.650  0.00  0.00    +0.241 A 
ATOM      8  O   UNL     1       6.087   2.838  25.182  0.00  0.00    -0.283 OA
ATOM      9  C   UNL     1       8.274   2.799  24.278  0.00  0.00    +0.109 A 
ATOM     10  C   UNL     1       8.491   4.181  24.326  0.00  0.00    +0.135 A 
ATOM     11  C   UNL     1       9.737   4.715  23.998  0.00  0.00    +0.092 A 
ENDROOT
BRANCH   5  12
ATOM     12  C   UNL     1       7.894  -1.440  23.905  0.00  0.00    +0.025 A 
ATOM     13  C   UNL     1       7.713  -1.989  22.628  0.00  0.00    +0.015 A 
ATOM     14  C   UNL     1       7.743  -3.374  22.440  0.00  0.00    +0.050 A 
ATOM     15  C   UNL     1       7.956  -4.210  23.528  0.00  0.00    +0.161 A 
ATOM     16  C   UNL     1       8.128  -3.690  24.813  0.00  0.00    +0.201 A 
ATOM     17  C   UNL     1       8.084  -2.302  25.004  0.00  0.00    +0.064 A 
BRANCH  15  18
ATOM     18  O   UNL     1       8.011  -5.555  23.290  0.00  0.00    -0.503 OA
ATOM     19  H   UNL     1       8.941  -5.790  23.129  0.00  0.00    +0.292 HD
ENDBRANCH  15  18
BRANCH  16  20
ATOM     20  O   UNL     1       8.288  -4.620  25.808  0.00  0.00    -0.321 OA
BRANCH  20  21
ATOM     21  S   UNL     1       7.028  -5.180  26.670  0.00  0.00    +0.251 S 
ATOM     22  O   UNL     1       6.268  -6.106  25.864  0.00  0.00    -0.108 OA
ATOM     23  O   UNL     1       6.409  -4.067  27.361  0.00  0.00    -0.108 OA
BRANCH  21  24
ATOM     24  O   UNL     1       7.761  -6.027  27.830  0.00  0.00    -0.222 OA
ATOM     25  H   UNL     1       7.617  -5.559  28.678  0.00  0.00    +0.248 HD
ENDBRANCH  21  24
ENDBRANCH  20  21
ENDBRANCH  16  20
ENDBRANCH   5  12
BRANCH   1  27
ATOM     26  C   UNL     1      12.388   5.622  23.636  0.00  0.00    +0.277 C 
ATOM     27  O   UNL     1      12.036   4.288  23.272  0.00  0.00    -0.495 OA
ENDBRANCH   1  27
BRANCH  10  28
ATOM     28  O   UNL     1       7.489   5.036  24.687  0.00  0.00    -0.506 OA
ATOM     29  H   UNL     1       6.735   4.549  25.056  0.00  0.00    +0.292 HD
ENDBRANCH  10  28
BRANCH   6  30
ATOM     30  O   UNL     1       5.584   0.136  24.640  0.00  0.00    -0.317 OA
BRANCH  30  31
ATOM     31  S   UNL     1       5.073  -0.320  26.129  0.00  0.00    +0.252 S 
ATOM     32  O   UNL     1       3.807   0.337  26.376  0.00  0.00    -0.108 OA
ATOM     33  O   UNL     1       6.170  -0.174  27.064  0.00  0.00    -0.108 OA
BRANCH  31  34
ATOM     34  O   UNL     1       4.762  -1.899  25.992  0.00  0.00    -0.222 OA
ATOM     35  H   UNL     1       5.636  -2.372  25.988  0.00  0.00    +0.248 HD
ENDBRANCH  31  34
ENDBRANCH  30  31
ENDBRANCH   6  30
TORSDOF 10
ENDMDL
MODEL 5
REMARK VINA RESULT:      -6.8      2.903      7.271
REMARK  Name = 
REMARK  11 active torsions:
REMARK  status: ('A' for Active; 'I' for Inactive)
REMARK    1  A    between atoms: C_1  and  O_2
REMARK    2  A    between atoms: O_2  and  C_3
REMARK    3  A    between atoms: C_5  and  O_31
REMARK    4  A    between atoms: C_10  and  C_19
REMARK    5  A    between atoms: C_11  and  O_14
REMARK    6  A    between atoms: O_14  and  S_15
REMARK    7  A    between atoms: S_15  and  O_18
REMARK    8  A    between atoms: C_21  and  O_26
REMARK    9  A    between atoms: C_22  and  O_25
REMARK   10  A    between atoms: O_26  and  S_27
REMARK   11  A    between atoms: S_27  and  O_30
REMARK                            x       y       z     vdW  Elec       q    Type
REMARK                         _______ _______ _______ _____ _____    ______ ____
ROOT
ATOM      1  C   UNL     1       5.232  -5.002  22.859  0.00  0.00    +0.127 A 
ATOM      2  C   UNL     1       5.211  -3.604  22.751  0.00  0.00    +0.092 A 
ATOM      3  C   UNL     1       6.371  -2.855  22.987  0.00  0.00    +0.147 A 
ATOM      4  O   UNL     1       6.277  -1.487  22.880  0.00  0.00    -0.451 OA
ATOM      5  C   UNL     1       7.430  -0.723  23.024  0.00  0.00    +0.184 A 
ATOM      6  C   UNL     1       8.645  -1.221  23.316  0.00  0.00    +0.248 A 
ATOM      7  C   UNL     1       8.740  -2.679  23.601  0.00  0.00    +0.241 A 
ATOM      8  O   UNL     1       9.764  -3.142  24.095  0.00  0.00    -0.283 OA
ATOM      9  C   UNL     1       7.554  -3.504  23.331  0.00  0.00    +0.109 A 
ATOM     10  C   UNL     1       7.574  -4.899  23.435  0.00  0.00    +0.135 A 
ATOM     11  C   UNL     1       6.420  -5.646  23.203  0.00  0.00    +0.092 A 
ENDROOT
BRANCH   5  12
ATOM     12  C   UNL     1       7.194   0.720  22.802  0.00  0.00    +0.025 A 
ATOM     13  C   UNL     1       7.831   1.377  21.738  0.00  0.00    +0.015 A 
ATOM     14  C   UNL     1       7.576   2.729  21.485  0.00  0.00    +0.050 A 
ATOM     15  C   UNL     1       6.685   3.422  22.292  0.00  0.00    +0.161 A 
ATOM     16  C   UNL     1       6.046   2.795  23.364  0.00  0.00    +0.201 A 
ATOM     17  C   UNL     1       6.310   1.445  23.627  0.00  0.00    +0.064 A 
BRANCH  15  18
ATOM     18  O   UNL     1       6.443   4.733  21.985  0.00  0.00    -0.503 OA
ATOM     19  H   UNL     1       6.752   5.274  22.732  0.00  0.00    +0.292 HD
ENDBRANCH  15  18
BRANCH  16  20
ATOM     20  O   UNL     1       5.222   3.599  24.110  0.00  0.00    -0.321 OA
BRANCH  20  21
ATOM     21  S   UNL     1       3.623   3.324  24.216  0.00  0.00    +0.251 S 
ATOM     22  O   UNL     1       2.924   4.584  24.314  0.00  0.00    -0.108 OA
ATOM     23  O   UNL     1       3.401   2.241  25.153  0.00  0.00    -0.108 OA
BRANCH  21  24
ATOM     24  O   UNL     1       3.292   2.691  22.771  0.00  0.00    -0.222 OA
ATOM     25  H   UNL     1       3.886   1.923  22.638  0.00  0.00    +0.248 HD
ENDBRANCH  21  24
ENDBRANCH  20  21
ENDBRANCH  16  20
ENDBRANCH   5  12
BRANCH   1  27
ATOM     26  C   UNL     1       3.483  -6.388  23.686  0.00  0.00    +0.277 C 
ATOM     27  O   UNL     1       4.044  -5.637  22.610  0.00  0.00    -0.495 OA
ENDBRANCH   1  27
BRANCH  10  28
ATOM     28  O   UNL     1       8.725  -5.561  23.759  0.00  0.00    -0.506 OA
ATOM     29  H   UNL     1       9.419  -5.389  23.103  0.00  0.00    +0.292 HD
ENDBRANCH  10  28
BRANCH   6  30
ATOM     30  O   UNL     1       9.773  -0.419  23.438  0.00  0.00    -0.317 OA
BRANCH  30  31
ATOM     31  S   UNL     1      10.204   0.295  24.849  0.00  0.00    +0.252 S 
ATOM     32  O   UNL     1      11.647   0.408  24.860  0.00  0.00    -0.108 OA
ATOM     33  O   UNL     1       9.512  -0.367  25.937  0.00  0.00    -0.108 OA
BRANCH  31  34
ATOM     34  O   UNL     1       9.618   1.797  24.747  0.00  0.00    -0.222 OA
ATOM     35  H   UNL     1       9.018   1.826  23.955  0.00  0.00    +0.248 HD
ENDBRANCH  31  34
ENDBRANCH  30  31
ENDBRANCH   6  30
TORSDOF 10
ENDMDL
MODEL 6
REMARK VINA RESULT:      -6.8      1.491      2.352
REMARK  Name = 
REMARK  11 active torsions:
REMARK  status: ('A' for Active; 'I' for Inactive)
REMARK    1  A    between atoms: C_1  and  O_2
REMARK    2  A    between atoms: O_2  and  C_3
REMARK    3  A    between atoms: C_5  and  O_31
REMARK    4  A    between atoms: C_10  and  C_19
REMARK    5  A    between atoms: C_11  and  O_14
REMARK    6  A    between atoms: O_14  and  S_15
REMARK    7  A    between atoms: S_15  and  O_18
REMARK    8  A    between atoms: C_21  and  O_26
REMARK    9  A    between atoms: C_22  and  O_25
REMARK   10  A    between atoms: O_26  and  S_27
REMARK   11  A    between atoms: S_27  and  O_30
REMARK                            x       y       z     vdW  Elec       q    Type
REMARK                         _______ _______ _______ _____ _____    ______ ____
ROOT
ATOM      1  C   UNL     1       7.473   1.749  22.086  0.00  0.00    +0.127 A 
ATOM      2  C   UNL     1       6.598   0.890  22.766  0.00  0.00    +0.092 A 
ATOM      3  C   UNL     1       6.983  -0.424  23.068  0.00  0.00    +0.147 A 
ATOM      4  O   UNL     1       6.070  -1.218  23.723  0.00  0.00    -0.451 OA
ATOM      5  C   UNL     1       6.453  -2.497  24.111  0.00  0.00    +0.184 A 
ATOM      6  C   UNL     1       7.651  -3.050  23.847  0.00  0.00    +0.248 A 
ATOM      7  C   UNL     1       8.593  -2.273  22.996  0.00  0.00    +0.241 A 
ATOM      8  O   UNL     1       9.593  -2.815  22.534  0.00  0.00    -0.283 OA
ATOM      9  C   UNL     1       8.242  -0.878  22.689  0.00  0.00    +0.109 A 
ATOM     10  C   UNL     1       9.116  -0.019  22.013  0.00  0.00    +0.135 A 
ATOM     11  C   UNL     1       8.734   1.287  21.710  0.00  0.00    +0.092 A 
ENDROOT
BRANCH   5  12
ATOM     12  C   UNL     1       5.403  -3.204  24.876  0.00  0.00    +0.025 A 
ATOM     13  C   UNL     1       5.206  -2.908  26.233  0.00  0.00    +0.015 A 
ATOM     14  C   UNL     1       4.183  -3.530  26.954  0.00  0.00    +0.050 A 
ATOM     15  C   UNL     1       3.355  -4.445  26.320  0.00  0.00    +0.161 A 
ATOM     16  C   UNL     1       3.535  -4.767  24.973  0.00  0.00    +0.201 A 
ATOM     17  C   UNL     1       4.569  -4.154  24.252  0.00  0.00    +0.064 A 
BRANCH  15  18
ATOM     18  O   UNL     1       2.347  -5.003  27.057  0.00  0.00    -0.503 OA
ATOM     19  H   UNL     1       2.732  -5.719  27.591  0.00  0.00    +0.292 HD
ENDBRANCH  15  18
BRANCH  16  20
ATOM     20  O   UNL     1       2.679  -5.716  24.474  0.00  0.00    -0.321 OA
BRANCH  20  21
ATOM     21  S   UNL     1       2.980  -7.307  24.626  0.00  0.00    +0.251 S 
ATOM     22  O   UNL     1       2.245  -7.830  25.753  0.00  0.00    -0.108 OA
ATOM     23  O   UNL     1       4.403  -7.527  24.460  0.00  0.00    -0.108 OA
BRANCH  21  24
ATOM     24  O   UNL     1       2.313  -7.906  23.285  0.00  0.00    -0.222 OA
ATOM     25  H   UNL     1       3.025  -8.326  22.760  0.00  0.00    +0.248 HD
ENDBRANCH  21  24
ENDBRANCH  20  21
ENDBRANCH  16  20
ENDBRANCH   5  12
BRANCH   1  27
ATOM     26  C   UNL     1       7.579   4.071  22.598  0.00  0.00    +0.277 C 
ATOM     27  O   UNL     1       6.998   3.010  21.840  0.00  0.00    -0.495 OA
ENDBRANCH   1  27
BRANCH  10  28
ATOM     28  O   UNL     1      10.362  -0.437  21.641  0.00  0.00    -0.506 OA
ATOM     29  H   UNL     1      10.522  -1.350  21.931  0.00  0.00    +0.292 HD
ENDBRANCH  10  28
BRANCH   6  30
ATOM     30  O   UNL     1       7.995  -4.329  24.267  0.00  0.00    -0.317 OA
BRANCH  30  31
ATOM     31  S   UNL     1       8.952  -4.606  25.568  0.00  0.00    +0.252 S 
ATOM     32  O   UNL     1       8.804  -3.483  26.467  0.00  0.00    -0.108 OA
ATOM     33  O   UNL     1      10.266  -5.005  25.104  0.00  0.00    -0.108 OA
BRANCH  31  34
ATOM     34  O   UNL     1       8.291  -5.885  26.301  0.00  0.00    -0.222 OA
ATOM     35  H   UNL     1       8.288  -6.631  25.646  0.00  0.00    +0.248 HD
ENDBRANCH  31  34
ENDBRANCH  30  31
ENDBRANCH   6  30
TORSDOF 10
ENDMDL
MODEL 7
REMARK VINA RESULT:      -6.7      2.340      2.995
REMARK  Name = 
REMARK  11 active torsions:
REMARK  status: ('A' for Active; 'I' for Inactive)
REMARK    1  A    between atoms: C_1  and  O_2
REMARK    2  A    between atoms: O_2  and  C_3
REMARK    3  A    between atoms: C_5  and  O_31
REMARK    4  A    between atoms: C_10  and  C_19
REMARK    5  A    between atoms: C_11  and  O_14
REMARK    6  A    between atoms: O_14  and  S_15
REMARK    7  A    between atoms: S_15  and  O_18
REMARK    8  A    between atoms: C_21  and  O_26
REMARK    9  A    between atoms: C_22  and  O_25
REMARK   10  A    between atoms: O_26  and  S_27
REMARK   11  A    between atoms: S_27  and  O_30
REMARK                            x       y       z     vdW  Elec       q    Type
REMARK                         _______ _______ _______ _____ _____    ______ ____
ROOT
ATOM      1  C   UNL     1       8.407   1.671  24.633  0.00  0.00    +0.127 A 
ATOM      2  C   UNL     1       7.547   0.681  25.126  0.00  0.00    +0.092 A 
ATOM      3  C   UNL     1       7.489  -0.579  24.517  0.00  0.00    +0.147 A 
ATOM      4  O   UNL     1       6.611  -1.500  25.042  0.00  0.00    -0.451 OA
ATOM      5  C   UNL     1       6.593  -2.785  24.514  0.00  0.00    +0.184 A 
ATOM      6  C   UNL     1       7.343  -3.195  23.474  0.00  0.00    +0.248 A 
ATOM      7  C   UNL     1       8.177  -2.174  22.784  0.00  0.00    +0.241 A 
ATOM      8  O   UNL     1       8.695  -2.434  21.702  0.00  0.00    -0.283 OA
ATOM      9  C   UNL     1       8.292  -0.850  23.413  0.00  0.00    +0.109 A 
ATOM     10  C   UNL     1       9.153   0.138  22.923  0.00  0.00    +0.135 A 
ATOM     11  C   UNL     1       9.210   1.393  23.526  0.00  0.00    +0.092 A 
ENDROOT
BRANCH   5  12
ATOM     12  C   UNL     1       5.663  -3.687  25.228  0.00  0.00    +0.025 A 
ATOM     13  C   UNL     1       4.279  -3.480  25.137  0.00  0.00    +0.015 A 
ATOM     14  C   UNL     1       3.388  -4.356  25.764  0.00  0.00    +0.050 A 
ATOM     15  C   UNL     1       3.879  -5.439  26.480  0.00  0.00    +0.161 A 
ATOM     16  C   UNL     1       5.253  -5.661  26.597  0.00  0.00    +0.201 A 
ATOM     17  C   UNL     1       6.147  -4.777  25.980  0.00  0.00    +0.064 A 
BRANCH  15  18
ATOM     18  O   UNL     1       2.968  -6.286  27.048  0.00  0.00    -0.503 OA
ATOM     19  H   UNL     1       2.528  -6.772  26.329  0.00  0.00    +0.292 HD
ENDBRANCH  15  18
BRANCH  16  20
ATOM     20  O   UNL     1       5.611  -6.740  27.365  0.00  0.00    -0.321 OA
BRANCH  20  21
ATOM     21  S   UNL     1       5.859  -6.607  28.967  0.00  0.00    +0.251 S 
ATOM     22  O   UNL     1       5.977  -5.212  29.321  0.00  0.00    -0.108 OA
ATOM     23  O   UNL     1       6.842  -7.593  29.367  0.00  0.00    -0.108 OA
BRANCH  21  24
ATOM     24  O   UNL     1       4.465  -7.150  29.571  0.00  0.00    -0.222 OA
ATOM     25  H   UNL     1       4.116  -6.465  30.177  0.00  0.00    +0.248 HD
ENDBRANCH  21  24
ENDBRANCH  20  21
ENDBRANCH  16  20
ENDBRANCH   5  12
BRANCH   1  27
ATOM     26  C   UNL     1       8.793   4.019  24.561  0.00  0.00    +0.277 C 
ATOM     27  O   UNL     1       8.385   2.867  25.300  0.00  0.00    -0.495 OA
ENDBRANCH   1  27
BRANCH  10  28
ATOM     28  O   UNL     1       9.960  -0.106  21.848  0.00  0.00    -0.506 OA
ATOM     29  H   UNL     1      10.220  -1.041  21.816  0.00  0.00    +0.292 HD
ENDBRANCH  10  28
BRANCH   6  30
ATOM     30  O   UNL     1       7.301  -4.496  22.988  0.00  0.00    -0.317 OA
BRANCH  30  31
ATOM     31  S   UNL     1       6.182  -4.998  21.900  0.00  0.00    +0.252 S 
ATOM     32  O   UNL     1       6.862  -5.816  20.920  0.00  0.00    -0.108 OA
ATOM     33  O   UNL     1       5.392  -3.857  21.483  0.00  0.00    -0.108 OA
BRANCH  31  34
ATOM     34  O   UNL     1       5.207  -5.980  22.735  0.00  0.00    -0.222 OA
ATOM     35  H   UNL     1       4.675  -6.497  22.075  0.00  0.00    +0.248 HD
ENDBRANCH  31  34
ENDBRANCH  30  31
ENDBRANCH   6  30
TORSDOF 10
ENDMDL
MODEL 8
REMARK VINA RESULT:      -6.7      1.675      1.975
REMARK  Name = 
REMARK  11 active torsions:
REMARK  status: ('A' for Active; 'I' for Inactive)
REMARK    1  A    between atoms: C_1  and  O_2
REMARK    2  A    between atoms: O_2  and  C_3
REMARK    3  A    between atoms: C_5  and  O_31
REMARK    4  A    between atoms: C_10  and  C_19
REMARK    5  A    between atoms: C_11  and  O_14
REMARK    6  A    between atoms: O_14  and  S_15
REMARK    7  A    between atoms: S_15  and  O_18
REMARK    8  A    between atoms: C_21  and  O_26
REMARK    9  A    between atoms: C_22  and  O_25
REMARK   10  A    between atoms: O_26  and  S_27
REMARK   11  A    between atoms: S_27  and  O_30
REMARK                            x       y       z     vdW  Elec       q    Type
REMARK                         _______ _______ _______ _____ _____    ______ ____
ROOT
ATOM      1  C   UNL     1       7.913   2.228  24.428  0.00  0.00    +0.127 A 
ATOM      2  C   UNL     1       6.958   1.240  24.706  0.00  0.00    +0.092 A 
ATOM      3  C   UNL     1       7.291  -0.117  24.610  0.00  0.00    +0.147 A 
ATOM      4  O   UNL     1       6.302  -1.035  24.881  0.00  0.00    -0.451 OA
ATOM      5  C   UNL     1       6.623  -2.387  24.878  0.00  0.00    +0.184 A 
ATOM      6  C   UNL     1       7.837  -2.883  24.574  0.00  0.00    +0.248 A 
ATOM      7  C   UNL     1       8.877  -1.922  24.116  0.00  0.00    +0.241 A 
ATOM      8  O   UNL     1       9.916  -2.338  23.610  0.00  0.00    -0.283 OA
ATOM      9  C   UNL     1       8.579  -0.488  24.236  0.00  0.00    +0.109 A 
ATOM     10  C   UNL     1       9.533   0.499  23.962  0.00  0.00    +0.135 A 
ATOM     11  C   UNL     1       9.203   1.850  24.055  0.00  0.00    +0.092 A 
ENDROOT
BRANCH   5  12
ATOM     12  C   UNL     1       5.486  -3.249  25.266  0.00  0.00    +0.025 A 
ATOM     13  C   UNL     1       4.524  -3.609  24.311  0.00  0.00    +0.015 A 
ATOM     14  C   UNL     1       3.472  -4.466  24.652  0.00  0.00    +0.050 A 
ATOM     15  C   UNL     1       3.384  -4.965  25.944  0.00  0.00    +0.161 A 
ATOM     16  C   UNL     1       4.323  -4.613  26.917  0.00  0.00    +0.201 A 
ATOM     17  C   UNL     1       5.369  -3.744  26.581  0.00  0.00    +0.064 A 
BRANCH  15  18
ATOM     18  O   UNL     1       2.358  -5.825  26.221  0.00  0.00    -0.503 OA
ATOM     19  H   UNL     1       2.658  -6.724  25.999  0.00  0.00    +0.292 HD
ENDBRANCH  15  18
BRANCH  16  20
ATOM     20  O   UNL     1       4.101  -5.138  28.165  0.00  0.00    -0.321 OA
BRANCH  20  21
ATOM     21  S   UNL     1       5.035  -6.320  28.776  0.00  0.00    +0.251 S 
ATOM     22  O   UNL     1       4.255  -7.129  29.682  0.00  0.00    -0.108 OA
ATOM     23  O   UNL     1       6.315  -5.753  29.151  0.00  0.00    -0.108 OA
BRANCH  21  24
ATOM     24  O   UNL     1       5.349  -7.212  27.470  0.00  0.00    -0.222 OA
ATOM     25  H   UNL     1       4.807  -8.026  27.526  0.00  0.00    +0.248 HD
ENDBRANCH  21  24
ENDBRANCH  20  21
ENDBRANCH  16  20
ENDBRANCH   5  12
BRANCH   1  27
ATOM     26  C   UNL     1       8.181   4.342  25.488  0.00  0.00    +0.277 C 
ATOM     27  O   UNL     1       7.484   3.523  24.550  0.00  0.00    -0.495 OA
ENDBRANCH   1  27
BRANCH  10  28
ATOM     28  O   UNL     1      10.808   0.162  23.605  0.00  0.00    -0.506 OA
ATOM     29  H   UNL     1      11.248  -0.330  24.317  0.00  0.00    +0.292 HD
ENDBRANCH  10  28
BRANCH   6  30
ATOM     30  O   UNL     1       8.116  -4.244  24.597  0.00  0.00    -0.317 OA
BRANCH  30  31
ATOM     31  S   UNL     1       8.749  -4.997  25.908  0.00  0.00    +0.252 S 
ATOM     32  O   UNL     1       7.861  -6.084  26.260  0.00  0.00    -0.108 OA
ATOM     33  O   UNL     1       9.108  -3.996  26.893  0.00  0.00    -0.108 OA
BRANCH  31  34
ATOM     34  O   UNL     1      10.121  -5.666  25.378  0.00  0.00    -0.222 OA
ATOM     35  H   UNL     1      10.556  -6.102  26.157  0.00  0.00    +0.248 HD
ENDBRANCH  31  34
ENDBRANCH  30  31
ENDBRANCH   6  30
TORSDOF 10
ENDMDL
MODEL 9
REMARK VINA RESULT:      -6.7      3.319      8.243
REMARK  Name = 
REMARK  11 active torsions:
REMARK  status: ('A' for Active; 'I' for Inactive)
REMARK    1  A    between atoms: C_1  and  O_2
REMARK    2  A    between atoms: O_2  and  C_3
REMARK    3  A    between atoms: C_5  and  O_31
REMARK    4  A    between atoms: C_10  and  C_19
REMARK    5  A    between atoms: C_11  and  O_14
REMARK    6  A    between atoms: O_14  and  S_15
REMARK    7  A    between atoms: S_15  and  O_18
REMARK    8  A    between atoms: C_21  and  O_26
REMARK    9  A    between atoms: C_22  and  O_25
REMARK   10  A    between atoms: O_26  and  S_27
REMARK   11  A    between atoms: S_27  and  O_30
REMARK                            x       y       z     vdW  Elec       q    Type
REMARK                         _______ _______ _______ _____ _____    ______ ____
ROOT
ATOM      1  C   UNL     1       6.959  -5.350  22.912  0.00  0.00    +0.127 A 
ATOM      2  C   UNL     1       7.542  -4.087  22.736  0.00  0.00    +0.092 A 
ATOM      3  C   UNL     1       7.557  -3.158  23.785  0.00  0.00    +0.147 A 
ATOM      4  O   UNL     1       8.132  -1.932  23.541  0.00  0.00    -0.451 OA
ATOM      5  C   UNL     1       8.238  -1.022  24.586  0.00  0.00    +0.184 A 
ATOM      6  C   UNL     1       7.768  -1.229  25.830  0.00  0.00    +0.248 A 
ATOM      7  C   UNL     1       6.996  -2.478  26.075  0.00  0.00    +0.241 A 
ATOM      8  O   UNL     1       6.354  -2.608  27.112  0.00  0.00    -0.283 OA
ATOM      9  C   UNL     1       6.989  -3.492  25.011  0.00  0.00    +0.109 A 
ATOM     10  C   UNL     1       6.409  -4.754  25.186  0.00  0.00    +0.135 A 
ATOM     11  C   UNL     1       6.391  -5.678  24.143  0.00  0.00    +0.092 A 
ENDROOT
BRANCH   5  12
ATOM     12  C   UNL     1       8.949   0.216  24.199  0.00  0.00    +0.025 A 
ATOM     13  C   UNL     1      10.306   0.371  24.515  0.00  0.00    +0.015 A 
ATOM     14  C   UNL     1      11.004   1.513  24.110  0.00  0.00    +0.050 A 
ATOM     15  C   UNL     1      10.345   2.499  23.387  0.00  0.00    +0.161 A 
ATOM     16  C   UNL     1       8.991   2.375  23.070  0.00  0.00    +0.201 A 
ATOM     17  C   UNL     1       8.288   1.237  23.487  0.00  0.00    +0.064 A 
BRANCH  15  18
ATOM     18  O   UNL     1      11.077   3.581  22.984  0.00  0.00    -0.503 OA
ATOM     19  H   UNL     1      10.536   4.086  22.353  0.00  0.00    +0.292 HD
ENDBRANCH  15  18
BRANCH  16  20
ATOM     20  O   UNL     1       8.447   3.435  22.390  0.00  0.00    -0.321 OA
BRANCH  20  21
ATOM     21  S   UNL     1       7.866   4.743  23.163  0.00  0.00    +0.251 S 
ATOM     22  O   UNL     1       7.744   4.452  24.572  0.00  0.00    -0.108 OA
ATOM     23  O   UNL     1       6.772   5.292  22.387  0.00  0.00    -0.108 OA
BRANCH  21  24
ATOM     24  O   UNL     1       9.068   5.803  22.984  0.00  0.00    -0.222 OA
ATOM     25  H   UNL     1       8.684   6.635  22.638  0.00  0.00    +0.248 HD
ENDBRANCH  21  24
ENDBRANCH  20  21
ENDBRANCH  16  20
ENDBRANCH   5  12
BRANCH   1  27
ATOM     26  C   UNL     1       6.076  -5.894  20.770  0.00  0.00    +0.277 C 
ATOM     27  O   UNL     1       6.996  -6.180  21.823  0.00  0.00    -0.495 OA
ENDBRANCH   1  27
BRANCH  10  28
ATOM     28  O   UNL     1       5.855  -5.111  26.383  0.00  0.00    -0.506 OA
ATOM     29  H   UNL     1       5.490  -6.009  26.341  0.00  0.00    +0.292 HD
ENDBRANCH  10  28
BRANCH   6  30
ATOM     30  O   UNL     1       7.910  -0.294  26.848  0.00  0.00    -0.317 OA
BRANCH  30  31
ATOM     31  S   UNL     1       6.806   0.886  27.126  0.00  0.00    +0.252 S 
ATOM     32  O   UNL     1       6.553   0.921  28.550  0.00  0.00    -0.108 OA
ATOM     33  O   UNL     1       5.711   0.730  26.190  0.00  0.00    -0.108 OA
BRANCH  31  34
ATOM     34  O   UNL     1       7.568   2.260  26.751  0.00  0.00    -0.222 OA
ATOM     35  H   UNL     1       7.596   2.321  25.760  0.00  0.00    +0.248 HD
ENDBRANCH  31  34
ENDBRANCH  30  31
ENDBRANCH   6  30
TORSDOF 10
ENDMDL
