MODEL 1
REMARK VINA RESULT:      -7.6      0.000      0.000
REMARK  Name = 
REMARK  17 active torsions:
REMARK  status: ('A' for Active; 'I' for Inactive)
REMARK    1  A    between atoms: C_3  and  O_22
REMARK    2  A    between atoms: C_4  and  O_21
REMARK    3  A    between atoms: C_6  and  C_7
REMARK    4  A    between atoms: C_8  and  O_20
REMARK    5  A    between atoms: C_12  and  O_19
REMARK    6  A    between atoms: C_14  and  O_18
REMARK    7  A    between atoms: O_22  and  C_23
REMARK    8  A    between atoms: C_25  and  O_46
REMARK    9  A    between atoms: C_26  and  O_45
REMARK   10  A    between atoms: C_27  and  O_44
REMARK   11  A    between atoms: C_29  and  C_31
REMARK   12  A    between atoms: C_31  and  O_32
REMARK   13  A    between atoms: O_32  and  C_33
REMARK   14  A    between atoms: C_33  and  C_35
REMARK   15  A    between atoms: C_37  and  O_43
REMARK   16  A    between atoms: C_38  and  O_42
REMARK   17  A    between atoms: C_39  and  O_41
REMARK                            x       y       z     vdW  Elec       q    Type
REMARK                         _______ _______ _______ _____ _____    ______ ____
ROOT
ATOM      1  C   UNL     1       7.344   2.501  25.247  0.00  0.00    +0.339 C 
ATOM      2  O   UNL     1       8.353   1.884  24.445  0.00  0.00    -0.330 OA
ATOM      3  C   UNL     1       9.647   2.500  24.462  0.00  0.00    +0.191 C 
ATOM      4  C   UNL     1       9.517   3.918  23.909  0.00  0.00    +0.178 C 
ATOM      5  C   UNL     1       8.660   4.732  24.878  0.00  0.00    +0.180 C 
ATOM      6  C   UNL     1       7.311   4.051  25.157  0.00  0.00    +0.214 C 
ENDROOT
BRANCH   6   7
ATOM      7  O   UNL     1       6.588   4.680  26.218  0.00  0.00    -0.383 OA
ATOM      8  H   UNL     1       5.637   4.526  26.081  0.00  0.00    +0.210 HD
ENDBRANCH   6   7
BRANCH   5   9
ATOM      9  O   UNL     1       8.465   6.044  24.314  0.00  0.00    -0.386 OA
ATOM     10  H   UNL     1       8.371   6.682  25.045  0.00  0.00    +0.210 HD
ENDBRANCH   5   9
BRANCH   4  11
ATOM     11  O   UNL     1       8.882   3.883  22.620  0.00  0.00    -0.386 OA
ATOM     12  H   UNL     1       7.939   3.691  22.778  0.00  0.00    +0.210 HD
ENDBRANCH   4  11
BRANCH   3  13
ATOM     13  C   UNL     1      10.568   1.651  23.572  0.00  0.00    +0.266 C 
BRANCH  13  14
ATOM     14  O   UNL     1      10.284   0.247  23.749  0.00  0.00    -0.458 OA
BRANCH  14  15
ATOM     15  C   UNL     1       9.805  -0.392  22.654  0.00  0.00    +0.340 C 
ATOM     16  O   UNL     1       9.856   0.021  21.507  0.00  0.00    -0.245 OA
BRANCH  15  17
ATOM     17  C   UNL     1       9.203  -1.691  23.047  0.00  0.00    +0.066 A 
ATOM     18  C   UNL     1       7.936  -2.015  22.538  0.00  0.00    +0.064 A 
ATOM     19  C   UNL     1       7.376  -3.246  22.845  0.00  0.00    +0.163 A 
ATOM     20  C   UNL     1       8.059  -4.152  23.647  0.00  0.00    +0.201 A 
ATOM     21  C   UNL     1       9.312  -3.832  24.158  0.00  0.00    +0.163 A 
ATOM     22  C   UNL     1       9.895  -2.603  23.865  0.00  0.00    +0.064 A 
BRANCH  21  23
ATOM     23  O   UNL     1       9.942  -4.766  24.933  0.00  0.00    -0.503 OA
ATOM     24  H   UNL     1       9.482  -4.820  25.790  0.00  0.00    +0.292 HD
ENDBRANCH  21  23
BRANCH  20  25
ATOM     25  O   UNL     1       7.487  -5.366  23.913  0.00  0.00    -0.501 OA
ATOM     26  H   UNL     1       7.089  -5.639  23.060  0.00  0.00    +0.292 HD
ENDBRANCH  20  25
BRANCH  19  27
ATOM     27  O   UNL     1       6.150  -3.570  22.339  0.00  0.00    -0.503 OA
ATOM     28  H   UNL     1       6.321  -4.314  21.727  0.00  0.00    +0.292 HD
ENDBRANCH  19  27
ENDBRANCH  15  17
ENDBRANCH  14  15
ENDBRANCH  13  14
ENDBRANCH   3  13
BRANCH   1  29
ATOM     29  O   UNL     1       7.259   1.871  26.551  0.00  0.00    -0.457 OA
BRANCH  29  34
ATOM     30  C   UNL     1       5.059  -1.142  26.320  0.00  0.00    +0.015 A 
ATOM     31  C   UNL     1       5.981  -2.194  26.302  0.00  0.00    +0.025 A 
ATOM     32  C   UNL     1       7.338  -1.850  26.387  0.00  0.00    +0.060 A 
ATOM     33  C   UNL     1       7.739  -0.499  26.487  0.00  0.00    +0.159 A 
ATOM     34  C   UNL     1       6.813   0.548  26.473  0.00  0.00    +0.165 A 
ATOM     35  C   UNL     1       5.466   0.185  26.376  0.00  0.00    +0.050 A 
BRANCH  31  36
ATOM     36  C   UNL     1       5.428  -3.562  26.099  0.00  0.00    +0.181 A 
ATOM     37  O   UNL     1       4.562  -3.593  25.003  0.00  0.00    -0.451 OA
ATOM     38  C   UNL     1       3.865  -4.734  24.717  0.00  0.00    +0.147 A 
ATOM     39  C   UNL     1       4.095  -5.929  25.381  0.00  0.00    +0.109 A 
ATOM     40  C   UNL     1       3.381  -7.075  25.013  0.00  0.00    +0.135 A 
ATOM     41  C   UNL     1       2.432  -7.021  23.994  0.00  0.00    +0.091 A 
ATOM     42  C   UNL     1       2.199  -5.812  23.349  0.00  0.00    +0.124 A 
ATOM     43  C   UNL     1       5.075  -5.938  26.472  0.00  0.00    +0.238 A 
ATOM     44  O   UNL     1       5.322  -6.999  27.049  0.00  0.00    -0.283 OA
ATOM     45  C   UNL     1       2.909  -4.666  23.700  0.00  0.00    +0.092 A 
ATOM     46  C   UNL     1       5.696  -4.640  26.859  0.00  0.00    +0.208 A 
BRANCH  46  47
ATOM     47  O   UNL     1       6.475  -4.639  28.000  0.00  0.00    -0.501 OA
ATOM     48  H   UNL     1       7.031  -3.842  28.002  0.00  0.00    +0.292 HD
ENDBRANCH  46  47
BRANCH  42  49
ATOM     49  O   UNL     1       1.275  -5.709  22.351  0.00  0.00    -0.507 OA
ATOM     50  H   UNL     1       1.205  -4.776  22.082  0.00  0.00    +0.292 HD
ENDBRANCH  42  49
BRANCH  40  51
ATOM     51  O   UNL     1       3.563  -8.289  25.618  0.00  0.00    -0.506 OA
ATOM     52  H   UNL     1       2.712  -8.548  26.042  0.00  0.00    +0.292 HD
ENDBRANCH  40  51
ENDBRANCH  31  36
BRANCH  33  53
ATOM     53  O   UNL     1       9.083  -0.263  26.585  0.00  0.00    -0.503 OA
ATOM     54  H   UNL     1       9.485  -0.646  25.784  0.00  0.00    +0.292 HD
ENDBRANCH  33  53
ENDBRANCH  29  34
ENDBRANCH   1  29
TORSDOF 17
ENDMDL
MODEL 2
REMARK VINA RESULT:      -7.3      1.748      8.263
REMARK  Name = 
REMARK  17 active torsions:
REMARK  status: ('A' for Active; 'I' for Inactive)
REMARK    1  A    between atoms: C_3  and  O_22
REMARK    2  A    between atoms: C_4  and  O_21
REMARK    3  A    between atoms: C_6  and  C_7
REMARK    4  A    between atoms: C_8  and  O_20
REMARK    5  A    between atoms: C_12  and  O_19
REMARK    6  A    between atoms: C_14  and  O_18
REMARK    7  A    between atoms: O_22  and  C_23
REMARK    8  A    between atoms: C_25  and  O_46
REMARK    9  A    between atoms: C_26  and  O_45
REMARK   10  A    between atoms: C_27  and  O_44
REMARK   11  A    between atoms: C_29  and  C_31
REMARK   12  A    between atoms: C_31  and  O_32
REMARK   13  A    between atoms: O_32  and  C_33
REMARK   14  A    between atoms: C_33  and  C_35
REMARK   15  A    between atoms: C_37  and  O_43
REMARK   16  A    between atoms: C_38  and  O_42
REMARK   17  A    between atoms: C_39  and  O_41
REMARK                            x       y       z     vdW  Elec       q    Type
REMARK                         _______ _______ _______ _____ _____    ______ ____
ROOT
ATOM      1  C   UNL     1       4.456  -5.813  26.530  0.00  0.00    +0.339 C 
ATOM      2  O   UNL     1       4.323  -5.477  25.147  0.00  0.00    -0.330 OA
ATOM      3  C   UNL     1       3.001  -5.551  24.598  0.00  0.00    +0.191 C 
ATOM      4  C   UNL     1       2.512  -6.994  24.701  0.00  0.00    +0.178 C 
ATOM      5  C   UNL     1       2.362  -7.343  26.181  0.00  0.00    +0.180 C 
ATOM      6  C   UNL     1       3.655  -7.071  26.965  0.00  0.00    +0.214 C 
ENDROOT
BRANCH   6   7
ATOM      7  O   UNL     1       3.475  -7.185  28.378  0.00  0.00    -0.383 OA
ATOM      8  H   UNL     1       3.693  -6.332  28.791  0.00  0.00    +0.210 HD
ENDBRANCH   6   7
BRANCH   5   9
ATOM      9  O   UNL     1       1.986  -8.731  26.280  0.00  0.00    -0.386 OA
ATOM     10  H   UNL     1       1.213  -8.798  26.873  0.00  0.00    +0.210 HD
ENDBRANCH   5   9
BRANCH   4  11
ATOM     11  O   UNL     1       3.469  -7.878  24.094  0.00  0.00    -0.386 OA
ATOM     12  H   UNL     1       3.008  -8.723  23.935  0.00  0.00    +0.210 HD
ENDBRANCH   4  11
BRANCH   3  13
ATOM     13  C   UNL     1       3.094  -5.111  23.127  0.00  0.00    +0.266 C 
BRANCH  13  14
ATOM     14  O   UNL     1       4.271  -4.303  22.918  0.00  0.00    -0.458 OA
BRANCH  14  15
ATOM     15  C   UNL     1       5.311  -4.934  22.321  0.00  0.00    +0.340 C 
ATOM     16  O   UNL     1       5.228  -5.891  21.568  0.00  0.00    -0.245 OA
BRANCH  15  17
ATOM     17  C   UNL     1       6.589  -4.287  22.709  0.00  0.00    +0.066 A 
ATOM     18  C   UNL     1       7.427  -4.962  23.608  0.00  0.00    +0.064 A 
ATOM     19  C   UNL     1       8.652  -4.405  23.944  0.00  0.00    +0.163 A 
ATOM     20  C   UNL     1       9.050  -3.192  23.396  0.00  0.00    +0.201 A 
ATOM     21  C   UNL     1       8.219  -2.516  22.510  0.00  0.00    +0.163 A 
ATOM     22  C   UNL     1       6.985  -3.054  22.158  0.00  0.00    +0.064 A 
BRANCH  21  23
ATOM     23  O   UNL     1       8.665  -1.330  21.996  0.00  0.00    -0.503 OA
ATOM     24  H   UNL     1       9.457  -1.504  21.457  0.00  0.00    +0.292 HD
ENDBRANCH  21  23
BRANCH  20  25
ATOM     25  O   UNL     1      10.273  -2.680  23.733  0.00  0.00    -0.501 OA
ATOM     26  H   UNL     1      10.164  -1.711  23.643  0.00  0.00    +0.292 HD
ENDBRANCH  20  25
BRANCH  19  27
ATOM     27  O   UNL     1       9.477  -5.068  24.808  0.00  0.00    -0.503 OA
ATOM     28  H   UNL     1       9.552  -5.971  24.438  0.00  0.00    +0.292 HD
ENDBRANCH  19  27
ENDBRANCH  15  17
ENDBRANCH  14  15
ENDBRANCH  13  14
ENDBRANCH   3  13
BRANCH   1  29
ATOM     29  O   UNL     1       4.403  -4.625  27.361  0.00  0.00    -0.457 OA
BRANCH  29  34
ATOM     30  C   UNL     1       5.131  -1.463  25.503  0.00  0.00    +0.015 A 
ATOM     31  C   UNL     1       6.519  -1.344  25.635  0.00  0.00    +0.025 A 
ATOM     32  C   UNL     1       7.179  -2.359  26.343  0.00  0.00    +0.060 A 
ATOM     33  C   UNL     1       6.461  -3.446  26.891  0.00  0.00    +0.159 A 
ATOM     34  C   UNL     1       5.071  -3.542  26.782  0.00  0.00    +0.165 A 
ATOM     35  C   UNL     1       4.430  -2.514  26.083  0.00  0.00    +0.050 A 
BRANCH  31  36
ATOM     36  C   UNL     1       7.135  -0.103  25.090  0.00  0.00    +0.181 A 
ATOM     37  O   UNL     1       6.164   0.738  24.539  0.00  0.00    -0.451 OA
ATOM     38  C   UNL     1       6.540   1.879  23.889  0.00  0.00    +0.147 A 
ATOM     39  C   UNL     1       7.851   2.331  23.882  0.00  0.00    +0.109 A 
ATOM     40  C   UNL     1       8.167   3.532  23.236  0.00  0.00    +0.135 A 
ATOM     41  C   UNL     1       7.177   4.269  22.588  0.00  0.00    +0.091 A 
ATOM     42  C   UNL     1       5.871   3.795  22.588  0.00  0.00    +0.124 A 
ATOM     43  C   UNL     1       8.870   1.510  24.541  0.00  0.00    +0.238 A 
ATOM     44  O   UNL     1      10.035   1.912  24.580  0.00  0.00    -0.283 OA
ATOM     45  C   UNL     1       5.541   2.606  23.234  0.00  0.00    +0.092 A 
ATOM     46  C   UNL     1       8.448   0.194  25.101  0.00  0.00    +0.208 A 
BRANCH  46  47
ATOM     47  O   UNL     1       9.452  -0.640  25.554  0.00  0.00    -0.501 OA
ATOM     48  H   UNL     1       9.321  -0.803  26.503  0.00  0.00    +0.292 HD
ENDBRANCH  46  47
BRANCH  42  49
ATOM     49  O   UNL     1       4.870   4.479  21.962  0.00  0.00    -0.507 OA
ATOM     50  H   UNL     1       4.907   5.412  22.236  0.00  0.00    +0.292 HD
ENDBRANCH  42  49
BRANCH  40  51
ATOM     51  O   UNL     1       9.437   4.041  23.196  0.00  0.00    -0.506 OA
ATOM     52  H   UNL     1       9.794   3.899  22.289  0.00  0.00    +0.292 HD
ENDBRANCH  40  51
ENDBRANCH  31  36
BRANCH  33  53
ATOM     53  O   UNL     1       7.195  -4.396  27.547  0.00  0.00    -0.503 OA
ATOM     54  H   UNL     1       7.192  -4.140  28.487  0.00  0.00    +0.292 HD
ENDBRANCH  33  53
ENDBRANCH  29  34
ENDBRANCH   1  29
TORSDOF 17
ENDMDL
MODEL 3
REMARK VINA RESULT:      -7.2      2.090      8.452
REMARK  Name = 
REMARK  17 active torsions:
REMARK  status: ('A' for Active; 'I' for Inactive)
REMARK    1  A    between atoms: C_3  and  O_22
REMARK    2  A    between atoms: C_4  and  O_21
REMARK    3  A    between atoms: C_6  and  C_7
REMARK    4  A    between atoms: C_8  and  O_20
REMARK    5  A    between atoms: C_12  and  O_19
REMARK    6  A    between atoms: C_14  and  O_18
REMARK    7  A    between atoms: O_22  and  C_23
REMARK    8  A    between atoms: C_25  and  O_46
REMARK    9  A    between atoms: C_26  and  O_45
REMARK   10  A    between atoms: C_27  and  O_44
REMARK   11  A    between atoms: C_29  and  C_31
REMARK   12  A    between atoms: C_31  and  O_32
REMARK   13  A    between atoms: O_32  and  C_33
REMARK   14  A    between atoms: C_33  and  C_35
REMARK   15  A    between atoms: C_37  and  O_43
REMARK   16  A    between atoms: C_38  and  O_42
REMARK   17  A    between atoms: C_39  and  O_41
REMARK                            x       y       z     vdW  Elec       q    Type
REMARK                         _______ _______ _______ _____ _____    ______ ____
ROOT
ATOM      1  C   UNL     1       4.825  -3.666  26.891  0.00  0.00    +0.339 C 
ATOM      2  O   UNL     1       6.239  -3.503  27.022  0.00  0.00    -0.330 OA
ATOM      3  C   UNL     1       7.055  -4.546  26.473  0.00  0.00    +0.191 C 
ATOM      4  C   UNL     1       6.739  -5.848  27.207  0.00  0.00    +0.178 C 
ATOM      5  C   UNL     1       5.298  -6.240  26.885  0.00  0.00    +0.180 C 
ATOM      6  C   UNL     1       4.314  -5.101  27.194  0.00  0.00    +0.214 C 
ENDROOT
BRANCH   6   7
ATOM      7  O   UNL     1       2.997  -5.365  26.704  0.00  0.00    -0.383 OA
ATOM      8  H   UNL     1       2.726  -6.251  26.998  0.00  0.00    +0.210 HD
ENDBRANCH   6   7
BRANCH   5   9
ATOM      9  O   UNL     1       4.971  -7.420  27.645  0.00  0.00    -0.386 OA
ATOM     10  H   UNL     1       4.876  -7.165  28.582  0.00  0.00    +0.210 HD
ENDBRANCH   5   9
BRANCH   4  11
ATOM     11  O   UNL     1       6.879  -5.656  28.624  0.00  0.00    -0.386 OA
ATOM     12  H   UNL     1       7.668  -5.098  28.754  0.00  0.00    +0.210 HD
ENDBRANCH   4  11
BRANCH   3  13
ATOM     13  C   UNL     1       8.521  -4.140  26.691  0.00  0.00    +0.266 C 
BRANCH  13  14
ATOM     14  O   UNL     1       8.820  -2.927  25.969  0.00  0.00    -0.458 OA
BRANCH  14  15
ATOM     15  C   UNL     1       9.476  -3.095  24.795  0.00  0.00    +0.340 C 
ATOM     16  O   UNL     1       9.895  -4.155  24.358  0.00  0.00    -0.245 OA
BRANCH  15  17
ATOM     17  C   UNL     1       9.612  -1.793  24.098  0.00  0.00    +0.066 A 
ATOM     18  C   UNL     1       9.501  -1.776  22.699  0.00  0.00    +0.064 A 
ATOM     19  C   UNL     1       9.568  -0.564  22.027  0.00  0.00    +0.163 A 
ATOM     20  C   UNL     1       9.743   0.623  22.729  0.00  0.00    +0.201 A 
ATOM     21  C   UNL     1       9.861   0.609  24.114  0.00  0.00    +0.163 A 
ATOM     22  C   UNL     1       9.797  -0.594  24.811  0.00  0.00    +0.064 A 
BRANCH  21  23
ATOM     23  O   UNL     1      10.022   1.807  24.752  0.00  0.00    -0.503 OA
ATOM     24  H   UNL     1       9.210   2.005  25.251  0.00  0.00    +0.292 HD
ENDBRANCH  21  23
BRANCH  20  25
ATOM     25  O   UNL     1       9.785   1.802  22.037  0.00  0.00    -0.501 OA
ATOM     26  H   UNL     1       9.821   2.491  22.733  0.00  0.00    +0.292 HD
ENDBRANCH  20  25
BRANCH  19  27
ATOM     27  O   UNL     1       9.445  -0.542  20.668  0.00  0.00    -0.503 OA
ATOM     28  H   UNL     1       9.243  -1.467  20.421  0.00  0.00    +0.292 HD
ENDBRANCH  19  27
ENDBRANCH  15  17
ENDBRANCH  14  15
ENDBRANCH  13  14
ENDBRANCH   3  13
BRANCH   1  29
ATOM     29  O   UNL     1       4.330  -2.979  25.714  0.00  0.00    -0.457 OA
BRANCH  29  34
ATOM     30  C   UNL     1       5.014   0.645  26.326  0.00  0.00    +0.015 A 
ATOM     31  C   UNL     1       5.938   0.956  25.322  0.00  0.00    +0.025 A 
ATOM     32  C   UNL     1       6.294  -0.079  24.445  0.00  0.00    +0.060 A 
ATOM     33  C   UNL     1       5.736  -1.369  24.581  0.00  0.00    +0.159 A 
ATOM     34  C   UNL     1       4.838  -1.681  25.605  0.00  0.00    +0.165 A 
ATOM     35  C   UNL     1       4.505  -0.638  26.477  0.00  0.00    +0.050 A 
BRANCH  31  36
ATOM     36  C   UNL     1       6.516   2.328  25.351  0.00  0.00    +0.181 A 
ATOM     37  O   UNL     1       6.398   2.947  24.103  0.00  0.00    -0.451 OA
ATOM     38  C   UNL     1       6.967   4.171  23.893  0.00  0.00    +0.147 A 
ATOM     39  C   UNL     1       7.536   4.911  24.920  0.00  0.00    +0.109 A 
ATOM     40  C   UNL     1       8.063   6.179  24.650  0.00  0.00    +0.135 A 
ATOM     41  C   UNL     1       8.035   6.697  23.357  0.00  0.00    +0.091 A 
ATOM     42  C   UNL     1       7.478   5.938  22.334  0.00  0.00    +0.124 A 
ATOM     43  C   UNL     1       7.581   4.317  26.259  0.00  0.00    +0.238 A 
ATOM     44  O   UNL     1       8.046   4.973  27.192  0.00  0.00    -0.283 OA
ATOM     45  C   UNL     1       6.942   4.678  22.591  0.00  0.00    +0.092 A 
ATOM     46  C   UNL     1       7.094   2.917  26.415  0.00  0.00    +0.208 A 
BRANCH  46  47
ATOM     47  O   UNL     1       7.311   2.316  27.640  0.00  0.00    -0.501 OA
ATOM     48  H   UNL     1       6.496   1.868  27.920  0.00  0.00    +0.292 HD
ENDBRANCH  46  47
BRANCH  42  49
ATOM     49  O   UNL     1       7.434   6.400  21.052  0.00  0.00    -0.507 OA
ATOM     50  H   UNL     1       8.216   6.075  20.573  0.00  0.00    +0.292 HD
ENDBRANCH  42  49
BRANCH  40  51
ATOM     51  O   UNL     1       8.631   6.967  25.614  0.00  0.00    -0.506 OA
ATOM     52  H   UNL     1       7.908   7.331  26.175  0.00  0.00    +0.292 HD
ENDBRANCH  40  51
ENDBRANCH  31  36
BRANCH  33  53
ATOM     53  O   UNL     1       6.130  -2.307  23.666  0.00  0.00    -0.503 OA
ATOM     54  H   UNL     1       5.964  -1.918  22.789  0.00  0.00    +0.292 HD
ENDBRANCH  33  53
ENDBRANCH  29  34
ENDBRANCH   1  29
TORSDOF 17
ENDMDL
MODEL 4
REMARK VINA RESULT:      -7.2      1.983      9.457
REMARK  Name = 
REMARK  17 active torsions:
REMARK  status: ('A' for Active; 'I' for Inactive)
REMARK    1  A    between atoms: C_3  and  O_22
REMARK    2  A    between atoms: C_4  and  O_21
REMARK    3  A    between atoms: C_6  and  C_7
REMARK    4  A    between atoms: C_8  and  O_20
REMARK    5  A    between atoms: C_12  and  O_19
REMARK    6  A    between atoms: C_14  and  O_18
REMARK    7  A    between atoms: O_22  and  C_23
REMARK    8  A    between atoms: C_25  and  O_46
REMARK    9  A    between atoms: C_26  and  O_45
REMARK   10  A    between atoms: C_27  and  O_44
REMARK   11  A    between atoms: C_29  and  C_31
REMARK   12  A    between atoms: C_31  and  O_32
REMARK   13  A    between atoms: O_32  and  C_33
REMARK   14  A    between atoms: C_33  and  C_35
REMARK   15  A    between atoms: C_37  and  O_43
REMARK   16  A    between atoms: C_38  and  O_42
REMARK   17  A    between atoms: C_39  and  O_41
REMARK                            x       y       z     vdW  Elec       q    Type
REMARK                         _______ _______ _______ _____ _____    ______ ____
ROOT
ATOM      1  C   UNL     1       6.361  -3.608  23.157  0.00  0.00    +0.339 C 
ATOM      2  O   UNL     1       6.360  -3.959  24.542  0.00  0.00    -0.330 OA
ATOM      3  C   UNL     1       6.387  -5.361  24.844  0.00  0.00    +0.191 C 
ATOM      4  C   UNL     1       5.125  -6.005  24.273  0.00  0.00    +0.178 C 
ATOM      5  C   UNL     1       5.189  -5.912  22.749  0.00  0.00    +0.180 C 
ATOM      6  C   UNL     1       5.415  -4.468  22.276  0.00  0.00    +0.214 C 
ENDROOT
BRANCH   6   7
ATOM      7  O   UNL     1       5.690  -4.386  20.875  0.00  0.00    -0.383 OA
ATOM      8  H   UNL     1       5.220  -5.107  20.422  0.00  0.00    +0.210 HD
ENDBRANCH   6   7
BRANCH   5   9
ATOM      9  O   UNL     1       3.960  -6.441  22.214  0.00  0.00    -0.386 OA
ATOM     10  H   UNL     1       3.326  -5.706  22.117  0.00  0.00    +0.210 HD
ENDBRANCH   5   9
BRANCH   4  11
ATOM     11  O   UNL     1       3.962  -5.307  24.748  0.00  0.00    -0.386 OA
ATOM     12  H   UNL     1       3.266  -5.978  24.874  0.00  0.00    +0.210 HD
ENDBRANCH   4  11
BRANCH   3  13
ATOM     13  C   UNL     1       6.422  -5.495  26.375  0.00  0.00    +0.266 C 
BRANCH  13  14
ATOM     14  O   UNL     1       6.760  -4.231  26.984  0.00  0.00    -0.458 OA
BRANCH  14  15
ATOM     15  C   UNL     1       5.724  -3.376  27.164  0.00  0.00    +0.340 C 
ATOM     16  O   UNL     1       4.557  -3.694  27.328  0.00  0.00    -0.245 OA
BRANCH  15  17
ATOM     17  C   UNL     1       6.211  -1.975  27.141  0.00  0.00    +0.066 A 
ATOM     18  C   UNL     1       5.322  -0.958  27.521  0.00  0.00    +0.064 A 
ATOM     19  C   UNL     1       5.769   0.355  27.561  0.00  0.00    +0.163 A 
ATOM     20  C   UNL     1       7.082   0.663  27.230  0.00  0.00    +0.201 A 
ATOM     21  C   UNL     1       7.965  -0.341  26.847  0.00  0.00    +0.163 A 
ATOM     22  C   UNL     1       7.540  -1.665  26.798  0.00  0.00    +0.064 A 
BRANCH  21  23
ATOM     23  O   UNL     1       9.247   0.020  26.541  0.00  0.00    -0.503 OA
ATOM     24  H   UNL     1       9.393   0.934  26.845  0.00  0.00    +0.292 HD
ENDBRANCH  21  23
BRANCH  20  25
ATOM     25  O   UNL     1       7.496   1.965  27.301  0.00  0.00    -0.501 OA
ATOM     26  H   UNL     1       8.390   1.915  27.699  0.00  0.00    +0.292 HD
ENDBRANCH  20  25
BRANCH  19  27
ATOM     27  O   UNL     1       4.910   1.344  27.945  0.00  0.00    -0.503 OA
ATOM     28  H   UNL     1       5.399   1.849  28.625  0.00  0.00    +0.292 HD
ENDBRANCH  19  27
ENDBRANCH  15  17
ENDBRANCH  14  15
ENDBRANCH  13  14
ENDBRANCH   3  13
BRANCH   1  29
ATOM     29  O   UNL     1       7.709  -3.344  22.689  0.00  0.00    -0.457 OA
BRANCH  29  34
ATOM     30  C   UNL     1       7.566   0.375  23.042  0.00  0.00    +0.015 A 
ATOM     31  C   UNL     1       8.911   0.717  23.219  0.00  0.00    +0.025 A 
ATOM     32  C   UNL     1       9.841  -0.332  23.197  0.00  0.00    +0.060 A 
ATOM     33  C   UNL     1       9.424  -1.667  23.002  0.00  0.00    +0.159 A 
ATOM     34  C   UNL     1       8.076  -2.005  22.856  0.00  0.00    +0.165 A 
ATOM     35  C   UNL     1       7.162  -0.946  22.894  0.00  0.00    +0.050 A 
BRANCH  31  36
ATOM     36  C   UNL     1       9.201   2.149  23.508  0.00  0.00    +0.181 A 
ATOM     37  O   UNL     1      10.505   2.481  23.131  0.00  0.00    -0.451 OA
ATOM     38  C   UNL     1      11.002   3.722  23.414  0.00  0.00    +0.147 A 
ATOM     39  C   UNL     1      10.211   4.737  23.931  0.00  0.00    +0.109 A 
ATOM     40  C   UNL     1      10.767   6.001  24.159  0.00  0.00    +0.135 A 
ATOM     41  C   UNL     1      12.111   6.244  23.884  0.00  0.00    +0.091 A 
ATOM     42  C   UNL     1      12.897   5.212  23.383  0.00  0.00    +0.124 A 
ATOM     43  C   UNL     1       8.811   4.434  24.242  0.00  0.00    +0.238 A 
ATOM     44  O   UNL     1       8.080   5.332  24.665  0.00  0.00    -0.283 OA
ATOM     45  C   UNL     1      12.354   3.951  23.145  0.00  0.00    +0.092 A 
ATOM     46  C   UNL     1       8.349   3.028  24.068  0.00  0.00    +0.208 A 
BRANCH  46  47
ATOM     47  O   UNL     1       7.084   2.726  24.536  0.00  0.00    -0.501 OA
ATOM     48  H   UNL     1       6.497   2.569  23.778  0.00  0.00    +0.292 HD
ENDBRANCH  46  47
BRANCH  42  49
ATOM     49  O   UNL     1      14.219   5.399  23.106  0.00  0.00    -0.507 OA
ATOM     50  H   UNL     1      14.304   6.098  22.434  0.00  0.00    +0.292 HD
ENDBRANCH  42  49
BRANCH  40  51
ATOM     51  O   UNL     1      10.044   7.051  24.658  0.00  0.00    -0.506 OA
ATOM     52  H   UNL     1       9.192   7.096  24.166  0.00  0.00    +0.292 HD
ENDBRANCH  40  51
ENDBRANCH  31  36
BRANCH  33  53
ATOM     53  O   UNL     1      10.406  -2.619  22.975  0.00  0.00    -0.503 OA
ATOM     54  H   UNL     1      10.292  -3.105  22.138  0.00  0.00    +0.292 HD
ENDBRANCH  33  53
ENDBRANCH  29  34
ENDBRANCH   1  29
TORSDOF 17
ENDMDL
MODEL 5
REMARK VINA RESULT:      -7.2      1.576      7.799
REMARK  Name = 
REMARK  17 active torsions:
REMARK  status: ('A' for Active; 'I' for Inactive)
REMARK    1  A    between atoms: C_3  and  O_22
REMARK    2  A    between atoms: C_4  and  O_21
REMARK    3  A    between atoms: C_6  and  C_7
REMARK    4  A    between atoms: C_8  and  O_20
REMARK    5  A    between atoms: C_12  and  O_19
REMARK    6  A    between atoms: C_14  and  O_18
REMARK    7  A    between atoms: O_22  and  C_23
REMARK    8  A    between atoms: C_25  and  O_46
REMARK    9  A    between atoms: C_26  and  O_45
REMARK   10  A    between atoms: C_27  and  O_44
REMARK   11  A    between atoms: C_29  and  C_31
REMARK   12  A    between atoms: C_31  and  O_32
REMARK   13  A    between atoms: O_32  and  C_33
REMARK   14  A    between atoms: C_33  and  C_35
REMARK   15  A    between atoms: C_37  and  O_43
REMARK   16  A    between atoms: C_38  and  O_42
REMARK   17  A    between atoms: C_39  and  O_41
REMARK                            x       y       z     vdW  Elec       q    Type
REMARK                         _______ _______ _______ _____ _____    ______ ____
ROOT
ATOM      1  C   UNL     1       5.322  -5.940  25.630  0.00  0.00    +0.339 C 
ATOM      2  O   UNL     1       6.389  -5.753  24.697  0.00  0.00    -0.330 OA
ATOM      3  C   UNL     1       6.239  -4.675  23.764  0.00  0.00    +0.191 C 
ATOM      4  C   UNL     1       5.006  -4.945  22.903  0.00  0.00    +0.178 C 
ATOM      5  C   UNL     1       3.773  -4.885  23.803  0.00  0.00    +0.180 C 
ATOM      6  C   UNL     1       3.902  -5.826  25.011  0.00  0.00    +0.214 C 
ENDROOT
BRANCH   6   7
ATOM      7  O   UNL     1       2.863  -5.629  25.973  0.00  0.00    -0.383 OA
ATOM      8  H   UNL     1       2.990  -4.764  26.398  0.00  0.00    +0.210 HD
ENDBRANCH   6   7
BRANCH   5   9
ATOM      9  O   UNL     1       2.619  -5.226  23.009  0.00  0.00    -0.386 OA
ATOM     10  H   UNL     1       1.848  -5.296  23.602  0.00  0.00    +0.210 HD
ENDBRANCH   5   9
BRANCH   4  11
ATOM     11  O   UNL     1       5.103  -6.250  22.308  0.00  0.00    -0.386 OA
ATOM     12  H   UNL     1       5.784  -6.735  22.808  0.00  0.00    +0.210 HD
ENDBRANCH   4  11
BRANCH   3  13
ATOM     13  C   UNL     1       7.510  -4.641  22.900  0.00  0.00    +0.266 C 
BRANCH  13  14
ATOM     14  O   UNL     1       7.926  -3.279  22.670  0.00  0.00    -0.458 OA
BRANCH  14  15
ATOM     15  C   UNL     1       9.008  -2.873  23.378  0.00  0.00    +0.340 C 
ATOM     16  O   UNL     1       9.667  -3.568  24.134  0.00  0.00    -0.245 OA
BRANCH  15  17
ATOM     17  C   UNL     1       9.290  -1.443  23.101  0.00  0.00    +0.066 A 
ATOM     18  C   UNL     1      10.137  -0.752  23.981  0.00  0.00    +0.064 A 
ATOM     19  C   UNL     1      10.461   0.570  23.713  0.00  0.00    +0.163 A 
ATOM     20  C   UNL     1       9.955   1.207  22.587  0.00  0.00    +0.201 A 
ATOM     21  C   UNL     1       9.110   0.528  21.716  0.00  0.00    +0.163 A 
ATOM     22  C   UNL     1       8.769  -0.799  21.963  0.00  0.00    +0.064 A 
BRANCH  21  23
ATOM     23  O   UNL     1       8.649   1.201  20.619  0.00  0.00    -0.503 OA
ATOM     24  H   UNL     1       8.872   0.687  19.823  0.00  0.00    +0.292 HD
ENDBRANCH  21  23
BRANCH  20  25
ATOM     25  O   UNL     1      10.311   2.504  22.341  0.00  0.00    -0.501 OA
ATOM     26  H   UNL     1      10.220   2.602  21.371  0.00  0.00    +0.292 HD
ENDBRANCH  20  25
BRANCH  19  27
ATOM     27  O   UNL     1      11.296   1.240  24.559  0.00  0.00    -0.503 OA
ATOM     28  H   UNL     1      11.943   0.568  24.855  0.00  0.00    +0.292 HD
ENDBRANCH  19  27
ENDBRANCH  15  17
ENDBRANCH  14  15
ENDBRANCH  13  14
ENDBRANCH   3  13
BRANCH   1  29
ATOM     29  O   UNL     1       5.600  -5.259  26.880  0.00  0.00    -0.457 OA
BRANCH  29  34
ATOM     30  C   UNL     1       5.174  -1.581  26.362  0.00  0.00    +0.015 A 
ATOM     31  C   UNL     1       6.495  -1.121  26.334  0.00  0.00    +0.025 A 
ATOM     32  C   UNL     1       7.505  -2.083  26.476  0.00  0.00    +0.060 A 
ATOM     33  C   UNL     1       7.187  -3.450  26.637  0.00  0.00    +0.159 A 
ATOM     34  C   UNL     1       5.865  -3.899  26.696  0.00  0.00    +0.165 A 
ATOM     35  C   UNL     1       4.872  -2.922  26.565  0.00  0.00    +0.050 A 
BRANCH  31  36
ATOM     36  C   UNL     1       6.685   0.354  26.252  0.00  0.00    +0.181 A 
ATOM     37  O   UNL     1       6.442   0.819  24.956  0.00  0.00    -0.451 OA
ATOM     38  C   UNL     1       6.669   2.130  24.648  0.00  0.00    +0.147 A 
ATOM     39  C   UNL     1       6.990   3.073  25.613  0.00  0.00    +0.109 A 
ATOM     40  C   UNL     1       7.168   4.411  25.242  0.00  0.00    +0.135 A 
ATOM     41  C   UNL     1       7.039   4.800  23.910  0.00  0.00    +0.091 A 
ATOM     42  C   UNL     1       6.735   3.840  22.951  0.00  0.00    +0.124 A 
ATOM     43  C   UNL     1       7.153   2.620  26.998  0.00  0.00    +0.238 A 
ATOM     44  O   UNL     1       7.400   3.448  27.877  0.00  0.00    -0.283 OA
ATOM     45  C   UNL     1       6.548   2.507  23.308  0.00  0.00    +0.092 A 
ATOM     46  C   UNL     1       7.054   1.158  27.267  0.00  0.00    +0.208 A 
BRANCH  46  47
ATOM     47  O   UNL     1       7.388   0.735  28.539  0.00  0.00    -0.501 OA
ATOM     48  H   UNL     1       7.907   1.431  28.976  0.00  0.00    +0.292 HD
ENDBRANCH  46  47
BRANCH  42  49
ATOM     49  O   UNL     1       6.606   4.172  21.634  0.00  0.00    -0.507 OA
ATOM     50  H   UNL     1       6.111   5.007  21.567  0.00  0.00    +0.292 HD
ENDBRANCH  42  49
BRANCH  40  51
ATOM     51  O   UNL     1       7.477   5.396  26.141  0.00  0.00    -0.506 OA
ATOM     52  H   UNL     1       8.263   5.102  26.657  0.00  0.00    +0.292 HD
ENDBRANCH  40  51
ENDBRANCH  31  36
BRANCH  33  53
ATOM     53  O   UNL     1       8.241  -4.316  26.748  0.00  0.00    -0.503 OA
ATOM     54  H   UNL     1       7.854  -5.203  26.860  0.00  0.00    +0.292 HD
ENDBRANCH  33  53
ENDBRANCH  29  34
ENDBRANCH   1  29
TORSDOF 17
ENDMDL
MODEL 6
REMARK VINA RESULT:      -7.1      2.201      8.352
REMARK  Name = 
REMARK  17 active torsions:
REMARK  status: ('A' for Active; 'I' for Inactive)
REMARK    1  A    between atoms: C_3  and  O_22
REMARK    2  A    between atoms: C_4  and  O_21
REMARK    3  A    between atoms: C_6  and  C_7
REMARK    4  A    between atoms: C_8  and  O_20
REMARK    5  A    between atoms: C_12  and  O_19
REMARK    6  A    between atoms: C_14  and  O_18
REMARK    7  A    between atoms: O_22  and  C_23
REMARK    8  A    between atoms: C_25  and  O_46
REMARK    9  A    between atoms: C_26  and  O_45
REMARK   10  A    between atoms: C_27  and  O_44
REMARK   11  A    between atoms: C_29  and  C_31
REMARK   12  A    between atoms: C_31  and  O_32
REMARK   13  A    between atoms: O_32  and  C_33
REMARK   14  A    between atoms: C_33  and  C_35
REMARK   15  A    between atoms: C_37  and  O_43
REMARK   16  A    between atoms: C_38  and  O_42
REMARK   17  A    between atoms: C_39  and  O_41
REMARK                            x       y       z     vdW  Elec       q    Type
REMARK                         _______ _______ _______ _____ _____    ______ ____
ROOT
ATOM      1  C   UNL     1       3.069  -5.798  26.914  0.00  0.00    +0.339 C 
ATOM      2  O   UNL     1       3.598  -5.980  25.599  0.00  0.00    -0.330 OA
ATOM      3  C   UNL     1       2.655  -6.316  24.572  0.00  0.00    +0.191 C 
ATOM      4  C   UNL     1       2.008  -7.654  24.926  0.00  0.00    +0.178 C 
ATOM      5  C   UNL     1       1.182  -7.464  26.197  0.00  0.00    +0.180 C 
ATOM      6  C   UNL     1       2.020  -6.862  27.336  0.00  0.00    +0.214 C 
ENDROOT
BRANCH   6   7
ATOM      7  O   UNL     1       1.223  -6.478  28.460  0.00  0.00    -0.383 OA
ATOM      8  H   UNL     1       1.700  -5.796  28.963  0.00  0.00    +0.210 HD
ENDBRANCH   6   7
BRANCH   5   9
ATOM      9  O   UNL     1       0.643  -8.745  26.579  0.00  0.00    -0.386 OA
ATOM     10  H   UNL     1      -0.195  -8.595  27.055  0.00  0.00    +0.210 HD
ENDBRANCH   5   9
BRANCH   4  11
ATOM     11  O   UNL     1       3.026  -8.642  25.157  0.00  0.00    -0.386 OA
ATOM     12  H   UNL     1       3.882  -8.204  24.997  0.00  0.00    +0.210 HD
ENDBRANCH   4  11
BRANCH   3  13
ATOM     13  C   UNL     1       3.437  -6.420  23.253  0.00  0.00    +0.266 C 
BRANCH  13  14
ATOM     14  O   UNL     1       4.855  -6.482  23.511  0.00  0.00    -0.458 OA
BRANCH  14  15
ATOM     15  C   UNL     1       5.564  -5.392  23.130  0.00  0.00    +0.340 C 
ATOM     16  O   UNL     1       5.324  -4.687  22.164  0.00  0.00    -0.245 OA
BRANCH  15  17
ATOM     17  C   UNL     1       6.692  -5.166  24.068  0.00  0.00    +0.066 A 
ATOM     18  C   UNL     1       6.578  -5.667  25.374  0.00  0.00    +0.064 A 
ATOM     19  C   UNL     1       7.640  -5.517  26.254  0.00  0.00    +0.163 A 
ATOM     20  C   UNL     1       8.807  -4.880  25.849  0.00  0.00    +0.201 A 
ATOM     21  C   UNL     1       8.921  -4.376  24.558  0.00  0.00    +0.163 A 
ATOM     22  C   UNL     1       7.869  -4.513  23.657  0.00  0.00    +0.064 A 
BRANCH  21  23
ATOM     23  O   UNL     1      10.095  -3.767  24.213  0.00  0.00    -0.503 OA
ATOM     24  H   UNL     1      10.631  -4.395  23.697  0.00  0.00    +0.292 HD
ENDBRANCH  21  23
BRANCH  20  25
ATOM     25  O   UNL     1       9.843  -4.768  26.735  0.00  0.00    -0.501 OA
ATOM     26  H   UNL     1       9.486  -5.127  27.574  0.00  0.00    +0.292 HD
ENDBRANCH  20  25
BRANCH  19  27
ATOM     27  O   UNL     1       7.538  -6.017  27.520  0.00  0.00    -0.503 OA
ATOM     28  H   UNL     1       6.859  -5.461  27.953  0.00  0.00    +0.292 HD
ENDBRANCH  19  27
ENDBRANCH  15  17
ENDBRANCH  14  15
ENDBRANCH  13  14
ENDBRANCH   3  13
BRANCH   1  29
ATOM     29  O   UNL     1       2.793  -4.397  27.172  0.00  0.00    -0.457 OA
BRANCH  29  34
ATOM     30  C   UNL     1       4.923  -2.186  25.040  0.00  0.00    +0.015 A 
ATOM     31  C   UNL     1       5.970  -1.845  25.903  0.00  0.00    +0.025 A 
ATOM     32  C   UNL     1       5.933  -2.394  27.193  0.00  0.00    +0.060 A 
ATOM     33  C   UNL     1       4.882  -3.251  27.587  0.00  0.00    +0.159 A 
ATOM     34  C   UNL     1       3.823  -3.563  26.730  0.00  0.00    +0.165 A 
ATOM     35  C   UNL     1       3.872  -2.996  25.452  0.00  0.00    +0.050 A 
BRANCH  31  36
ATOM     36  C   UNL     1       6.962  -0.859  25.390  0.00  0.00    +0.181 A 
ATOM     37  O   UNL     1       6.343   0.099  24.583  0.00  0.00    -0.451 OA
ATOM     38  C   UNL     1       7.099   1.029  23.927  0.00  0.00    +0.147 A 
ATOM     39  C   UNL     1       8.462   1.166  24.148  0.00  0.00    +0.109 A 
ATOM     40  C   UNL     1       9.175   2.167  23.478  0.00  0.00    +0.135 A 
ATOM     41  C   UNL     1       8.530   3.018  22.583  0.00  0.00    +0.091 A 
ATOM     42  C   UNL     1       7.168   2.857  22.358  0.00  0.00    +0.124 A 
ATOM     43  C   UNL     1       9.112   0.229  25.069  0.00  0.00    +0.238 A 
ATOM     44  O   UNL     1      10.314   0.358  25.309  0.00  0.00    -0.283 OA
ATOM     45  C   UNL     1       6.444   1.870  23.023  0.00  0.00    +0.092 A 
ATOM     46  C   UNL     1       8.284  -0.870  25.642  0.00  0.00    +0.208 A 
BRANCH  46  47
ATOM     47  O   UNL     1       8.953  -1.843  26.360  0.00  0.00    -0.501 OA
ATOM     48  H   UNL     1       9.790  -1.474  26.687  0.00  0.00    +0.292 HD
ENDBRANCH  46  47
BRANCH  42  49
ATOM     49  O   UNL     1       6.495   3.661  21.485  0.00  0.00    -0.507 OA
ATOM     50  H   UNL     1       6.213   3.129  20.720  0.00  0.00    +0.292 HD
ENDBRANCH  42  49
BRANCH  40  51
ATOM     51  O   UNL     1      10.518   2.365  23.654  0.00  0.00    -0.506 OA
ATOM     52  H   UNL     1      10.636   3.055  24.346  0.00  0.00    +0.292 HD
ENDBRANCH  40  51
ENDBRANCH  31  36
BRANCH  33  53
ATOM     53  O   UNL     1       4.943  -3.753  28.858  0.00  0.00    -0.503 OA
ATOM     54  H   UNL     1       5.772  -3.416  29.244  0.00  0.00    +0.292 HD
ENDBRANCH  33  53
ENDBRANCH  29  34
ENDBRANCH   1  29
TORSDOF 17
ENDMDL
MODEL 7
REMARK VINA RESULT:      -7.0      1.840      8.982
REMARK  Name = 
REMARK  17 active torsions:
REMARK  status: ('A' for Active; 'I' for Inactive)
REMARK    1  A    between atoms: C_3  and  O_22
REMARK    2  A    between atoms: C_4  and  O_21
REMARK    3  A    between atoms: C_6  and  C_7
REMARK    4  A    between atoms: C_8  and  O_20
REMARK    5  A    between atoms: C_12  and  O_19
REMARK    6  A    between atoms: C_14  and  O_18
REMARK    7  A    between atoms: O_22  and  C_23
REMARK    8  A    between atoms: C_25  and  O_46
REMARK    9  A    between atoms: C_26  and  O_45
REMARK   10  A    between atoms: C_27  and  O_44
REMARK   11  A    between atoms: C_29  and  C_31
REMARK   12  A    between atoms: C_31  and  O_32
REMARK   13  A    between atoms: O_32  and  C_33
REMARK   14  A    between atoms: C_33  and  C_35
REMARK   15  A    between atoms: C_37  and  O_43
REMARK   16  A    between atoms: C_38  and  O_42
REMARK   17  A    between atoms: C_39  and  O_41
REMARK                            x       y       z     vdW  Elec       q    Type
REMARK                         _______ _______ _______ _____ _____    ______ ____
ROOT
ATOM      1  C   UNL     1       5.959  -4.625  23.931  0.00  0.00    +0.339 C 
ATOM      2  O   UNL     1       5.750  -4.325  25.313  0.00  0.00    -0.330 OA
ATOM      3  C   UNL     1       5.754  -5.439  26.215  0.00  0.00    +0.191 C 
ATOM      4  C   UNL     1       4.606  -6.374  25.837  0.00  0.00    +0.178 C 
ATOM      5  C   UNL     1       4.903  -6.960  24.458  0.00  0.00    +0.180 C 
ATOM      6  C   UNL     1       5.174  -5.863  23.418  0.00  0.00    +0.214 C 
ENDROOT
BRANCH   6   7
ATOM      7  O   UNL     1       5.661  -6.388  22.180  0.00  0.00    -0.383 OA
ATOM      8  H   UNL     1       5.511  -7.348  22.167  0.00  0.00    +0.210 HD
ENDBRANCH   6   7
BRANCH   5   9
ATOM      9  O   UNL     1       3.780  -7.774  24.064  0.00  0.00    -0.386 OA
ATOM     10  H   UNL     1       3.419  -8.205  24.860  0.00  0.00    +0.210 HD
ENDBRANCH   5   9
BRANCH   4  11
ATOM     11  O   UNL     1       3.372  -5.638  25.791  0.00  0.00    -0.386 OA
ATOM     12  H   UNL     1       3.606  -4.714  25.588  0.00  0.00    +0.210 HD
ENDBRANCH   4  11
BRANCH   3  13
ATOM     13  C   UNL     1       5.555  -4.877  27.632  0.00  0.00    +0.266 C 
BRANCH  13  14
ATOM     14  O   UNL     1       5.903  -3.478  27.672  0.00  0.00    -0.458 OA
BRANCH  14  15
ATOM     15  C   UNL     1       4.887  -2.618  27.416  0.00  0.00    +0.340 C 
ATOM     16  O   UNL     1       3.697  -2.882  27.474  0.00  0.00    -0.245 OA
BRANCH  15  17
ATOM     17  C   UNL     1       5.429  -1.285  27.054  0.00  0.00    +0.066 A 
ATOM     18  C   UNL     1       5.055  -0.730  25.820  0.00  0.00    +0.064 A 
ATOM     19  C   UNL     1       5.503   0.538  25.482  0.00  0.00    +0.163 A 
ATOM     20  C   UNL     1       6.312   1.257  26.354  0.00  0.00    +0.201 A 
ATOM     21  C   UNL     1       6.691   0.708  27.574  0.00  0.00    +0.163 A 
ATOM     22  C   UNL     1       6.255  -0.563  27.936  0.00  0.00    +0.064 A 
BRANCH  21  23
ATOM     23  O   UNL     1       7.480   1.463  28.395  0.00  0.00    -0.503 OA
ATOM     24  H   UNL     1       7.459   2.386  28.084  0.00  0.00    +0.292 HD
ENDBRANCH  21  23
BRANCH  20  25
ATOM     25  O   UNL     1       6.719   2.513  25.999  0.00  0.00    -0.501 OA
ATOM     26  H   UNL     1       6.641   2.527  25.022  0.00  0.00    +0.292 HD
ENDBRANCH  20  25
BRANCH  19  27
ATOM     27  O   UNL     1       5.128   1.086  24.289  0.00  0.00    -0.503 OA
ATOM     28  H   UNL     1       5.959   1.426  23.899  0.00  0.00    +0.292 HD
ENDBRANCH  19  27
ENDBRANCH  15  17
ENDBRANCH  14  15
ENDBRANCH  13  14
ENDBRANCH   3  13
BRANCH   1  29
ATOM     29  O   UNL     1       7.358  -4.483  23.575  0.00  0.00    -0.457 OA
BRANCH  29  34
ATOM     30  C   UNL     1       8.125  -1.010  22.424  0.00  0.00    +0.015 A 
ATOM     31  C   UNL     1       8.612  -0.403  23.587  0.00  0.00    +0.025 A 
ATOM     32  C   UNL     1       8.684  -1.202  24.738  0.00  0.00    +0.060 A 
ATOM     33  C   UNL     1       8.281  -2.555  24.707  0.00  0.00    +0.159 A 
ATOM     34  C   UNL     1       7.766  -3.146  23.550  0.00  0.00    +0.165 A 
ATOM     35  C   UNL     1       7.691  -2.330  22.417  0.00  0.00    +0.050 A 
BRANCH  31  36
ATOM     36  C   UNL     1       8.913   1.053  23.503  0.00  0.00    +0.181 A 
ATOM     37  O   UNL     1       7.758   1.787  23.214  0.00  0.00    -0.451 OA
ATOM     38  C   UNL     1       7.844   3.131  22.987  0.00  0.00    +0.147 A 
ATOM     39  C   UNL     1       9.019   3.843  23.183  0.00  0.00    +0.109 A 
ATOM     40  C   UNL     1       9.032   5.227  22.976  0.00  0.00    +0.135 A 
ATOM     41  C   UNL     1       7.880   5.893  22.562  0.00  0.00    +0.091 A 
ATOM     42  C   UNL     1       6.715   5.164  22.353  0.00  0.00    +0.124 A 
ATOM     43  C   UNL     1      10.219   3.103  23.582  0.00  0.00    +0.238 A 
ATOM     44  O   UNL     1      11.263   3.721  23.799  0.00  0.00    -0.283 OA
ATOM     45  C   UNL     1       6.685   3.787  22.563  0.00  0.00    +0.092 A 
ATOM     46  C   UNL     1      10.124   1.617  23.664  0.00  0.00    +0.208 A 
BRANCH  46  47
ATOM     47  O   UNL     1      11.305   0.929  23.864  0.00  0.00    -0.501 OA
ATOM     48  H   UNL     1      12.026   1.569  23.988  0.00  0.00    +0.292 HD
ENDBRANCH  46  47
BRANCH  42  49
ATOM     49  O   UNL     1       5.565   5.771  21.941  0.00  0.00    -0.507 OA
ATOM     50  H   UNL     1       5.233   5.313  21.149  0.00  0.00    +0.292 HD
ENDBRANCH  42  49
BRANCH  40  51
ATOM     51  O   UNL     1      10.152   5.993  23.158  0.00  0.00    -0.506 OA
ATOM     52  H   UNL     1      10.871   5.409  23.492  0.00  0.00    +0.292 HD
ENDBRANCH  40  51
ENDBRANCH  31  36
BRANCH  33  53
ATOM     53  O   UNL     1       8.407  -3.259  25.874  0.00  0.00    -0.503 OA
ATOM     54  H   UNL     1       9.245  -3.752  25.805  0.00  0.00    +0.292 HD
ENDBRANCH  33  53
ENDBRANCH  29  34
ENDBRANCH   1  29
TORSDOF 17
ENDMDL
MODEL 8
REMARK VINA RESULT:      -6.9      1.550      8.285
REMARK  Name = 
REMARK  17 active torsions:
REMARK  status: ('A' for Active; 'I' for Inactive)
REMARK    1  A    between atoms: C_3  and  O_22
REMARK    2  A    between atoms: C_4  and  O_21
REMARK    3  A    between atoms: C_6  and  C_7
REMARK    4  A    between atoms: C_8  and  O_20
REMARK    5  A    between atoms: C_12  and  O_19
REMARK    6  A    between atoms: C_14  and  O_18
REMARK    7  A    between atoms: O_22  and  C_23
REMARK    8  A    between atoms: C_25  and  O_46
REMARK    9  A    between atoms: C_26  and  O_45
REMARK   10  A    between atoms: C_27  and  O_44
REMARK   11  A    between atoms: C_29  and  C_31
REMARK   12  A    between atoms: C_31  and  O_32
REMARK   13  A    between atoms: O_32  and  C_33
REMARK   14  A    between atoms: C_33  and  C_35
REMARK   15  A    between atoms: C_37  and  O_43
REMARK   16  A    between atoms: C_38  and  O_42
REMARK   17  A    between atoms: C_39  and  O_41
REMARK                            x       y       z     vdW  Elec       q    Type
REMARK                         _______ _______ _______ _____ _____    ______ ____
ROOT
ATOM      1  C   UNL     1       4.723  -5.681  26.573  0.00  0.00    +0.339 C 
ATOM      2  O   UNL     1       4.921  -5.241  25.228  0.00  0.00    -0.330 OA
ATOM      3  C   UNL     1       3.810  -5.398  24.336  0.00  0.00    +0.191 C 
ATOM      4  C   UNL     1       3.486  -6.887  24.221  0.00  0.00    +0.178 C 
ATOM      5  C   UNL     1       2.993  -7.375  25.582  0.00  0.00    +0.180 C 
ATOM      6  C   UNL     1       3.991  -7.044  26.702  0.00  0.00    +0.214 C 
ENDROOT
BRANCH   6   7
ATOM      7  O   UNL     1       3.458  -7.298  28.005  0.00  0.00    -0.383 OA
ATOM      8  H   UNL     1       3.409  -8.259  28.140  0.00  0.00    +0.210 HD
ENDBRANCH   6   7
BRANCH   5   9
ATOM      9  O   UNL     1       2.770  -8.797  25.497  0.00  0.00    -0.386 OA
ATOM     10  H   UNL     1       2.217  -8.974  24.713  0.00  0.00    +0.210 HD
ENDBRANCH   5   9
BRANCH   4  11
ATOM     11  O   UNL     1       4.667  -7.616  23.848  0.00  0.00    -0.386 OA
ATOM     12  H   UNL     1       5.313  -6.958  23.532  0.00  0.00    +0.210 HD
ENDBRANCH   4  11
BRANCH   3  13
ATOM     13  C   UNL     1       4.236  -4.827  22.974  0.00  0.00    +0.266 C 
BRANCH  13  14
ATOM     14  O   UNL     1       4.964  -5.816  22.218  0.00  0.00    -0.458 OA
BRANCH  14  15
ATOM     15  C   UNL     1       5.935  -5.331  21.407  0.00  0.00    +0.340 C 
ATOM     16  O   UNL     1       6.011  -5.506  20.201  0.00  0.00    -0.245 OA
BRANCH  15  17
ATOM     17  C   UNL     1       6.909  -4.538  22.197  0.00  0.00    +0.066 A 
ATOM     18  C   UNL     1       7.116  -3.197  21.840  0.00  0.00    +0.064 A 
ATOM     19  C   UNL     1       7.980  -2.419  22.597  0.00  0.00    +0.163 A 
ATOM     20  C   UNL     1       8.633  -2.957  23.699  0.00  0.00    +0.201 A 
ATOM     21  C   UNL     1       8.435  -4.287  24.052  0.00  0.00    +0.163 A 
ATOM     22  C   UNL     1       7.574  -5.089  23.308  0.00  0.00    +0.064 A 
BRANCH  21  23
ATOM     23  O   UNL     1       9.096  -4.761  25.151  0.00  0.00    -0.503 OA
ATOM     24  H   UNL     1       8.509  -4.684  25.923  0.00  0.00    +0.292 HD
ENDBRANCH  21  23
BRANCH  20  25
ATOM     25  O   UNL     1       9.461  -2.156  24.436  0.00  0.00    -0.501 OA
ATOM     26  H   UNL     1       8.914  -1.372  24.649  0.00  0.00    +0.292 HD
ENDBRANCH  20  25
BRANCH  19  27
ATOM     27  O   UNL     1       8.172  -1.110  22.260  0.00  0.00    -0.503 OA
ATOM     28  H   UNL     1       8.678  -1.139  21.423  0.00  0.00    +0.292 HD
ENDBRANCH  19  27
ENDBRANCH  15  17
ENDBRANCH  14  15
ENDBRANCH  13  14
ENDBRANCH   3  13
BRANCH   1  29
ATOM     29  O   UNL     1       4.311  -4.580  27.424  0.00  0.00    -0.457 OA
BRANCH  29  34
ATOM     30  C   UNL     1       4.888  -1.050  26.335  0.00  0.00    +0.015 A 
ATOM     31  C   UNL     1       6.283  -0.941  26.378  0.00  0.00    +0.025 A 
ATOM     32  C   UNL     1       6.998  -2.085  26.763  0.00  0.00    +0.060 A 
ATOM     33  C   UNL     1       6.326  -3.285  27.088  0.00  0.00    +0.159 A 
ATOM     34  C   UNL     1       4.932  -3.377  27.072  0.00  0.00    +0.165 A 
ATOM     35  C   UNL     1       4.237  -2.223  26.698  0.00  0.00    +0.050 A 
BRANCH  31  36
ATOM     36  C   UNL     1       6.854   0.406  26.103  0.00  0.00    +0.181 A 
ATOM     37  O   UNL     1       7.539   0.420  24.884  0.00  0.00    -0.451 OA
ATOM     38  C   UNL     1       8.229   1.536  24.502  0.00  0.00    +0.147 A 
ATOM     39  C   UNL     1       8.156   2.730  25.205  0.00  0.00    +0.109 A 
ATOM     40  C   UNL     1       8.851   3.851  24.739  0.00  0.00    +0.135 A 
ATOM     41  C   UNL     1       9.626   3.775  23.583  0.00  0.00    +0.091 A 
ATOM     42  C   UNL     1       9.704   2.567  22.899  0.00  0.00    +0.124 A 
ATOM     43  C   UNL     1       7.361   2.761  26.436  0.00  0.00    +0.238 A 
ATOM     44  O   UNL     1       7.251   3.822  27.054  0.00  0.00    -0.283 OA
ATOM     45  C   UNL     1       9.011   1.445  23.348  0.00  0.00    +0.092 A 
ATOM     46  C   UNL     1       6.754   1.483  26.905  0.00  0.00    +0.208 A 
BRANCH  46  47
ATOM     47  O   UNL     1       6.164   1.496  28.154  0.00  0.00    -0.501 OA
ATOM     48  H   UNL     1       6.398   2.324  28.605  0.00  0.00    +0.292 HD
ENDBRANCH  46  47
BRANCH  42  49
ATOM     49  O   UNL     1      10.455   2.442  21.768  0.00  0.00    -0.507 OA
ATOM     50  H   UNL     1      10.167   3.112  21.123  0.00  0.00    +0.292 HD
ENDBRANCH  42  49
BRANCH  40  51
ATOM     51  O   UNL     1       8.818   5.062  25.376  0.00  0.00    -0.506 OA
ATOM     52  H   UNL     1       8.054   5.059  25.998  0.00  0.00    +0.292 HD
ENDBRANCH  40  51
ENDBRANCH  31  36
BRANCH  33  53
ATOM     53  O   UNL     1       7.110  -4.352  27.432  0.00  0.00    -0.503 OA
ATOM     54  H   UNL     1       7.252  -4.285  28.394  0.00  0.00    +0.292 HD
ENDBRANCH  33  53
ENDBRANCH  29  34
ENDBRANCH   1  29
TORSDOF 17
ENDMDL
MODEL 9
REMARK VINA RESULT:      -6.9      1.736      4.733
REMARK  Name = 
REMARK  17 active torsions:
REMARK  status: ('A' for Active; 'I' for Inactive)
REMARK    1  A    between atoms: C_3  and  O_22
REMARK    2  A    between atoms: C_4  and  O_21
REMARK    3  A    between atoms: C_6  and  C_7
REMARK    4  A    between atoms: C_8  and  O_20
REMARK    5  A    between atoms: C_12  and  O_19
REMARK    6  A    between atoms: C_14  and  O_18
REMARK    7  A    between atoms: O_22  and  C_23
REMARK    8  A    between atoms: C_25  and  O_46
REMARK    9  A    between atoms: C_26  and  O_45
REMARK   10  A    between atoms: C_27  and  O_44
REMARK   11  A    between atoms: C_29  and  C_31
REMARK   12  A    between atoms: C_31  and  O_32
REMARK   13  A    between atoms: O_32  and  C_33
REMARK   14  A    between atoms: C_33  and  C_35
REMARK   15  A    between atoms: C_37  and  O_43
REMARK   16  A    between atoms: C_38  and  O_42
REMARK   17  A    between atoms: C_39  and  O_41
REMARK                            x       y       z     vdW  Elec       q    Type
REMARK                         _______ _______ _______ _____ _____    ______ ____
ROOT
ATOM      1  C   UNL     1      10.455   1.248  23.855  0.00  0.00    +0.339 C 
ATOM      2  O   UNL     1       9.629   1.026  25.000  0.00  0.00    -0.330 OA
ATOM      3  C   UNL     1       8.216   0.969  24.766  0.00  0.00    +0.191 C 
ATOM      4  C   UNL     1       7.762   2.317  24.208  0.00  0.00    +0.178 C 
ATOM      5  C   UNL     1       8.400   2.504  22.832  0.00  0.00    +0.180 C 
ATOM      6  C   UNL     1       9.926   2.339  22.884  0.00  0.00    +0.214 C 
ENDROOT
BRANCH   6   7
ATOM      7  O   UNL     1      10.519   2.297  21.584  0.00  0.00    -0.383 OA
ATOM      8  H   UNL     1      10.088   2.964  21.023  0.00  0.00    +0.210 HD
ENDBRANCH   6   7
BRANCH   5   9
ATOM      9  O   UNL     1       8.042   3.812  22.344  0.00  0.00    -0.386 OA
ATOM     10  H   UNL     1       8.384   4.477  22.970  0.00  0.00    +0.210 HD
ENDBRANCH   5   9
BRANCH   4  11
ATOM     11  O   UNL     1       8.187   3.376  25.082  0.00  0.00    -0.386 OA
ATOM     12  H   UNL     1       7.470   4.036  25.091  0.00  0.00    +0.210 HD
ENDBRANCH   4  11
BRANCH   3  13
ATOM     13  C   UNL     1       7.542   0.684  26.118  0.00  0.00    +0.266 C 
BRANCH  13  14
ATOM     14  O   UNL     1       6.848  -0.580  26.077  0.00  0.00    -0.458 OA
BRANCH  14  15
ATOM     15  C   UNL     1       5.560  -0.524  25.658  0.00  0.00    +0.340 C 
ATOM     16  O   UNL     1       5.084   0.333  24.930  0.00  0.00    -0.245 OA
BRANCH  15  17
ATOM     17  C   UNL     1       4.795  -1.669  26.209  0.00  0.00    +0.066 A 
ATOM     18  C   UNL     1       4.987  -2.006  27.558  0.00  0.00    +0.064 A 
ATOM     19  C   UNL     1       4.243  -3.037  28.113  0.00  0.00    +0.163 A 
ATOM     20  C   UNL     1       3.315  -3.730  27.345  0.00  0.00    +0.201 A 
ATOM     21  C   UNL     1       3.127  -3.403  26.007  0.00  0.00    +0.163 A 
ATOM     22  C   UNL     1       3.861  -2.373  25.427  0.00  0.00    +0.064 A 
BRANCH  21  23
ATOM     23  O   UNL     1       2.194  -4.112  25.303  0.00  0.00    -0.503 OA
ATOM     24  H   UNL     1       1.309  -3.871  25.629  0.00  0.00    +0.292 HD
ENDBRANCH  21  23
BRANCH  20  25
ATOM     25  O   UNL     1       2.583  -4.727  27.929  0.00  0.00    -0.501 OA
ATOM     26  H   UNL     1       1.762  -4.770  27.395  0.00  0.00    +0.292 HD
ENDBRANCH  20  25
BRANCH  19  27
ATOM     27  O   UNL     1       4.417  -3.357  29.428  0.00  0.00    -0.503 OA
ATOM     28  H   UNL     1       4.954  -4.176  29.417  0.00  0.00    +0.292 HD
ENDBRANCH  19  27
ENDBRANCH  15  17
ENDBRANCH  14  15
ENDBRANCH  13  14
ENDBRANCH   3  13
BRANCH   1  29
ATOM     29  O   UNL     1      10.932  -0.008  23.307  0.00  0.00    -0.457 OA
BRANCH  29  34
ATOM     30  C   UNL     1       8.771  -2.829  24.467  0.00  0.00    +0.015 A 
ATOM     31  C   UNL     1       7.926  -3.037  23.372  0.00  0.00    +0.025 A 
ATOM     32  C   UNL     1       8.125  -2.218  22.251  0.00  0.00    +0.060 A 
ATOM     33  C   UNL     1       9.139  -1.233  22.244  0.00  0.00    +0.159 A 
ATOM     34  C   UNL     1       9.959  -1.010  23.353  0.00  0.00    +0.165 A 
ATOM     35  C   UNL     1       9.735  -1.829  24.465  0.00  0.00    +0.050 A 
BRANCH  31  36
ATOM     36  C   UNL     1       6.842  -4.043  23.548  0.00  0.00    +0.181 A 
ATOM     37  O   UNL     1       6.770  -4.474  24.876  0.00  0.00    -0.451 OA
ATOM     38  C   UNL     1       5.911  -5.478  25.222  0.00  0.00    +0.147 A 
ATOM     39  C   UNL     1       4.981  -5.997  24.333  0.00  0.00    +0.109 A 
ATOM     40  C   UNL     1       4.097  -6.995  24.760  0.00  0.00    +0.135 A 
ATOM     41  C   UNL     1       4.154  -7.481  26.064  0.00  0.00    +0.091 A 
ATOM     42  C   UNL     1       5.104  -6.965  26.939  0.00  0.00    +0.124 A 
ATOM     43  C   UNL     1       4.976  -5.486  22.960  0.00  0.00    +0.238 A 
ATOM     44  O   UNL     1       4.132  -5.905  22.165  0.00  0.00    -0.283 OA
ATOM     45  C   UNL     1       5.984  -5.966  26.530  0.00  0.00    +0.092 A 
ATOM     46  C   UNL     1       6.032  -4.506  22.578  0.00  0.00    +0.208 A 
BRANCH  46  47
ATOM     47  O   UNL     1       6.120  -4.177  21.239  0.00  0.00    -0.501 OA
ATOM     48  H   UNL     1       5.669  -3.329  21.093  0.00  0.00    +0.292 HD
ENDBRANCH  46  47
BRANCH  42  49
ATOM     49  O   UNL     1       5.202  -7.415  28.223  0.00  0.00    -0.507 OA
ATOM     50  H   UNL     1       4.638  -6.864  28.793  0.00  0.00    +0.292 HD
ENDBRANCH  42  49
BRANCH  40  51
ATOM     51  O   UNL     1       3.149  -7.546  23.941  0.00  0.00    -0.506 OA
ATOM     52  H   UNL     1       2.447  -6.871  23.791  0.00  0.00    +0.292 HD
ENDBRANCH  40  51
ENDBRANCH  31  36
BRANCH  33  53
ATOM     53  O   UNL     1       9.269  -0.497  21.098  0.00  0.00    -0.503 OA
ATOM     54  H   UNL     1       8.588   0.198  21.142  0.00  0.00    +0.292 HD
ENDBRANCH  33  53
ENDBRANCH  29  34
ENDBRANCH   1  29
TORSDOF 17
ENDMDL
