MODEL 1
REMARK VINA RESULT:      -7.4      0.000      0.000
REMARK  Name = 
REMARK  10 active torsions:
REMARK  status: ('A' for Active; 'I' for Inactive)
REMARK    1  A    between atoms: C_2  and  O_34
REMARK    2  A    between atoms: C_4  and  O_33
REMARK    3  A    between atoms: C_6  and  O_32
REMARK    4  A    between atoms: C_7  and  O_10
REMARK    5  A    between atoms: O_10  and  C_11
REMARK    6  A    between atoms: C_12  and  C_24
REMARK    7  A    between atoms: C_16  and  O_23
REMARK    8  A    between atoms: C_18  and  O_22
REMARK    9  A    between atoms: C_26  and  O_31
REMARK   10  A    between atoms: C_27  and  O_30
REMARK                            x       y       z     vdW  Elec       q    Type
REMARK                         _______ _______ _______ _____ _____    ______ ____
ROOT
ATOM      1  C   UNL     1       7.853   2.787  23.854  0.00  0.00    +0.214 A 
ATOM      2  C   UNL     1       7.129   1.477  23.651  0.00  0.00    +0.238 A 
ATOM      3  O   UNL     1       5.908   1.489  23.533  0.00  0.00    -0.283 OA
ATOM      4  C   UNL     1       7.934   0.227  23.630  0.00  0.00    +0.109 A 
ATOM      5  C   UNL     1       9.294   0.346  23.883  0.00  0.00    +0.147 A 
ATOM      6  C   UNL     1      10.120  -0.781  23.974  0.00  0.00    +0.092 A 
ATOM      7  C   UNL     1       9.582  -2.037  23.774  0.00  0.00    +0.124 A 
ATOM      8  C   UNL     1       8.229  -2.185  23.463  0.00  0.00    +0.091 A 
ATOM      9  O   UNL     1       9.920   1.547  24.032  0.00  0.00    -0.451 OA
ATOM     10  C   UNL     1       7.410  -1.050  23.388  0.00  0.00    +0.135 A 
ATOM     11  C   UNL     1       9.208   2.739  23.938  0.00  0.00    +0.181 A 
ENDROOT
BRANCH  11  12
ATOM     12  C   UNL     1      10.172   3.884  23.903  0.00  0.00    +0.025 A 
ATOM     13  C   UNL     1       9.786   5.129  24.456  0.00  0.00    +0.015 A 
ATOM     14  C   UNL     1      10.689   6.187  24.591  0.00  0.00    +0.050 A 
ATOM     15  C   UNL     1      11.974   6.035  24.116  0.00  0.00    +0.158 A 
ATOM     16  C   UNL     1      12.357   4.856  23.492  0.00  0.00    +0.159 A 
ATOM     17  C   UNL     1      11.495   3.763  23.447  0.00  0.00    +0.060 A 
BRANCH  15  18
ATOM     18  O   UNL     1      12.876   7.048  24.276  0.00  0.00    -0.503 OA
ATOM     19  H   UNL     1      12.541   7.558  25.039  0.00  0.00    +0.292 HD
ENDBRANCH  15  18
BRANCH  16  20
ATOM     20  O   UNL     1      13.595   4.809  22.911  0.00  0.00    -0.503 OA
ATOM     21  H   UNL     1      14.247   4.744  23.634  0.00  0.00    +0.292 HD
ENDBRANCH  16  20
ENDBRANCH  11  12
BRANCH   7  22
ATOM     22  O   UNL     1      10.335  -3.169  23.866  0.00  0.00    -0.507 OA
ATOM     23  H   UNL     1      11.240  -2.975  23.559  0.00  0.00    +0.292 HD
ENDBRANCH   7  22
BRANCH  10  24
ATOM     24  O   UNL     1       6.095  -1.222  23.063  0.00  0.00    -0.506 OA
ATOM     25  H   UNL     1       5.887  -0.743  22.245  0.00  0.00    +0.292 HD
ENDBRANCH  10  24
BRANCH   1  26
ATOM     26  O   UNL     1       7.025   3.897  23.820  0.00  0.00    -0.453 OA
BRANCH  26  29
ATOM     27  C   UNL     1       4.497   5.141  23.058  0.00  0.00    +0.198 C 
ATOM     28  O   UNL     1       5.375   4.370  22.219  0.00  0.00    -0.337 OA
ATOM     29  C   UNL     1       6.768   4.525  22.569  0.00  0.00    +0.339 C 
ATOM     30  C   UNL     1       7.207   6.003  22.483  0.00  0.00    +0.214 C 
ATOM     31  C   UNL     1       6.209   6.960  23.158  0.00  0.00    +0.180 C 
ATOM     32  C   UNL     1       4.750   6.627  22.812  0.00  0.00    +0.171 C 
BRANCH  30  33
ATOM     33  O   UNL     1       7.387   6.361  21.094  0.00  0.00    -0.383 OA
ATOM     34  H   UNL     1       8.284   6.744  20.991  0.00  0.00    +0.210 HD
ENDBRANCH  30  33
BRANCH  31  35
ATOM     35  O   UNL     1       6.371   6.967  24.581  0.00  0.00    -0.386 OA
ATOM     36  H   UNL     1       5.743   6.355  25.012  0.00  0.00    +0.210 HD
ENDBRANCH  31  35
BRANCH  32  37
ATOM     37  O   UNL     1       4.464   6.928  21.437  0.00  0.00    -0.387 OA
ATOM     38  H   UNL     1       3.579   6.577  21.235  0.00  0.00    +0.210 HD
ENDBRANCH  32  37
ENDBRANCH  26  29
ENDBRANCH   1  26
TORSDOF 10
ENDMDL
MODEL 2
REMARK VINA RESULT:      -7.2      1.913      5.935
REMARK  Name = 
REMARK  10 active torsions:
REMARK  status: ('A' for Active; 'I' for Inactive)
REMARK    1  A    between atoms: C_2  and  O_34
REMARK    2  A    between atoms: C_4  and  O_33
REMARK    3  A    between atoms: C_6  and  O_32
REMARK    4  A    between atoms: C_7  and  O_10
REMARK    5  A    between atoms: O_10  and  C_11
REMARK    6  A    between atoms: C_12  and  C_24
REMARK    7  A    between atoms: C_16  and  O_23
REMARK    8  A    between atoms: C_18  and  O_22
REMARK    9  A    between atoms: C_26  and  O_31
REMARK   10  A    between atoms: C_27  and  O_30
REMARK                            x       y       z     vdW  Elec       q    Type
REMARK                         _______ _______ _______ _____ _____    ______ ____
ROOT
ATOM      1  C   UNL     1       8.359   2.846  24.471  0.00  0.00    +0.214 A 
ATOM      2  C   UNL     1       8.746   4.302  24.572  0.00  0.00    +0.238 A 
ATOM      3  O   UNL     1       7.909   5.110  24.963  0.00  0.00    -0.283 OA
ATOM      4  C   UNL     1      10.122   4.693  24.164  0.00  0.00    +0.109 A 
ATOM      5  C   UNL     1      10.932   3.695  23.638  0.00  0.00    +0.147 A 
ATOM      6  C   UNL     1      12.210   3.981  23.142  0.00  0.00    +0.092 A 
ATOM      7  C   UNL     1      12.693   5.272  23.209  0.00  0.00    +0.124 A 
ATOM      8  C   UNL     1      11.924   6.285  23.783  0.00  0.00    +0.091 A 
ATOM      9  O   UNL     1      10.562   2.385  23.590  0.00  0.00    -0.451 OA
ATOM     10  C   UNL     1      10.640   5.990  24.263  0.00  0.00    +0.135 A 
ATOM     11  C   UNL     1       9.324   1.975  24.075  0.00  0.00    +0.181 A 
ENDROOT
BRANCH  11  12
ATOM     12  C   UNL     1       9.284   0.479  24.115  0.00  0.00    +0.025 A 
ATOM     13  C   UNL     1       9.700  -0.253  22.977  0.00  0.00    +0.015 A 
ATOM     14  C   UNL     1       9.831  -1.644  23.003  0.00  0.00    +0.050 A 
ATOM     15  C   UNL     1       9.487  -2.328  24.149  0.00  0.00    +0.158 A 
ATOM     16  C   UNL     1       8.995  -1.644  25.253  0.00  0.00    +0.159 A 
ATOM     17  C   UNL     1       8.960  -0.252  25.269  0.00  0.00    +0.060 A 
BRANCH  15  18
ATOM     18  O   UNL     1       9.646  -3.683  24.200  0.00  0.00    -0.503 OA
ATOM     19  H   UNL     1       9.328  -3.936  25.088  0.00  0.00    +0.292 HD
ENDBRANCH  15  18
BRANCH  16  20
ATOM     20  O   UNL     1       8.533  -2.379  26.310  0.00  0.00    -0.503 OA
ATOM     21  H   UNL     1       8.846  -3.295  26.180  0.00  0.00    +0.292 HD
ENDBRANCH  16  20
ENDBRANCH  11  12
BRANCH   7  22
ATOM     22  O   UNL     1      13.923   5.610  22.728  0.00  0.00    -0.507 OA
ATOM     23  H   UNL     1      14.443   6.020  23.444  0.00  0.00    +0.292 HD
ENDBRANCH   7  22
BRANCH  10  24
ATOM     24  O   UNL     1       9.917   6.996  24.836  0.00  0.00    -0.506 OA
ATOM     25  H   UNL     1      10.440   7.432  25.528  0.00  0.00    +0.292 HD
ENDBRANCH  10  24
BRANCH   1  26
ATOM     26  O   UNL     1       7.073   2.575  24.909  0.00  0.00    -0.453 OA
BRANCH  26  29
ATOM     27  C   UNL     1       4.227   2.288  25.487  0.00  0.00    +0.198 C 
ATOM     28  O   UNL     1       5.012   1.502  24.573  0.00  0.00    -0.337 OA
ATOM     29  C   UNL     1       6.073   2.259  23.948  0.00  0.00    +0.339 C 
ATOM     30  C   UNL     1       5.513   3.471  23.171  0.00  0.00    +0.214 C 
ATOM     31  C   UNL     1       4.473   4.266  23.979  0.00  0.00    +0.180 C 
ATOM     32  C   UNL     1       3.468   3.355  24.701  0.00  0.00    +0.171 C 
BRANCH  30  33
ATOM     33  O   UNL     1       4.939   3.009  21.927  0.00  0.00    -0.383 OA
ATOM     34  H   UNL     1       4.056   2.629  22.120  0.00  0.00    +0.210 HD
ENDBRANCH  30  33
BRANCH  31  35
ATOM     35  O   UNL     1       5.100   5.133  24.931  0.00  0.00    -0.386 OA
ATOM     36  H   UNL     1       4.667   5.072  25.804  0.00  0.00    +0.210 HD
ENDBRANCH  31  35
BRANCH  32  37
ATOM     37  O   UNL     1       2.590   2.712  23.765  0.00  0.00    -0.387 OA
ATOM     38  H   UNL     1       2.253   3.394  23.159  0.00  0.00    +0.210 HD
ENDBRANCH  32  37
ENDBRANCH  26  29
ENDBRANCH   1  26
TORSDOF 10
ENDMDL
MODEL 3
REMARK VINA RESULT:      -7.1      3.565      8.908
REMARK  Name = 
REMARK  10 active torsions:
REMARK  status: ('A' for Active; 'I' for Inactive)
REMARK    1  A    between atoms: C_2  and  O_34
REMARK    2  A    between atoms: C_4  and  O_33
REMARK    3  A    between atoms: C_6  and  O_32
REMARK    4  A    between atoms: C_7  and  O_10
REMARK    5  A    between atoms: O_10  and  C_11
REMARK    6  A    between atoms: C_12  and  C_24
REMARK    7  A    between atoms: C_16  and  O_23
REMARK    8  A    between atoms: C_18  and  O_22
REMARK    9  A    between atoms: C_26  and  O_31
REMARK   10  A    between atoms: C_27  and  O_30
REMARK                            x       y       z     vdW  Elec       q    Type
REMARK                         _______ _______ _______ _____ _____    ______ ____
ROOT
ATOM      1  C   UNL     1       8.226  -2.337  23.829  0.00  0.00    +0.214 A 
ATOM      2  C   UNL     1       8.627  -1.248  22.862  0.00  0.00    +0.238 A 
ATOM      3  O   UNL     1       8.957  -1.561  21.724  0.00  0.00    -0.283 OA
ATOM      4  C   UNL     1       8.626   0.157  23.350  0.00  0.00    +0.109 A 
ATOM      5  C   UNL     1       8.335   0.360  24.692  0.00  0.00    +0.147 A 
ATOM      6  C   UNL     1       8.398   1.636  25.267  0.00  0.00    +0.092 A 
ATOM      7  C   UNL     1       8.721   2.722  24.478  0.00  0.00    +0.124 A 
ATOM      8  C   UNL     1       8.964   2.557  23.114  0.00  0.00    +0.091 A 
ATOM      9  O   UNL     1       7.949  -0.643  25.530  0.00  0.00    -0.451 OA
ATOM     10  C   UNL     1       8.912   1.273  22.553  0.00  0.00    +0.135 A 
ATOM     11  C   UNL     1       7.826  -1.950  25.068  0.00  0.00    +0.181 A 
ENDROOT
BRANCH  11  12
ATOM     12  C   UNL     1       7.165  -2.782  26.123  0.00  0.00    +0.025 A 
ATOM     13  C   UNL     1       5.946  -2.337  26.689  0.00  0.00    +0.015 A 
ATOM     14  C   UNL     1       5.205  -3.137  27.563  0.00  0.00    +0.050 A 
ATOM     15  C   UNL     1       5.705  -4.367  27.932  0.00  0.00    +0.158 A 
ATOM     16  C   UNL     1       6.938  -4.794  27.459  0.00  0.00    +0.159 A 
ATOM     17  C   UNL     1       7.633  -4.048  26.509  0.00  0.00    +0.060 A 
BRANCH  15  18
ATOM     18  O   UNL     1       4.972  -5.173  28.755  0.00  0.00    -0.503 OA
ATOM     19  H   UNL     1       4.368  -4.565  29.222  0.00  0.00    +0.292 HD
ENDBRANCH  15  18
BRANCH  16  20
ATOM     20  O   UNL     1       7.454  -5.955  27.967  0.00  0.00    -0.503 OA
ATOM     21  H   UNL     1       7.536  -6.580  27.223  0.00  0.00    +0.292 HD
ENDBRANCH  16  20
ENDBRANCH  11  12
BRANCH   7  22
ATOM     22  O   UNL     1       8.812   3.983  24.987  0.00  0.00    -0.507 OA
ATOM     23  H   UNL     1       7.973   4.454  24.823  0.00  0.00    +0.292 HD
ENDBRANCH   7  22
BRANCH  10  24
ATOM     24  O   UNL     1       9.135   1.143  21.213  0.00  0.00    -0.506 OA
ATOM     25  H   UNL     1       9.814   1.773  20.923  0.00  0.00    +0.292 HD
ENDBRANCH  10  24
BRANCH   1  26
ATOM     26  O   UNL     1       8.221  -3.606  23.273  0.00  0.00    -0.453 OA
BRANCH  26  29
ATOM     27  C   UNL     1       7.211  -6.194  22.376  0.00  0.00    +0.198 C 
ATOM     28  O   UNL     1       7.773  -5.150  21.562  0.00  0.00    -0.337 OA
ATOM     29  C   UNL     1       7.493  -3.826  22.070  0.00  0.00    +0.339 C 
ATOM     30  C   UNL     1       5.973  -3.578  22.177  0.00  0.00    +0.214 C 
ATOM     31  C   UNL     1       5.223  -4.750  22.834  0.00  0.00    +0.180 C 
ATOM     32  C   UNL     1       5.688  -6.115  22.305  0.00  0.00    +0.171 C 
BRANCH  30  33
ATOM     33  O   UNL     1       5.443  -3.318  20.856  0.00  0.00    -0.383 OA
ATOM     34  H   UNL     1       5.755  -4.030  20.257  0.00  0.00    +0.210 HD
ENDBRANCH  30  33
BRANCH  31  35
ATOM     35  O   UNL     1       5.354  -4.721  24.259  0.00  0.00    -0.386 OA
ATOM     36  H   UNL     1       4.886  -5.473  24.673  0.00  0.00    +0.210 HD
ENDBRANCH  31  35
BRANCH  32  37
ATOM     37  O   UNL     1       5.272  -6.310  20.944  0.00  0.00    -0.387 OA
ATOM     38  H   UNL     1       4.432  -5.834  20.821  0.00  0.00    +0.210 HD
ENDBRANCH  32  37
ENDBRANCH  26  29
ENDBRANCH   1  26
TORSDOF 10
ENDMDL
MODEL 4
REMARK VINA RESULT:      -7.0      3.385      6.251
REMARK  Name = 
REMARK  10 active torsions:
REMARK  status: ('A' for Active; 'I' for Inactive)
REMARK    1  A    between atoms: C_2  and  O_34
REMARK    2  A    between atoms: C_4  and  O_33
REMARK    3  A    between atoms: C_6  and  O_32
REMARK    4  A    between atoms: C_7  and  O_10
REMARK    5  A    between atoms: O_10  and  C_11
REMARK    6  A    between atoms: C_12  and  C_24
REMARK    7  A    between atoms: C_16  and  O_23
REMARK    8  A    between atoms: C_18  and  O_22
REMARK    9  A    between atoms: C_26  and  O_31
REMARK   10  A    between atoms: C_27  and  O_30
REMARK                            x       y       z     vdW  Elec       q    Type
REMARK                         _______ _______ _______ _____ _____    ______ ____
ROOT
ATOM      1  C   UNL     1       7.350  -1.299  23.949  0.00  0.00    +0.214 A 
ATOM      2  C   UNL     1       7.373  -2.511  23.049  0.00  0.00    +0.238 A 
ATOM      3  O   UNL     1       8.296  -2.637  22.252  0.00  0.00    -0.283 OA
ATOM      4  C   UNL     1       6.253  -3.484  23.155  0.00  0.00    +0.109 A 
ATOM      5  C   UNL     1       5.218  -3.165  24.022  0.00  0.00    +0.147 A 
ATOM      6  C   UNL     1       4.077  -3.971  24.124  0.00  0.00    +0.092 A 
ATOM      7  C   UNL     1       3.993  -5.128  23.376  0.00  0.00    +0.124 A 
ATOM      8  C   UNL     1       5.043  -5.505  22.537  0.00  0.00    +0.091 A 
ATOM      9  O   UNL     1       5.244  -2.076  24.842  0.00  0.00    -0.451 OA
ATOM     10  C   UNL     1       6.173  -4.682  22.432  0.00  0.00    +0.135 A 
ATOM     11  C   UNL     1       6.335  -1.214  24.847  0.00  0.00    +0.181 A 
ENDROOT
BRANCH  11  12
ATOM     12  C   UNL     1       6.201  -0.262  25.996  0.00  0.00    +0.025 A 
ATOM     13  C   UNL     1       4.998   0.469  26.148  0.00  0.00    +0.015 A 
ATOM     14  C   UNL     1       4.752   1.255  27.278  0.00  0.00    +0.050 A 
ATOM     15  C   UNL     1       5.733   1.370  28.240  0.00  0.00    +0.158 A 
ATOM     16  C   UNL     1       6.955   0.733  28.076  0.00  0.00    +0.159 A 
ATOM     17  C   UNL     1       7.167  -0.133  27.006  0.00  0.00    +0.060 A 
BRANCH  15  18
ATOM     18  O   UNL     1       5.490   2.104  29.365  0.00  0.00    -0.503 OA
ATOM     19  H   UNL     1       5.456   3.029  29.054  0.00  0.00    +0.292 HD
ENDBRANCH  15  18
BRANCH  16  20
ATOM     20  O   UNL     1       7.943   0.995  28.985  0.00  0.00    -0.503 OA
ATOM     21  H   UNL     1       7.929   1.957  29.153  0.00  0.00    +0.292 HD
ENDBRANCH  16  20
ENDBRANCH  11  12
BRANCH   7  22
ATOM     22  O   UNL     1       2.901  -5.943  23.424  0.00  0.00    -0.507 OA
ATOM     23  H   UNL     1       3.149  -6.827  23.097  0.00  0.00    +0.292 HD
ENDBRANCH   7  22
BRANCH  10  24
ATOM     24  O   UNL     1       7.193  -5.084  21.619  0.00  0.00    -0.506 OA
ATOM     25  H   UNL     1       6.894  -5.116  20.697  0.00  0.00    +0.292 HD
ENDBRANCH  10  24
BRANCH   1  26
ATOM     26  O   UNL     1       8.452  -0.471  23.805  0.00  0.00    -0.453 OA
BRANCH  26  29
ATOM     27  C   UNL     1       8.475   2.322  24.651  0.00  0.00    +0.198 C 
ATOM     28  O   UNL     1       7.688   1.739  23.598  0.00  0.00    -0.337 OA
ATOM     29  C   UNL     1       8.361   0.648  22.931  0.00  0.00    +0.339 C 
ATOM     30  C   UNL     1       9.704   1.106  22.322  0.00  0.00    +0.214 C 
ATOM     31  C   UNL     1      10.543   1.949  23.298  0.00  0.00    +0.180 C 
ATOM     32  C   UNL     1       9.702   2.997  24.042  0.00  0.00    +0.171 C 
BRANCH  30  33
ATOM     33  O   UNL     1       9.443   1.851  21.110  0.00  0.00    -0.383 OA
ATOM     34  H   UNL     1       9.818   1.348  20.356  0.00  0.00    +0.210 HD
ENDBRANCH  30  33
BRANCH  31  35
ATOM     35  O   UNL     1      11.226   1.123  24.249  0.00  0.00    -0.386 OA
ATOM     36  H   UNL     1      10.640   0.882  24.993  0.00  0.00    +0.210 HD
ENDBRANCH  31  35
BRANCH  32  37
ATOM     37  O   UNL     1       9.270   4.038  23.153  0.00  0.00    -0.387 OA
ATOM     38  H   UNL     1       8.715   3.628  22.466  0.00  0.00    +0.210 HD
ENDBRANCH  32  37
ENDBRANCH  26  29
ENDBRANCH   1  26
TORSDOF 10
ENDMDL
MODEL 5
REMARK VINA RESULT:      -6.9      1.456      5.958
REMARK  Name = 
REMARK  10 active torsions:
REMARK  status: ('A' for Active; 'I' for Inactive)
REMARK    1  A    between atoms: C_2  and  O_34
REMARK    2  A    between atoms: C_4  and  O_33
REMARK    3  A    between atoms: C_6  and  O_32
REMARK    4  A    between atoms: C_7  and  O_10
REMARK    5  A    between atoms: O_10  and  C_11
REMARK    6  A    between atoms: C_12  and  C_24
REMARK    7  A    between atoms: C_16  and  O_23
REMARK    8  A    between atoms: C_18  and  O_22
REMARK    9  A    between atoms: C_26  and  O_31
REMARK   10  A    between atoms: C_27  and  O_30
REMARK                            x       y       z     vdW  Elec       q    Type
REMARK                         _______ _______ _______ _____ _____    ______ ____
ROOT
ATOM      1  C   UNL     1       7.627   3.339  23.835  0.00  0.00    +0.214 A 
ATOM      2  C   UNL     1       6.175   2.962  23.662  0.00  0.00    +0.238 A 
ATOM      3  O   UNL     1       5.846   1.791  23.821  0.00  0.00    -0.283 OA
ATOM      4  C   UNL     1       5.214   4.030  23.279  0.00  0.00    +0.109 A 
ATOM      5  C   UNL     1       5.737   5.291  23.026  0.00  0.00    +0.147 A 
ATOM      6  C   UNL     1       4.927   6.339  22.572  0.00  0.00    +0.092 A 
ATOM      7  C   UNL     1       3.572   6.129  22.406  0.00  0.00    +0.124 A 
ATOM      8  C   UNL     1       3.008   4.888  22.706  0.00  0.00    +0.091 A 
ATOM      9  O   UNL     1       7.049   5.604  23.221  0.00  0.00    -0.451 OA
ATOM     10  C   UNL     1       3.832   3.842  23.146  0.00  0.00    +0.135 A 
ATOM     11  C   UNL     1       7.947   4.652  23.693  0.00  0.00    +0.181 A 
ENDROOT
BRANCH  11  12
ATOM     12  C   UNL     1       9.240   5.326  24.035  0.00  0.00    +0.025 A 
ATOM     13  C   UNL     1       9.267   6.269  25.091  0.00  0.00    +0.015 A 
ATOM     14  C   UNL     1      10.465   6.817  25.558  0.00  0.00    +0.050 A 
ATOM     15  C   UNL     1      11.646   6.477  24.933  0.00  0.00    +0.158 A 
ATOM     16  C   UNL     1      11.640   5.619  23.841  0.00  0.00    +0.159 A 
ATOM     17  C   UNL     1      10.465   4.991  23.437  0.00  0.00    +0.060 A 
BRANCH  15  18
ATOM     18  O   UNL     1      12.826   6.976  25.404  0.00  0.00    -0.503 OA
ATOM     19  H   UNL     1      13.514   6.454  24.948  0.00  0.00    +0.292 HD
ENDBRANCH  15  18
BRANCH  16  20
ATOM     20  O   UNL     1      12.816   5.428  23.169  0.00  0.00    -0.503 OA
ATOM     21  H   UNL     1      12.591   5.023  22.310  0.00  0.00    +0.292 HD
ENDBRANCH  16  20
ENDBRANCH  11  12
BRANCH   7  22
ATOM     22  O   UNL     1       2.739   7.107  21.952  0.00  0.00    -0.507 OA
ATOM     23  H   UNL     1       1.935   6.696  21.585  0.00  0.00    +0.292 HD
ENDBRANCH   7  22
BRANCH  10  24
ATOM     24  O   UNL     1       3.251   2.646  23.451  0.00  0.00    -0.506 OA
ATOM     25  H   UNL     1       3.858   2.102  23.977  0.00  0.00    +0.292 HD
ENDBRANCH  10  24
BRANCH   1  26
ATOM     26  O   UNL     1       8.437   2.288  24.229  0.00  0.00    -0.453 OA
BRANCH  26  29
ATOM     27  C   UNL     1       9.984  -0.151  24.657  0.00  0.00    +0.198 C 
ATOM     28  O   UNL     1      10.396   1.025  23.940  0.00  0.00    -0.337 OA
ATOM     29  C   UNL     1       9.301   1.689  23.269  0.00  0.00    +0.339 C 
ATOM     30  C   UNL     1       8.601   0.743  22.268  0.00  0.00    +0.214 C 
ATOM     31  C   UNL     1       8.314  -0.647  22.863  0.00  0.00    +0.180 C 
ATOM     32  C   UNL     1       9.506  -1.203  23.658  0.00  0.00    +0.171 C 
BRANCH  30  33
ATOM     33  O   UNL     1       9.420   0.623  21.082  0.00  0.00    -0.383 OA
ATOM     34  H   UNL     1       9.904   1.467  20.959  0.00  0.00    +0.210 HD
ENDBRANCH  30  33
BRANCH  31  35
ATOM     35  O   UNL     1       7.151  -0.628  23.699  0.00  0.00    -0.386 OA
ATOM     36  H   UNL     1       7.063  -1.461  24.202  0.00  0.00    +0.210 HD
ENDBRANCH  31  35
BRANCH  32  37
ATOM     37  O   UNL     1      10.593  -1.547  22.785  0.00  0.00    -0.387 OA
ATOM     38  H   UNL     1      10.454  -1.080  21.942  0.00  0.00    +0.210 HD
ENDBRANCH  32  37
ENDBRANCH  26  29
ENDBRANCH   1  26
TORSDOF 10
ENDMDL
MODEL 6
REMARK VINA RESULT:      -6.9      3.586      5.711
REMARK  Name = 
REMARK  10 active torsions:
REMARK  status: ('A' for Active; 'I' for Inactive)
REMARK    1  A    between atoms: C_2  and  O_34
REMARK    2  A    between atoms: C_4  and  O_33
REMARK    3  A    between atoms: C_6  and  O_32
REMARK    4  A    between atoms: C_7  and  O_10
REMARK    5  A    between atoms: O_10  and  C_11
REMARK    6  A    between atoms: C_12  and  C_24
REMARK    7  A    between atoms: C_16  and  O_23
REMARK    8  A    between atoms: C_18  and  O_22
REMARK    9  A    between atoms: C_26  and  O_31
REMARK   10  A    between atoms: C_27  and  O_30
REMARK                            x       y       z     vdW  Elec       q    Type
REMARK                         _______ _______ _______ _____ _____    ______ ____
ROOT
ATOM      1  C   UNL     1       5.902  -1.112  24.624  0.00  0.00    +0.214 A 
ATOM      2  C   UNL     1       4.932  -2.265  24.728  0.00  0.00    +0.238 A 
ATOM      3  O   UNL     1       3.982  -2.169  25.498  0.00  0.00    -0.283 OA
ATOM      4  C   UNL     1       5.192  -3.478  23.907  0.00  0.00    +0.109 A 
ATOM      5  C   UNL     1       6.362  -3.496  23.160  0.00  0.00    +0.147 A 
ATOM      6  C   UNL     1       6.741  -4.628  22.427  0.00  0.00    +0.092 A 
ATOM      7  C   UNL     1       5.919  -5.737  22.415  0.00  0.00    +0.124 A 
ATOM      8  C   UNL     1       4.710  -5.728  23.111  0.00  0.00    +0.091 A 
ATOM      9  O   UNL     1       7.201  -2.426  23.066  0.00  0.00    -0.451 OA
ATOM     10  C   UNL     1       4.348  -4.594  23.853  0.00  0.00    +0.135 A 
ATOM     11  C   UNL     1       6.918  -1.237  23.730  0.00  0.00    +0.181 A 
ENDROOT
BRANCH  11  12
ATOM     12  C   UNL     1       7.865  -0.176  23.261  0.00  0.00    +0.025 A 
ATOM     13  C   UNL     1       9.258  -0.422  23.317  0.00  0.00    +0.015 A 
ATOM     14  C   UNL     1      10.185   0.461  22.756  0.00  0.00    +0.050 A 
ATOM     15  C   UNL     1       9.734   1.633  22.188  0.00  0.00    +0.158 A 
ATOM     16  C   UNL     1       8.380   1.941  22.195  0.00  0.00    +0.159 A 
ATOM     17  C   UNL     1       7.444   1.020  22.659  0.00  0.00    +0.060 A 
BRANCH  15  18
ATOM     18  O   UNL     1      10.626   2.486  21.604  0.00  0.00    -0.503 OA
ATOM     19  H   UNL     1      10.071   3.142  21.140  0.00  0.00    +0.292 HD
ENDBRANCH  15  18
BRANCH  16  20
ATOM     20  O   UNL     1       8.001   3.178  21.751  0.00  0.00    -0.503 OA
ATOM     21  H   UNL     1       8.728   3.793  21.962  0.00  0.00    +0.292 HD
ENDBRANCH  16  20
ENDBRANCH  11  12
BRANCH   7  22
ATOM     22  O   UNL     1       6.245  -6.870  21.732  0.00  0.00    -0.507 OA
ATOM     23  H   UNL     1       6.709  -6.624  20.910  0.00  0.00    +0.292 HD
ENDBRANCH   7  22
BRANCH  10  24
ATOM     24  O   UNL     1       3.151  -4.606  24.508  0.00  0.00    -0.506 OA
ATOM     25  H   UNL     1       3.292  -4.715  25.462  0.00  0.00    +0.292 HD
ENDBRANCH  10  24
BRANCH   1  26
ATOM     26  O   UNL     1       5.555  -0.015  25.395  0.00  0.00    -0.453 OA
BRANCH  26  29
ATOM     27  C   UNL     1       7.389   2.099  26.224  0.00  0.00    +0.198 C 
ATOM     28  O   UNL     1       7.429   0.713  26.607  0.00  0.00    -0.337 OA
ATOM     29  C   UNL     1       6.117   0.115  26.696  0.00  0.00    +0.339 C 
ATOM     30  C   UNL     1       5.228   0.863  27.714  0.00  0.00    +0.214 C 
ATOM     31  C   UNL     1       5.287   2.391  27.546  0.00  0.00    +0.180 C 
ATOM     32  C   UNL     1       6.720   2.904  27.336  0.00  0.00    +0.171 C 
BRANCH  30  33
ATOM     33  O   UNL     1       5.627   0.488  29.053  0.00  0.00    -0.383 OA
ATOM     34  H   UNL     1       4.876   0.020  29.475  0.00  0.00    +0.210 HD
ENDBRANCH  30  33
BRANCH  31  35
ATOM     35  O   UNL     1       4.460   2.830  26.462  0.00  0.00    -0.386 OA
ATOM     36  H   UNL     1       4.859   2.606  25.599  0.00  0.00    +0.210 HD
ENDBRANCH  31  35
BRANCH  32  37
ATOM     37  O   UNL     1       7.495   2.775  28.539  0.00  0.00    -0.387 OA
ATOM     38  H   UNL     1       7.342   3.572  29.076  0.00  0.00    +0.210 HD
ENDBRANCH  32  37
ENDBRANCH  26  29
ENDBRANCH   1  26
TORSDOF 10
ENDMDL
MODEL 7
REMARK VINA RESULT:      -6.9      4.051      8.629
REMARK  Name = 
REMARK  10 active torsions:
REMARK  status: ('A' for Active; 'I' for Inactive)
REMARK    1  A    between atoms: C_2  and  O_34
REMARK    2  A    between atoms: C_4  and  O_33
REMARK    3  A    between atoms: C_6  and  O_32
REMARK    4  A    between atoms: C_7  and  O_10
REMARK    5  A    between atoms: O_10  and  C_11
REMARK    6  A    between atoms: C_12  and  C_24
REMARK    7  A    between atoms: C_16  and  O_23
REMARK    8  A    between atoms: C_18  and  O_22
REMARK    9  A    between atoms: C_26  and  O_31
REMARK   10  A    between atoms: C_27  and  O_30
REMARK                            x       y       z     vdW  Elec       q    Type
REMARK                         _______ _______ _______ _____ _____    ______ ____
ROOT
ATOM      1  C   UNL     1       7.512  -1.528  25.058  0.00  0.00    +0.214 A 
ATOM      2  C   UNL     1       8.222  -1.421  23.729  0.00  0.00    +0.238 A 
ATOM      3  O   UNL     1       8.259  -2.406  22.999  0.00  0.00    -0.283 OA
ATOM      4  C   UNL     1       8.868  -0.128  23.381  0.00  0.00    +0.109 A 
ATOM      5  C   UNL     1       8.843   0.871  24.346  0.00  0.00    +0.147 A 
ATOM      6  C   UNL     1       9.503   2.091  24.148  0.00  0.00    +0.092 A 
ATOM      7  C   UNL     1      10.161   2.324  22.958  0.00  0.00    +0.124 A 
ATOM      8  C   UNL     1      10.157   1.360  21.948  0.00  0.00    +0.091 A 
ATOM      9  O   UNL     1       8.167   0.751  25.523  0.00  0.00    -0.451 OA
ATOM     10  C   UNL     1       9.506   0.138  22.162  0.00  0.00    +0.135 A 
ATOM     11  C   UNL     1       7.454  -0.406  25.821  0.00  0.00    +0.181 A 
ENDROOT
BRANCH  11  12
ATOM     12  C   UNL     1       6.628  -0.169  27.047  0.00  0.00    +0.025 A 
ATOM     13  C   UNL     1       7.139   0.663  28.073  0.00  0.00    +0.015 A 
ATOM     14  C   UNL     1       6.359   1.045  29.168  0.00  0.00    +0.050 A 
ATOM     15  C   UNL     1       5.078   0.548  29.284  0.00  0.00    +0.158 A 
ATOM     16  C   UNL     1       4.581  -0.338  28.338  0.00  0.00    +0.159 A 
ATOM     17  C   UNL     1       5.314  -0.640  27.193  0.00  0.00    +0.060 A 
BRANCH  15  18
ATOM     18  O   UNL     1       4.294   0.943  30.329  0.00  0.00    -0.503 OA
ATOM     19  H   UNL     1       4.694   0.518  31.112  0.00  0.00    +0.292 HD
ENDBRANCH  15  18
BRANCH  16  20
ATOM     20  O   UNL     1       3.362  -0.913  28.574  0.00  0.00    -0.503 OA
ATOM     21  H   UNL     1       3.504  -1.878  28.610  0.00  0.00    +0.292 HD
ENDBRANCH  16  20
ENDBRANCH  11  12
BRANCH   7  22
ATOM     22  O   UNL     1      10.832   3.486  22.718  0.00  0.00    -0.507 OA
ATOM     23  H   UNL     1      10.219   4.236  22.829  0.00  0.00    +0.292 HD
ENDBRANCH   7  22
BRANCH  10  24
ATOM     24  O   UNL     1       9.500  -0.778  21.150  0.00  0.00    -0.506 OA
ATOM     25  H   UNL     1      10.058  -1.537  21.382  0.00  0.00    +0.292 HD
ENDBRANCH  10  24
BRANCH   1  26
ATOM     26  O   UNL     1       6.909  -2.756  25.275  0.00  0.00    -0.453 OA
BRANCH  26  29
ATOM     27  C   UNL     1       5.703  -4.223  27.491  0.00  0.00    +0.198 C 
ATOM     28  O   UNL     1       7.041  -3.702  27.420  0.00  0.00    -0.337 OA
ATOM     29  C   UNL     1       7.581  -3.718  26.079  0.00  0.00    +0.339 C 
ATOM     30  C   UNL     1       7.598  -5.150  25.500  0.00  0.00    +0.214 C 
ATOM     31  C   UNL     1       6.274  -5.899  25.727  0.00  0.00    +0.180 C 
ATOM     32  C   UNL     1       5.729  -5.712  27.150  0.00  0.00    +0.171 C 
BRANCH  30  33
ATOM     33  O   UNL     1       8.699  -5.883  26.087  0.00  0.00    -0.383 OA
ATOM     34  H   UNL     1       9.102  -5.322  26.783  0.00  0.00    +0.210 HD
ENDBRANCH  30  33
BRANCH  31  35
ATOM     35  O   UNL     1       5.278  -5.499  24.779  0.00  0.00    -0.386 OA
ATOM     36  H   UNL     1       5.630  -5.515  23.867  0.00  0.00    +0.210 HD
ENDBRANCH  31  35
BRANCH  32  37
ATOM     37  O   UNL     1       6.549  -6.397  28.111  0.00  0.00    -0.387 OA
ATOM     38  H   UNL     1       6.841  -7.232  27.707  0.00  0.00    +0.210 HD
ENDBRANCH  32  37
ENDBRANCH  26  29
ENDBRANCH   1  26
TORSDOF 10
ENDMDL
MODEL 8
REMARK VINA RESULT:      -6.9      5.663      9.381
REMARK  Name = 
REMARK  10 active torsions:
REMARK  status: ('A' for Active; 'I' for Inactive)
REMARK    1  A    between atoms: C_2  and  O_34
REMARK    2  A    between atoms: C_4  and  O_33
REMARK    3  A    between atoms: C_6  and  O_32
REMARK    4  A    between atoms: C_7  and  O_10
REMARK    5  A    between atoms: O_10  and  C_11
REMARK    6  A    between atoms: C_12  and  C_24
REMARK    7  A    between atoms: C_16  and  O_23
REMARK    8  A    between atoms: C_18  and  O_22
REMARK    9  A    between atoms: C_26  and  O_31
REMARK   10  A    between atoms: C_27  and  O_30
REMARK                            x       y       z     vdW  Elec       q    Type
REMARK                         _______ _______ _______ _____ _____    ______ ____
ROOT
ATOM      1  C   UNL     1       6.345  -2.728  26.268  0.00  0.00    +0.214 A 
ATOM      2  C   UNL     1       7.400  -1.649  26.215  0.00  0.00    +0.238 A 
ATOM      3  O   UNL     1       7.466  -0.841  27.136  0.00  0.00    -0.283 OA
ATOM      4  C   UNL     1       8.297  -1.601  25.029  0.00  0.00    +0.109 A 
ATOM      5  C   UNL     1       8.044  -2.509  24.009  0.00  0.00    +0.147 A 
ATOM      6  C   UNL     1       8.774  -2.483  22.814  0.00  0.00    +0.092 A 
ATOM      7  C   UNL     1       9.791  -1.563  22.657  0.00  0.00    +0.124 A 
ATOM      8  C   UNL     1      10.105  -0.675  23.687  0.00  0.00    +0.091 A 
ATOM      9  O   UNL     1       7.102  -3.489  24.103  0.00  0.00    -0.451 OA
ATOM     10  C   UNL     1       9.358  -0.700  24.873  0.00  0.00    +0.135 A 
ATOM     11  C   UNL     1       6.330  -3.629  25.252  0.00  0.00    +0.181 A 
ENDROOT
BRANCH  11  12
ATOM     12  C   UNL     1       5.563  -4.912  25.172  0.00  0.00    +0.025 A 
ATOM     13  C   UNL     1       5.585  -5.799  26.277  0.00  0.00    +0.015 A 
ATOM     14  C   UNL     1       4.772  -6.934  26.325  0.00  0.00    +0.050 A 
ATOM     15  C   UNL     1       3.973  -7.233  25.243  0.00  0.00    +0.158 A 
ATOM     16  C   UNL     1       3.994  -6.429  24.112  0.00  0.00    +0.159 A 
ATOM     17  C   UNL     1       4.723  -5.242  24.097  0.00  0.00    +0.060 A 
BRANCH  15  18
ATOM     18  O   UNL     1       3.146  -8.319  25.294  0.00  0.00    -0.503 OA
ATOM     19  H   UNL     1       3.032  -8.497  26.247  0.00  0.00    +0.292 HD
ENDBRANCH  15  18
BRANCH  16  20
ATOM     20  O   UNL     1       3.295  -6.847  23.013  0.00  0.00    -0.503 OA
ATOM     21  H   UNL     1       2.423  -6.409  23.045  0.00  0.00    +0.292 HD
ENDBRANCH  16  20
ENDBRANCH  11  12
BRANCH   7  22
ATOM     22  O   UNL     1      10.523  -1.484  21.511  0.00  0.00    -0.507 OA
ATOM     23  H   UNL     1       9.917  -1.412  20.750  0.00  0.00    +0.292 HD
ENDBRANCH   7  22
BRANCH  10  24
ATOM     24  O   UNL     1       9.700   0.166  25.871  0.00  0.00    -0.506 OA
ATOM     25  H   UNL     1      10.660   0.302  25.883  0.00  0.00    +0.292 HD
ENDBRANCH  10  24
BRANCH   1  26
ATOM     26  O   UNL     1       5.586  -2.715  27.426  0.00  0.00    -0.453 OA
BRANCH  26  29
ATOM     27  C   UNL     1       3.794  -2.355  29.702  0.00  0.00    +0.198 C 
ATOM     28  O   UNL     1       3.497  -3.007  28.456  0.00  0.00    -0.337 OA
ATOM     29  C   UNL     1       4.196  -2.424  27.333  0.00  0.00    +0.339 C 
ATOM     30  C   UNL     1       3.855  -0.926  27.178  0.00  0.00    +0.214 C 
ATOM     31  C   UNL     1       3.916  -0.160  28.511  0.00  0.00    +0.180 C 
ATOM     32  C   UNL     1       3.248  -0.929  29.661  0.00  0.00    +0.171 C 
BRANCH  30  33
ATOM     33  O   UNL     1       2.542  -0.801  26.585  0.00  0.00    -0.383 OA
ATOM     34  H   UNL     1       2.011  -0.194  27.143  0.00  0.00    +0.210 HD
ENDBRANCH  30  33
BRANCH  31  35
ATOM     35  O   UNL     1       5.265   0.157  28.870  0.00  0.00    -0.386 OA
ATOM     36  H   UNL     1       5.303   0.949  29.442  0.00  0.00    +0.210 HD
ENDBRANCH  31  35
BRANCH  32  37
ATOM     37  O   UNL     1       1.823  -0.979  29.489  0.00  0.00    -0.387 OA
ATOM     38  H   UNL     1       1.419  -0.519  30.246  0.00  0.00    +0.210 HD
ENDBRANCH  32  37
ENDBRANCH  26  29
ENDBRANCH   1  26
TORSDOF 10
ENDMDL
MODEL 9
REMARK VINA RESULT:      -6.8      3.799      6.675
REMARK  Name = 
REMARK  10 active torsions:
REMARK  status: ('A' for Active; 'I' for Inactive)
REMARK    1  A    between atoms: C_2  and  O_34
REMARK    2  A    between atoms: C_4  and  O_33
REMARK    3  A    between atoms: C_6  and  O_32
REMARK    4  A    between atoms: C_7  and  O_10
REMARK    5  A    between atoms: O_10  and  C_11
REMARK    6  A    between atoms: C_12  and  C_24
REMARK    7  A    between atoms: C_16  and  O_23
REMARK    8  A    between atoms: C_18  and  O_22
REMARK    9  A    between atoms: C_26  and  O_31
REMARK   10  A    between atoms: C_27  and  O_30
REMARK                            x       y       z     vdW  Elec       q    Type
REMARK                         _______ _______ _______ _____ _____    ______ ____
ROOT
ATOM      1  C   UNL     1       7.805  -1.720  25.672  0.00  0.00    +0.214 A 
ATOM      2  C   UNL     1       8.044  -3.184  25.957  0.00  0.00    +0.238 A 
ATOM      3  O   UNL     1       9.040  -3.722  25.487  0.00  0.00    -0.283 OA
ATOM      4  C   UNL     1       7.038  -3.912  26.776  0.00  0.00    +0.109 A 
ATOM      5  C   UNL     1       5.902  -3.210  27.154  0.00  0.00    +0.147 A 
ATOM      6  C   UNL     1       4.857  -3.832  27.848  0.00  0.00    +0.092 A 
ATOM      7  C   UNL     1       4.970  -5.163  28.198  0.00  0.00    +0.124 A 
ATOM      8  C   UNL     1       6.124  -5.881  27.880  0.00  0.00    +0.091 A 
ATOM      9  O   UNL     1       5.732  -1.880  26.905  0.00  0.00    -0.451 OA
ATOM     10  C   UNL     1       7.158  -5.250  27.173  0.00  0.00    +0.135 A 
ATOM     11  C   UNL     1       6.713  -1.148  26.243  0.00  0.00    +0.181 A 
ENDROOT
BRANCH  11  12
ATOM     12  C   UNL     1       6.373   0.308  26.321  0.00  0.00    +0.025 A 
ATOM     13  C   UNL     1       5.208   0.780  25.669  0.00  0.00    +0.015 A 
ATOM     14  C   UNL     1       4.755   2.092  25.829  0.00  0.00    +0.050 A 
ATOM     15  C   UNL     1       5.495   2.968  26.593  0.00  0.00    +0.158 A 
ATOM     16  C   UNL     1       6.687   2.557  27.175  0.00  0.00    +0.159 A 
ATOM     17  C   UNL     1       7.090   1.225  27.105  0.00  0.00    +0.060 A 
BRANCH  15  18
ATOM     18  O   UNL     1       5.043   4.241  26.788  0.00  0.00    -0.503 OA
ATOM     19  H   UNL     1       5.799   4.713  27.187  0.00  0.00    +0.292 HD
ENDBRANCH  15  18
BRANCH  16  20
ATOM     20  O   UNL     1       7.455   3.500  27.801  0.00  0.00    -0.503 OA
ATOM     21  H   UNL     1       8.022   3.029  28.440  0.00  0.00    +0.292 HD
ENDBRANCH  16  20
ENDBRANCH  11  12
BRANCH   7  22
ATOM     22  O   UNL     1       3.979  -5.824  28.859  0.00  0.00    -0.507 OA
ATOM     23  H   UNL     1       4.362  -6.591  29.323  0.00  0.00    +0.292 HD
ENDBRANCH   7  22
BRANCH  10  24
ATOM     24  O   UNL     1       8.283  -5.970  26.893  0.00  0.00    -0.506 OA
ATOM     25  H   UNL     1       8.386  -6.073  25.934  0.00  0.00    +0.292 HD
ENDBRANCH  10  24
BRANCH   1  26
ATOM     26  O   UNL     1       8.813  -1.120  24.936  0.00  0.00    -0.453 OA
BRANCH  26  29
ATOM     27  C   UNL     1       7.946   1.024  23.154  0.00  0.00    +0.198 C 
ATOM     28  O   UNL     1       7.695  -0.385  23.007  0.00  0.00    -0.337 OA
ATOM     29  C   UNL     1       8.770  -1.205  23.516  0.00  0.00    +0.339 C 
ATOM     30  C   UNL     1      10.104  -0.884  22.807  0.00  0.00    +0.214 C 
ATOM     31  C   UNL     1      10.372   0.627  22.699  0.00  0.00    +0.180 C 
ATOM     32  C   UNL     1       9.126   1.415  22.267  0.00  0.00    +0.171 C 
BRANCH  30  33
ATOM     33  O   UNL     1      10.097  -1.489  21.493  0.00  0.00    -0.383 OA
ATOM     34  H   UNL     1      11.026  -1.576  21.192  0.00  0.00    +0.210 HD
ENDBRANCH  30  33
BRANCH  31  35
ATOM     35  O   UNL     1      10.869   1.160  23.932  0.00  0.00    -0.386 OA
ATOM     36  H   UNL     1      11.409   1.960  23.780  0.00  0.00    +0.210 HD
ENDBRANCH  31  35
BRANCH  32  37
ATOM     37  O   UNL     1       8.792   1.142  20.897  0.00  0.00    -0.387 OA
ATOM     38  H   UNL     1       8.870   0.182  20.760  0.00  0.00    +0.210 HD
ENDBRANCH  32  37
ENDBRANCH  26  29
ENDBRANCH   1  26
TORSDOF 10
ENDMDL
