MODEL 1
REMARK VINA RESULT:      -8.2      0.000      0.000
REMARK  Name = 
REMARK  16 active torsions:
REMARK  status: ('A' for Active; 'I' for Inactive)
REMARK    1  A    between atoms: C_2  and  O_47
REMARK    2  A    between atoms: C_4  and  O_46
REMARK    3  A    between atoms: C_5  and  O_45
REMARK    4  A    between atoms: C_6  and  O_9
REMARK    5  A    between atoms: O_9  and  C_10
REMARK    6  A    between atoms: C_11  and  C_37
REMARK    7  A    between atoms: C_15  and  O_22
REMARK    8  A    between atoms: C_17  and  O_21
REMARK    9  A    between atoms: O_22  and  C_23
REMARK   10  A    between atoms: C_25  and  O_36
REMARK   11  A    between atoms: C_26  and  O_35
REMARK   12  A    between atoms: C_28  and  O_34
REMARK   13  A    between atoms: C_30  and  C_32
REMARK   14  A    between atoms: C_32  and  O_33
REMARK   15  A    between atoms: C_39  and  O_44
REMARK   16  A    between atoms: C_40  and  O_43
REMARK                            x       y       z     vdW  Elec       q    Type
REMARK                         _______ _______ _______ _____ _____    ______ ____
ROOT
ATOM      1  C   UNL     1       6.986  -4.113  24.358  0.00  0.00    +0.214 A 
ATOM      2  C   UNL     1       7.843  -3.494  23.279  0.00  0.00    +0.238 A 
ATOM      3  O   UNL     1       8.029  -4.095  22.228  0.00  0.00    -0.283 OA
ATOM      4  C   UNL     1       8.422  -2.150  23.544  0.00  0.00    +0.109 A 
ATOM      5  C   UNL     1       8.233  -1.623  24.812  0.00  0.00    +0.147 A 
ATOM      6  C   UNL     1       8.685  -0.338  25.139  0.00  0.00    +0.093 A 
ATOM      7  C   UNL     1       9.349   0.449  24.200  0.00  0.00    +0.131 A 
ATOM      8  C   UNL     1       9.586  -0.092  22.933  0.00  0.00    +0.092 A 
ATOM      9  O   UNL     1       7.622  -2.301  25.831  0.00  0.00    -0.451 OA
ATOM     10  C   UNL     1       9.115  -1.377  22.605  0.00  0.00    +0.135 A 
ATOM     11  C   UNL     1       6.998  -3.508  25.574  0.00  0.00    +0.181 A 
ENDROOT
BRANCH  11  12
ATOM     12  C   UNL     1       6.389  -4.029  26.820  0.00  0.00    +0.025 A 
ATOM     13  C   UNL     1       5.289  -3.384  27.405  0.00  0.00    +0.015 A 
ATOM     14  C   UNL     1       4.761  -3.826  28.621  0.00  0.00    +0.050 A 
ATOM     15  C   UNL     1       5.279  -4.966  29.209  0.00  0.00    +0.158 A 
ATOM     16  C   UNL     1       6.307  -5.675  28.595  0.00  0.00    +0.159 A 
ATOM     17  C   UNL     1       6.875  -5.211  27.412  0.00  0.00    +0.060 A 
BRANCH  16  18
ATOM     18  O   UNL     1       6.730  -6.826  29.199  0.00  0.00    -0.503 OA
ATOM     19  H   UNL     1       7.322  -7.296  28.586  0.00  0.00    +0.292 HD
ENDBRANCH  16  18
BRANCH  15  20
ATOM     20  O   UNL     1       4.765  -5.389  30.399  0.00  0.00    -0.503 OA
ATOM     21  H   UNL     1       4.538  -4.567  30.879  0.00  0.00    +0.292 HD
ENDBRANCH  15  20
ENDBRANCH  11  12
BRANCH  10  22
ATOM     22  O   UNL     1       9.329  -1.858  21.345  0.00  0.00    -0.506 OA
ATOM     23  H   UNL     1       9.710  -2.751  21.380  0.00  0.00    +0.292 HD
ENDBRANCH  10  22
BRANCH   7  24
ATOM     24  O   UNL     1       9.769   1.745  24.404  0.00  0.00    -0.461 OA
BRANCH  24  25
ATOM     25  C   UNL     1       9.659   2.634  23.270  0.00  0.00    +0.339 C 
ATOM     26  O   UNL     1      10.855   3.385  23.048  0.00  0.00    -0.331 OA
ATOM     27  C   UNL     1      11.115   4.454  23.975  0.00  0.00    +0.179 C 
ATOM     28  C   UNL     1       9.930   5.438  24.069  0.00  0.00    +0.177 C 
ATOM     29  C   UNL     1       8.634   4.686  24.394  0.00  0.00    +0.180 C 
ATOM     30  C   UNL     1       8.425   3.553  23.384  0.00  0.00    +0.214 C 
BRANCH  29  31
ATOM     31  O   UNL     1       8.608   4.208  25.743  0.00  0.00    -0.386 OA
ATOM     32  H   UNL     1       9.227   4.723  26.290  0.00  0.00    +0.210 HD
ENDBRANCH  29  31
BRANCH  30  33
ATOM     33  O   UNL     1       7.233   2.822  23.685  0.00  0.00    -0.383 OA
ATOM     34  H   UNL     1       7.508   1.899  23.843  0.00  0.00    +0.210 HD
ENDBRANCH  30  33
BRANCH  28  35
ATOM     35  O   UNL     1       9.782   6.124  22.820  0.00  0.00    -0.386 OA
ATOM     36  H   UNL     1      10.562   5.940  22.266  0.00  0.00    +0.210 HD
ENDBRANCH  28  35
BRANCH  27  37
ATOM     37  C   UNL     1      12.375   5.192  23.481  0.00  0.00    +0.190 C 
BRANCH  37  38
ATOM     38  O   UNL     1      12.409   5.283  22.047  0.00  0.00    -0.392 OA
ATOM     39  H   UNL     1      11.565   5.654  21.743  0.00  0.00    +0.210 HD
ENDBRANCH  37  38
ENDBRANCH  27  37
ENDBRANCH  24  25
ENDBRANCH   7  24
BRANCH   1  40
ATOM     40  O   UNL     1       6.325  -5.268  23.965  0.00  0.00    -0.453 OA
BRANCH  40  43
ATOM     41  C   UNL     1       3.604  -7.120  25.476  0.00  0.00    +0.198 C 
ATOM     42  O   UNL     1       4.888  -6.855  24.891  0.00  0.00    -0.337 OA
ATOM     43  C   UNL     1       4.980  -5.516  24.385  0.00  0.00    +0.339 C 
ATOM     44  C   UNL     1       4.030  -5.414  23.174  0.00  0.00    +0.214 C 
ATOM     45  C   UNL     1       2.603  -5.725  23.662  0.00  0.00    +0.180 C 
ATOM     46  C   UNL     1       2.526  -7.077  24.400  0.00  0.00    +0.171 C 
BRANCH  46  47
ATOM     47  O   UNL     1       2.727  -8.174  23.499  0.00  0.00    -0.387 OA
ATOM     48  H   UNL     1       1.997  -8.805  23.655  0.00  0.00    +0.210 HD
ENDBRANCH  46  47
BRANCH  45  49
ATOM     49  O   UNL     1       1.695  -5.712  22.561  0.00  0.00    -0.386 OA
ATOM     50  H   UNL     1       0.818  -5.561  22.973  0.00  0.00    +0.210 HD
ENDBRANCH  45  49
BRANCH  44  51
ATOM     51  O   UNL     1       4.384  -6.373  22.154  0.00  0.00    -0.383 OA
ATOM     52  H   UNL     1       5.201  -6.041  21.731  0.00  0.00    +0.210 HD
ENDBRANCH  44  51
ENDBRANCH  40  43
ENDBRANCH   1  40
TORSDOF 16
ENDMDL
MODEL 2
REMARK VINA RESULT:      -7.1      2.214     10.424
REMARK  Name = 
REMARK  16 active torsions:
REMARK  status: ('A' for Active; 'I' for Inactive)
REMARK    1  A    between atoms: C_2  and  O_47
REMARK    2  A    between atoms: C_4  and  O_46
REMARK    3  A    between atoms: C_5  and  O_45
REMARK    4  A    between atoms: C_6  and  O_9
REMARK    5  A    between atoms: O_9  and  C_10
REMARK    6  A    between atoms: C_11  and  C_37
REMARK    7  A    between atoms: C_15  and  O_22
REMARK    8  A    between atoms: C_17  and  O_21
REMARK    9  A    between atoms: O_22  and  C_23
REMARK   10  A    between atoms: C_25  and  O_36
REMARK   11  A    between atoms: C_26  and  O_35
REMARK   12  A    between atoms: C_28  and  O_34
REMARK   13  A    between atoms: C_30  and  C_32
REMARK   14  A    between atoms: C_32  and  O_33
REMARK   15  A    between atoms: C_39  and  O_44
REMARK   16  A    between atoms: C_40  and  O_43
REMARK                            x       y       z     vdW  Elec       q    Type
REMARK                         _______ _______ _______ _____ _____    ______ ____
ROOT
ATOM      1  C   UNL     1       8.198   1.344  24.626  0.00  0.00    +0.214 A 
ATOM      2  C   UNL     1       8.910   0.033  24.387  0.00  0.00    +0.238 A 
ATOM      3  O   UNL     1      10.135  -0.005  24.386  0.00  0.00    -0.283 OA
ATOM      4  C   UNL     1       8.073  -1.178  24.173  0.00  0.00    +0.109 A 
ATOM      5  C   UNL     1       6.704  -0.987  24.084  0.00  0.00    +0.147 A 
ATOM      6  C   UNL     1       5.827  -2.071  23.947  0.00  0.00    +0.093 A 
ATOM      7  C   UNL     1       6.307  -3.379  23.885  0.00  0.00    +0.131 A 
ATOM      8  C   UNL     1       7.690  -3.577  23.927  0.00  0.00    +0.092 A 
ATOM      9  O   UNL     1       6.107   0.243  24.104  0.00  0.00    -0.451 OA
ATOM     10  C   UNL     1       8.565  -2.486  24.081  0.00  0.00    +0.135 A 
ATOM     11  C   UNL     1       6.860   1.366  24.396  0.00  0.00    +0.181 A 
ENDROOT
BRANCH  11  12
ATOM     12  C   UNL     1       5.990   2.565  24.386  0.00  0.00    +0.025 A 
ATOM     13  C   UNL     1       5.609   3.185  25.585  0.00  0.00    +0.015 A 
ATOM     14  C   UNL     1       4.727   4.268  25.584  0.00  0.00    +0.050 A 
ATOM     15  C   UNL     1       4.293   4.787  24.377  0.00  0.00    +0.158 A 
ATOM     16  C   UNL     1       4.737   4.247  23.174  0.00  0.00    +0.159 A 
ATOM     17  C   UNL     1       5.572   3.133  23.167  0.00  0.00    +0.060 A 
BRANCH  16  18
ATOM     18  O   UNL     1       4.318   4.846  22.019  0.00  0.00    -0.503 OA
ATOM     19  H   UNL     1       5.065   5.341  21.640  0.00  0.00    +0.292 HD
ENDBRANCH  16  18
BRANCH  15  20
ATOM     20  O   UNL     1       3.427   5.840  24.382  0.00  0.00    -0.503 OA
ATOM     21  H   UNL     1       3.562   6.271  25.250  0.00  0.00    +0.292 HD
ENDBRANCH  15  20
ENDBRANCH  11  12
BRANCH  10  22
ATOM     22  O   UNL     1       9.908  -2.720  24.158  0.00  0.00    -0.506 OA
ATOM     23  H   UNL     1      10.091  -3.471  24.747  0.00  0.00    +0.292 HD
ENDBRANCH  10  22
BRANCH   7  24
ATOM     24  O   UNL     1       5.524  -4.511  23.821  0.00  0.00    -0.461 OA
BRANCH  24  25
ATOM     25  C   UNL     1       4.416  -4.570  24.745  0.00  0.00    +0.339 C 
ATOM     26  O   UNL     1       4.838  -4.823  26.088  0.00  0.00    -0.331 OA
ATOM     27  C   UNL     1       5.269  -6.166  26.376  0.00  0.00    +0.179 C 
ATOM     28  C   UNL     1       4.197  -7.209  25.995  0.00  0.00    +0.177 C 
ATOM     29  C   UNL     1       3.774  -7.033  24.532  0.00  0.00    +0.180 C 
ATOM     30  C   UNL     1       3.346  -5.583  24.287  0.00  0.00    +0.214 C 
BRANCH  29  31
ATOM     31  O   UNL     1       4.795  -7.449  23.619  0.00  0.00    -0.386 OA
ATOM     32  H   UNL     1       5.633  -7.003  23.832  0.00  0.00    +0.210 HD
ENDBRANCH  29  31
BRANCH  30  33
ATOM     33  O   UNL     1       2.971  -5.391  22.919  0.00  0.00    -0.383 OA
ATOM     34  H   UNL     1       2.043  -5.682  22.845  0.00  0.00    +0.210 HD
ENDBRANCH  30  33
BRANCH  28  35
ATOM     35  O   UNL     1       3.054  -7.048  26.843  0.00  0.00    -0.386 OA
ATOM     36  H   UNL     1       2.836  -6.100  26.900  0.00  0.00    +0.210 HD
ENDBRANCH  28  35
BRANCH  27  37
ATOM     37  C   UNL     1       5.561  -6.238  27.887  0.00  0.00    +0.190 C 
BRANCH  37  38
ATOM     38  O   UNL     1       5.493  -7.588  28.377  0.00  0.00    -0.392 OA
ATOM     39  H   UNL     1       6.374  -7.842  28.696  0.00  0.00    +0.210 HD
ENDBRANCH  37  38
ENDBRANCH  27  37
ENDBRANCH  24  25
ENDBRANCH   7  24
BRANCH   1  40
ATOM     40  O   UNL     1       9.034   2.381  25.010  0.00  0.00    -0.453 OA
BRANCH  40  43
ATOM     41  C   UNL     1      11.380   4.435  23.167  0.00  0.00    +0.198 C 
ATOM     42  O   UNL     1      10.866   3.572  24.193  0.00  0.00    -0.337 OA
ATOM     43  C   UNL     1       9.452   3.369  24.064  0.00  0.00    +0.339 C 
ATOM     44  C   UNL     1       8.763   4.713  24.376  0.00  0.00    +0.214 C 
ATOM     45  C   UNL     1       9.268   5.754  23.359  0.00  0.00    +0.180 C 
ATOM     46  C   UNL     1      10.807   5.837  23.335  0.00  0.00    +0.171 C 
BRANCH  46  47
ATOM     47  O   UNL     1      11.318   6.404  24.549  0.00  0.00    -0.387 OA
ATOM     48  H   UNL     1      10.553   6.778  25.028  0.00  0.00    +0.210 HD
ENDBRANCH  46  47
BRANCH  45  49
ATOM     49  O   UNL     1       8.710   7.035  23.651  0.00  0.00    -0.386 OA
ATOM     50  H   UNL     1       7.831   7.020  23.218  0.00  0.00    +0.210 HD
ENDBRANCH  45  49
BRANCH  44  51
ATOM     51  O   UNL     1       9.094   5.172  25.704  0.00  0.00    -0.383 OA
ATOM     52  H   UNL     1      10.023   5.478  25.669  0.00  0.00    +0.210 HD
ENDBRANCH  44  51
ENDBRANCH  40  43
ENDBRANCH   1  40
TORSDOF 16
ENDMDL
MODEL 3
REMARK VINA RESULT:      -6.9      2.678      9.756
REMARK  Name = 
REMARK  16 active torsions:
REMARK  status: ('A' for Active; 'I' for Inactive)
REMARK    1  A    between atoms: C_2  and  O_47
REMARK    2  A    between atoms: C_4  and  O_46
REMARK    3  A    between atoms: C_5  and  O_45
REMARK    4  A    between atoms: C_6  and  O_9
REMARK    5  A    between atoms: O_9  and  C_10
REMARK    6  A    between atoms: C_11  and  C_37
REMARK    7  A    between atoms: C_15  and  O_22
REMARK    8  A    between atoms: C_17  and  O_21
REMARK    9  A    between atoms: O_22  and  C_23
REMARK   10  A    between atoms: C_25  and  O_36
REMARK   11  A    between atoms: C_26  and  O_35
REMARK   12  A    between atoms: C_28  and  O_34
REMARK   13  A    between atoms: C_30  and  C_32
REMARK   14  A    between atoms: C_32  and  O_33
REMARK   15  A    between atoms: C_39  and  O_44
REMARK   16  A    between atoms: C_40  and  O_43
REMARK                            x       y       z     vdW  Elec       q    Type
REMARK                         _______ _______ _______ _____ _____    ______ ____
ROOT
ATOM      1  C   UNL     1       7.845   1.226  25.103  0.00  0.00    +0.214 A 
ATOM      2  C   UNL     1       8.062   0.330  23.905  0.00  0.00    +0.238 A 
ATOM      3  O   UNL     1       8.890   0.639  23.056  0.00  0.00    -0.283 OA
ATOM      4  C   UNL     1       7.254  -0.916  23.819  0.00  0.00    +0.109 A 
ATOM      5  C   UNL     1       6.274  -1.096  24.781  0.00  0.00    +0.147 A 
ATOM      6  C   UNL     1       5.504  -2.266  24.822  0.00  0.00    +0.093 A 
ATOM      7  C   UNL     1       5.694  -3.283  23.888  0.00  0.00    +0.131 A 
ATOM      8  C   UNL     1       6.649  -3.089  22.886  0.00  0.00    +0.092 A 
ATOM      9  O   UNL     1       5.968  -0.167  25.736  0.00  0.00    -0.451 OA
ATOM     10  C   UNL     1       7.431  -1.919  22.859  0.00  0.00    +0.135 A 
ATOM     11  C   UNL     1       6.770   0.951  25.887  0.00  0.00    +0.181 A 
ENDROOT
BRANCH  11  12
ATOM     12  C   UNL     1       6.256   1.787  26.996  0.00  0.00    +0.025 A 
ATOM     13  C   UNL     1       4.903   2.154  27.051  0.00  0.00    +0.015 A 
ATOM     14  C   UNL     1       4.430   3.006  28.051  0.00  0.00    +0.050 A 
ATOM     15  C   UNL     1       5.293   3.423  29.049  0.00  0.00    +0.158 A 
ATOM     16  C   UNL     1       6.616   2.992  29.066  0.00  0.00    +0.159 A 
ATOM     17  C   UNL     1       7.109   2.187  28.043  0.00  0.00    +0.060 A 
BRANCH  16  18
ATOM     18  O   UNL     1       7.398   3.392  30.114  0.00  0.00    -0.503 OA
ATOM     19  H   UNL     1       6.845   3.897  30.736  0.00  0.00    +0.292 HD
ENDBRANCH  16  18
BRANCH  15  20
ATOM     20  O   UNL     1       4.828   4.260  30.020  0.00  0.00    -0.503 OA
ATOM     21  H   UNL     1       5.436   4.129  30.775  0.00  0.00    +0.292 HD
ENDBRANCH  15  20
ENDBRANCH  11  12
BRANCH  10  22
ATOM     22  O   UNL     1       8.382  -1.781  21.889  0.00  0.00    -0.506 OA
ATOM     23  H   UNL     1       8.816  -2.632  21.712  0.00  0.00    +0.292 HD
ENDBRANCH  10  22
BRANCH   7  24
ATOM     24  O   UNL     1       5.039  -4.495  23.887  0.00  0.00    -0.461 OA
BRANCH  24  25
ATOM     25  C   UNL     1       3.951  -4.629  24.828  0.00  0.00    +0.339 C 
ATOM     26  O   UNL     1       4.410  -4.861  26.163  0.00  0.00    -0.331 OA
ATOM     27  C   UNL     1       4.929  -6.175  26.436  0.00  0.00    +0.179 C 
ATOM     28  C   UNL     1       3.920  -7.283  26.066  0.00  0.00    +0.177 C 
ATOM     29  C   UNL     1       3.463  -7.127  24.611  0.00  0.00    +0.180 C 
ATOM     30  C   UNL     1       2.941  -5.706  24.381  0.00  0.00    +0.214 C 
BRANCH  29  31
ATOM     31  O   UNL     1       4.495  -7.473  23.680  0.00  0.00    -0.386 OA
ATOM     32  H   UNL     1       4.655  -6.731  23.071  0.00  0.00    +0.210 HD
ENDBRANCH  29  31
BRANCH  30  33
ATOM     33  O   UNL     1       2.533  -5.532  23.021  0.00  0.00    -0.383 OA
ATOM     34  H   UNL     1       1.824  -6.182  22.860  0.00  0.00    +0.210 HD
ENDBRANCH  30  33
BRANCH  28  35
ATOM     35  O   UNL     1       2.783  -7.198  26.933  0.00  0.00    -0.386 OA
ATOM     36  H   UNL     1       2.027  -7.638  26.504  0.00  0.00    +0.210 HD
ENDBRANCH  28  35
BRANCH  27  37
ATOM     37  C   UNL     1       5.249  -6.236  27.943  0.00  0.00    +0.190 C 
BRANCH  37  38
ATOM     38  O   UNL     1       5.399  -7.591  28.399  0.00  0.00    -0.392 OA
ATOM     39  H   UNL     1       5.799  -8.112  27.685  0.00  0.00    +0.210 HD
ENDBRANCH  37  38
ENDBRANCH  27  37
ENDBRANCH  24  25
ENDBRANCH   7  24
BRANCH   1  40
ATOM     40  O   UNL     1       8.764   2.258  25.214  0.00  0.00    -0.453 OA
BRANCH  40  43
ATOM     41  C   UNL     1       6.643   4.914  23.967  0.00  0.00    +0.198 C 
ATOM     42  O   UNL     1       7.162   3.591  24.167  0.00  0.00    -0.337 OA
ATOM     43  C   UNL     1       8.388   3.604  24.913  0.00  0.00    +0.339 C 
ATOM     44  C   UNL     1       9.463   4.258  24.021  0.00  0.00    +0.214 C 
ATOM     45  C   UNL     1       9.001   5.689  23.689  0.00  0.00    +0.180 C 
ATOM     46  C   UNL     1       7.587   5.712  23.075  0.00  0.00    +0.171 C 
BRANCH  46  47
ATOM     47  O   UNL     1       7.581   5.136  21.762  0.00  0.00    -0.387 OA
ATOM     48  H   UNL     1       7.466   5.875  21.131  0.00  0.00    +0.210 HD
ENDBRANCH  46  47
BRANCH  45  49
ATOM     49  O   UNL     1       9.932   6.313  22.806  0.00  0.00    -0.386 OA
ATOM     50  H   UNL     1       9.600   6.094  21.910  0.00  0.00    +0.210 HD
ENDBRANCH  45  49
BRANCH  44  51
ATOM     51  O   UNL     1       9.624   3.531  22.783  0.00  0.00    -0.383 OA
ATOM     52  H   UNL     1       8.981   3.910  22.152  0.00  0.00    +0.210 HD
ENDBRANCH  44  51
ENDBRANCH  40  43
ENDBRANCH   1  40
TORSDOF 16
ENDMDL
MODEL 4
REMARK VINA RESULT:      -6.9      2.291      4.016
REMARK  Name = 
REMARK  16 active torsions:
REMARK  status: ('A' for Active; 'I' for Inactive)
REMARK    1  A    between atoms: C_2  and  O_47
REMARK    2  A    between atoms: C_4  and  O_46
REMARK    3  A    between atoms: C_5  and  O_45
REMARK    4  A    between atoms: C_6  and  O_9
REMARK    5  A    between atoms: O_9  and  C_10
REMARK    6  A    between atoms: C_11  and  C_37
REMARK    7  A    between atoms: C_15  and  O_22
REMARK    8  A    between atoms: C_17  and  O_21
REMARK    9  A    between atoms: O_22  and  C_23
REMARK   10  A    between atoms: C_25  and  O_36
REMARK   11  A    between atoms: C_26  and  O_35
REMARK   12  A    between atoms: C_28  and  O_34
REMARK   13  A    between atoms: C_30  and  C_32
REMARK   14  A    between atoms: C_32  and  O_33
REMARK   15  A    between atoms: C_39  and  O_44
REMARK   16  A    between atoms: C_40  and  O_43
REMARK                            x       y       z     vdW  Elec       q    Type
REMARK                         _______ _______ _______ _____ _____    ______ ____
ROOT
ATOM      1  C   UNL     1       8.434  -2.207  24.769  0.00  0.00    +0.214 A 
ATOM      2  C   UNL     1       9.227  -1.043  24.223  0.00  0.00    +0.238 A 
ATOM      3  O   UNL     1      10.138  -1.245  23.428  0.00  0.00    -0.283 OA
ATOM      4  C   UNL     1       8.849   0.323  24.674  0.00  0.00    +0.109 A 
ATOM      5  C   UNL     1       7.878   0.412  25.658  0.00  0.00    +0.147 A 
ATOM      6  C   UNL     1       7.409   1.655  26.104  0.00  0.00    +0.093 A 
ATOM      7  C   UNL     1       7.912   2.843  25.577  0.00  0.00    +0.131 A 
ATOM      8  C   UNL     1       8.925   2.762  24.617  0.00  0.00    +0.092 A 
ATOM      9  O   UNL     1       7.323  -0.673  26.276  0.00  0.00    -0.451 OA
ATOM     10  C   UNL     1       9.381   1.512  24.161  0.00  0.00    +0.135 A 
ATOM     11  C   UNL     1       7.594  -1.945  25.804  0.00  0.00    +0.181 A 
ENDROOT
BRANCH  11  12
ATOM     12  C   UNL     1       6.859  -2.945  26.613  0.00  0.00    +0.025 A 
ATOM     13  C   UNL     1       5.525  -2.725  26.987  0.00  0.00    +0.015 A 
ATOM     14  C   UNL     1       4.853  -3.627  27.814  0.00  0.00    +0.050 A 
ATOM     15  C   UNL     1       5.488  -4.795  28.198  0.00  0.00    +0.158 A 
ATOM     16  C   UNL     1       6.777  -5.077  27.759  0.00  0.00    +0.159 A 
ATOM     17  C   UNL     1       7.473  -4.158  26.979  0.00  0.00    +0.060 A 
BRANCH  16  18
ATOM     18  O   UNL     1       7.323  -6.276  28.125  0.00  0.00    -0.503 OA
ATOM     19  H   UNL     1       7.851  -6.140  28.932  0.00  0.00    +0.292 HD
ENDBRANCH  16  18
BRANCH  15  20
ATOM     20  O   UNL     1       4.830  -5.670  29.012  0.00  0.00    -0.503 OA
ATOM     21  H   UNL     1       3.924  -5.719  28.645  0.00  0.00    +0.292 HD
ENDBRANCH  15  20
ENDBRANCH  11  12
BRANCH  10  22
ATOM     22  O   UNL     1      10.344   1.470  23.193  0.00  0.00    -0.506 OA
ATOM     23  H   UNL     1      11.003   2.170  23.336  0.00  0.00    +0.292 HD
ENDBRANCH  10  22
BRANCH   7  24
ATOM     24  O   UNL     1       7.468   4.107  25.898  0.00  0.00    -0.461 OA
BRANCH  24  25
ATOM     25  C   UNL     1       6.035   4.288  25.929  0.00  0.00    +0.339 C 
ATOM     26  O   UNL     1       5.381   3.645  24.832  0.00  0.00    -0.331 OA
ATOM     27  C   UNL     1       5.525   4.277  23.548  0.00  0.00    +0.179 C 
ATOM     28  C   UNL     1       5.086   5.757  23.580  0.00  0.00    +0.177 C 
ATOM     29  C   UNL     1       5.828   6.511  24.688  0.00  0.00    +0.180 C 
ATOM     30  C   UNL     1       5.652   5.779  26.023  0.00  0.00    +0.214 C 
BRANCH  29  31
ATOM     31  O   UNL     1       7.210   6.717  24.372  0.00  0.00    -0.386 OA
ATOM     32  H   UNL     1       7.500   7.585  24.702  0.00  0.00    +0.210 HD
ENDBRANCH  29  31
BRANCH  30  33
ATOM     33  O   UNL     1       6.360   6.455  27.067  0.00  0.00    -0.383 OA
ATOM     34  H   UNL     1       7.273   6.577  26.747  0.00  0.00    +0.210 HD
ENDBRANCH  30  33
BRANCH  28  35
ATOM     35  O   UNL     1       3.675   5.828  23.819  0.00  0.00    -0.386 OA
ATOM     36  H   UNL     1       3.207   5.714  22.972  0.00  0.00    +0.210 HD
ENDBRANCH  28  35
BRANCH  27  37
ATOM     37  C   UNL     1       4.652   3.491  22.550  0.00  0.00    +0.190 C 
BRANCH  37  38
ATOM     38  O   UNL     1       3.643   2.719  23.222  0.00  0.00    -0.392 OA
ATOM     39  H   UNL     1       3.958   1.804  23.299  0.00  0.00    +0.210 HD
ENDBRANCH  37  38
ENDBRANCH  27  37
ENDBRANCH  24  25
ENDBRANCH   7  24
BRANCH   1  40
ATOM     40  O   UNL     1       8.712  -3.420  24.157  0.00  0.00    -0.453 OA
BRANCH  40  43
ATOM     41  C   UNL     1       6.142  -3.268  21.610  0.00  0.00    +0.198 C 
ATOM     42  O   UNL     1       6.816  -3.031  22.855  0.00  0.00    -0.337 OA
ATOM     43  C   UNL     1       8.009  -3.819  22.977  0.00  0.00    +0.339 C 
ATOM     44  C   UNL     1       7.576  -5.294  23.103  0.00  0.00    +0.214 C 
ATOM     45  C   UNL     1       6.792  -5.670  21.831  0.00  0.00    +0.180 C 
ATOM     46  C   UNL     1       5.622  -4.700  21.567  0.00  0.00    +0.171 C 
BRANCH  46  47
ATOM     47  O   UNL     1       4.590  -4.848  22.551  0.00  0.00    -0.387 OA
ATOM     48  H   UNL     1       4.437  -5.808  22.656  0.00  0.00    +0.210 HD
ENDBRANCH  46  47
BRANCH  45  49
ATOM     49  O   UNL     1       6.309  -7.009  21.931  0.00  0.00    -0.386 OA
ATOM     50  H   UNL     1       5.813  -7.150  21.097  0.00  0.00    +0.210 HD
ENDBRANCH  45  49
BRANCH  44  51
ATOM     51  O   UNL     1       6.716  -5.488  24.245  0.00  0.00    -0.383 OA
ATOM     52  H   UNL     1       7.300  -5.552  25.027  0.00  0.00    +0.210 HD
ENDBRANCH  44  51
ENDBRANCH  40  43
ENDBRANCH   1  40
TORSDOF 16
ENDMDL
MODEL 5
REMARK VINA RESULT:      -6.7      2.106      4.603
REMARK  Name = 
REMARK  16 active torsions:
REMARK  status: ('A' for Active; 'I' for Inactive)
REMARK    1  A    between atoms: C_2  and  O_47
REMARK    2  A    between atoms: C_4  and  O_46
REMARK    3  A    between atoms: C_5  and  O_45
REMARK    4  A    between atoms: C_6  and  O_9
REMARK    5  A    between atoms: O_9  and  C_10
REMARK    6  A    between atoms: C_11  and  C_37
REMARK    7  A    between atoms: C_15  and  O_22
REMARK    8  A    between atoms: C_17  and  O_21
REMARK    9  A    between atoms: O_22  and  C_23
REMARK   10  A    between atoms: C_25  and  O_36
REMARK   11  A    between atoms: C_26  and  O_35
REMARK   12  A    between atoms: C_28  and  O_34
REMARK   13  A    between atoms: C_30  and  C_32
REMARK   14  A    between atoms: C_32  and  O_33
REMARK   15  A    between atoms: C_39  and  O_44
REMARK   16  A    between atoms: C_40  and  O_43
REMARK                            x       y       z     vdW  Elec       q    Type
REMARK                         _______ _______ _______ _____ _____    ______ ____
ROOT
ATOM      1  C   UNL     1       6.404  -2.373  26.128  0.00  0.00    +0.214 A 
ATOM      2  C   UNL     1       6.168  -1.031  26.779  0.00  0.00    +0.238 A 
ATOM      3  O   UNL     1       6.082  -0.951  27.999  0.00  0.00    -0.283 OA
ATOM      4  C   UNL     1       6.064   0.159  25.891  0.00  0.00    +0.109 A 
ATOM      5  C   UNL     1       6.066  -0.075  24.526  0.00  0.00    +0.147 A 
ATOM      6  C   UNL     1       6.037   0.983  23.608  0.00  0.00    +0.093 A 
ATOM      7  C   UNL     1       5.994   2.307  24.042  0.00  0.00    +0.131 A 
ATOM      8  C   UNL     1       5.944   2.550  25.417  0.00  0.00    +0.092 A 
ATOM      9  O   UNL     1       6.079  -1.324  23.970  0.00  0.00    -0.451 OA
ATOM     10  C   UNL     1       5.991   1.484  26.335  0.00  0.00    +0.135 A 
ATOM     11  C   UNL     1       6.270  -2.432  24.777  0.00  0.00    +0.181 A 
ENDROOT
BRANCH  11  12
ATOM     12  C   UNL     1       6.274  -3.659  23.947  0.00  0.00    +0.025 A 
ATOM     13  C   UNL     1       7.478  -4.291  23.605  0.00  0.00    +0.015 A 
ATOM     14  C   UNL     1       7.492  -5.402  22.759  0.00  0.00    +0.050 A 
ATOM     15  C   UNL     1       6.291  -5.934  22.322  0.00  0.00    +0.158 A 
ATOM     16  C   UNL     1       5.082  -5.379  22.728  0.00  0.00    +0.159 A 
ATOM     17  C   UNL     1       5.062  -4.239  23.526  0.00  0.00    +0.060 A 
BRANCH  16  18
ATOM     18  O   UNL     1       3.933  -5.991  22.309  0.00  0.00    -0.503 OA
ATOM     19  H   UNL     1       4.064  -6.300  21.395  0.00  0.00    +0.292 HD
ENDBRANCH  16  18
BRANCH  15  20
ATOM     20  O   UNL     1       6.310  -7.014  21.491  0.00  0.00    -0.503 OA
ATOM     21  H   UNL     1       7.101  -7.524  21.760  0.00  0.00    +0.292 HD
ENDBRANCH  15  20
ENDBRANCH  11  12
BRANCH  10  22
ATOM     22  O   UNL     1       5.981   1.761  27.672  0.00  0.00    -0.506 OA
ATOM     23  H   UNL     1       5.178   2.250  27.914  0.00  0.00    +0.292 HD
ENDBRANCH  10  22
BRANCH   7  24
ATOM     24  O   UNL     1       6.032   3.414  23.222  0.00  0.00    -0.461 OA
BRANCH  24  25
ATOM     25  C   UNL     1       7.225   3.572  22.422  0.00  0.00    +0.339 C 
ATOM     26  O   UNL     1       8.301   2.747  22.880  0.00  0.00    -0.331 OA
ATOM     27  C   UNL     1       8.949   3.166  24.093  0.00  0.00    +0.179 C 
ATOM     28  C   UNL     1       9.452   4.623  24.006  0.00  0.00    +0.177 C 
ATOM     29  C   UNL     1       8.309   5.561  23.603  0.00  0.00    +0.180 C 
ATOM     30  C   UNL     1       7.649   5.051  22.317  0.00  0.00    +0.214 C 
BRANCH  29  31
ATOM     31  O   UNL     1       7.355   5.738  24.657  0.00  0.00    -0.386 OA
ATOM     32  H   UNL     1       7.726   5.418  25.498  0.00  0.00    +0.210 HD
ENDBRANCH  29  31
BRANCH  30  33
ATOM     33  O   UNL     1       6.561   5.899  21.937  0.00  0.00    -0.383 OA
ATOM     34  H   UNL     1       6.639   6.032  20.974  0.00  0.00    +0.210 HD
ENDBRANCH  30  33
BRANCH  28  35
ATOM     35  O   UNL     1      10.501   4.706  23.035  0.00  0.00    -0.386 OA
ATOM     36  H   UNL     1      10.986   3.861  23.022  0.00  0.00    +0.210 HD
ENDBRANCH  28  35
BRANCH  27  37
ATOM     37  C   UNL     1      10.137   2.212  24.329  0.00  0.00    +0.190 C 
BRANCH  37  38
ATOM     38  O   UNL     1       9.771   1.107  25.172  0.00  0.00    -0.392 OA
ATOM     39  H   UNL     1      10.438   0.409  25.069  0.00  0.00    +0.210 HD
ENDBRANCH  37  38
ENDBRANCH  27  37
ENDBRANCH  24  25
ENDBRANCH   7  24
BRANCH   1  40
ATOM     40  O   UNL     1       6.685  -3.396  27.021  0.00  0.00    -0.453 OA
BRANCH  40  43
ATOM     41  C   UNL     1       5.007  -5.435  29.500  0.00  0.00    +0.198 C 
ATOM     42  O   UNL     1       6.069  -4.752  28.817  0.00  0.00    -0.337 OA
ATOM     43  C   UNL     1       5.632  -4.194  27.569  0.00  0.00    +0.339 C 
ATOM     44  C   UNL     1       5.323  -5.371  26.621  0.00  0.00    +0.214 C 
ATOM     45  C   UNL     1       4.214  -6.223  27.266  0.00  0.00    +0.180 C 
ATOM     46  C   UNL     1       4.580  -6.660  28.698  0.00  0.00    +0.171 C 
BRANCH  46  47
ATOM     47  O   UNL     1       5.655  -7.609  28.695  0.00  0.00    -0.387 OA
ATOM     48  H   UNL     1       5.730  -7.946  27.781  0.00  0.00    +0.210 HD
ENDBRANCH  46  47
BRANCH  45  49
ATOM     49  O   UNL     1       3.941  -7.366  26.457  0.00  0.00    -0.386 OA
ATOM     50  H   UNL     1       4.566  -7.285  25.706  0.00  0.00    +0.210 HD
ENDBRANCH  45  49
BRANCH  44  51
ATOM     51  O   UNL     1       6.487  -6.203  26.430  0.00  0.00    -0.383 OA
ATOM     52  H   UNL     1       7.000  -6.161  27.262  0.00  0.00    +0.210 HD
ENDBRANCH  44  51
ENDBRANCH  40  43
ENDBRANCH   1  40
TORSDOF 16
ENDMDL
MODEL 6
REMARK VINA RESULT:      -6.7      2.725     10.099
REMARK  Name = 
REMARK  16 active torsions:
REMARK  status: ('A' for Active; 'I' for Inactive)
REMARK    1  A    between atoms: C_2  and  O_47
REMARK    2  A    between atoms: C_4  and  O_46
REMARK    3  A    between atoms: C_5  and  O_45
REMARK    4  A    between atoms: C_6  and  O_9
REMARK    5  A    between atoms: O_9  and  C_10
REMARK    6  A    between atoms: C_11  and  C_37
REMARK    7  A    between atoms: C_15  and  O_22
REMARK    8  A    between atoms: C_17  and  O_21
REMARK    9  A    between atoms: O_22  and  C_23
REMARK   10  A    between atoms: C_25  and  O_36
REMARK   11  A    between atoms: C_26  and  O_35
REMARK   12  A    between atoms: C_28  and  O_34
REMARK   13  A    between atoms: C_30  and  C_32
REMARK   14  A    between atoms: C_32  and  O_33
REMARK   15  A    between atoms: C_39  and  O_44
REMARK   16  A    between atoms: C_40  and  O_43
REMARK                            x       y       z     vdW  Elec       q    Type
REMARK                         _______ _______ _______ _____ _____    ______ ____
ROOT
ATOM      1  C   UNL     1       7.394   2.341  23.006  0.00  0.00    +0.214 A 
ATOM      2  C   UNL     1       8.494   1.307  22.973  0.00  0.00    +0.238 A 
ATOM      3  O   UNL     1       9.537   1.545  22.375  0.00  0.00    -0.283 OA
ATOM      4  C   UNL     1       8.261   0.028  23.696  0.00  0.00    +0.109 A 
ATOM      5  C   UNL     1       7.002  -0.166  24.238  0.00  0.00    +0.147 A 
ATOM      6  C   UNL     1       6.704  -1.310  24.991  0.00  0.00    +0.093 A 
ATOM      7  C   UNL     1       7.665  -2.295  25.210  0.00  0.00    +0.131 A 
ATOM      8  C   UNL     1       8.925  -2.129  24.627  0.00  0.00    +0.092 A 
ATOM      9  O   UNL     1       5.963   0.708  24.075  0.00  0.00    -0.451 OA
ATOM     10  C   UNL     1       9.224  -0.971  23.885  0.00  0.00    +0.135 A 
ATOM     11  C   UNL     1       6.189   1.941  23.489  0.00  0.00    +0.181 A 
ENDROOT
BRANCH  11  12
ATOM     12  C   UNL     1       4.926   2.714  23.452  0.00  0.00    +0.025 A 
ATOM     13  C   UNL     1       4.212   2.979  24.629  0.00  0.00    +0.015 A 
ATOM     14  C   UNL     1       2.982   3.640  24.590  0.00  0.00    +0.050 A 
ATOM     15  C   UNL     1       2.507   4.113  23.379  0.00  0.00    +0.158 A 
ATOM     16  C   UNL     1       3.247   3.944  22.213  0.00  0.00    +0.159 A 
ATOM     17  C   UNL     1       4.447   3.238  22.236  0.00  0.00    +0.060 A 
BRANCH  16  18
ATOM     18  O   UNL     1       2.748   4.488  21.063  0.00  0.00    -0.503 OA
ATOM     19  H   UNL     1       2.920   5.446  21.075  0.00  0.00    +0.292 HD
ENDBRANCH  16  18
BRANCH  15  20
ATOM     20  O   UNL     1       1.302   4.751  23.344  0.00  0.00    -0.503 OA
ATOM     21  H   UNL     1       0.869   4.513  24.189  0.00  0.00    +0.292 HD
ENDBRANCH  15  20
ENDBRANCH  11  12
BRANCH  10  22
ATOM     22  O   UNL     1      10.477  -0.824  23.364  0.00  0.00    -0.506 OA
ATOM     23  H   UNL     1      11.120  -0.633  24.067  0.00  0.00    +0.292 HD
ENDBRANCH  10  22
BRANCH   7  24
ATOM     24  O   UNL     1       7.491  -3.417  25.990  0.00  0.00    -0.461 OA
BRANCH  24  25
ATOM     25  C   UNL     1       7.398  -4.674  25.284  0.00  0.00    +0.339 C 
ATOM     26  O   UNL     1       6.475  -4.618  24.193  0.00  0.00    -0.331 OA
ATOM     27  C   UNL     1       5.079  -4.606  24.542  0.00  0.00    +0.179 C 
ATOM     28  C   UNL     1       4.700  -5.800  25.444  0.00  0.00    +0.177 C 
ATOM     29  C   UNL     1       5.609  -5.850  26.677  0.00  0.00    +0.180 C 
ATOM     30  C   UNL     1       7.077  -5.841  26.240  0.00  0.00    +0.214 C 
BRANCH  29  31
ATOM     31  O   UNL     1       5.323  -4.796  27.604  0.00  0.00    -0.386 OA
ATOM     32  H   UNL     1       4.399  -4.859  27.903  0.00  0.00    +0.210 HD
ENDBRANCH  29  31
BRANCH  30  33
ATOM     33  O   UNL     1       7.943  -5.862  27.378  0.00  0.00    -0.383 OA
ATOM     34  H   UNL     1       7.367  -5.820  28.164  0.00  0.00    +0.210 HD
ENDBRANCH  30  33
BRANCH  28  35
ATOM     35  O   UNL     1       4.836  -7.018  24.703  0.00  0.00    -0.386 OA
ATOM     36  H   UNL     1       5.056  -6.801  23.779  0.00  0.00    +0.210 HD
ENDBRANCH  28  35
BRANCH  27  37
ATOM     37  C   UNL     1       4.278  -4.665  23.226  0.00  0.00    +0.190 C 
BRANCH  37  38
ATOM     38  O   UNL     1       4.943  -5.467  22.235  0.00  0.00    -0.392 OA
ATOM     39  H   UNL     1       4.469  -6.309  22.155  0.00  0.00    +0.210 HD
ENDBRANCH  37  38
ENDBRANCH  27  37
ENDBRANCH  24  25
ENDBRANCH   7  24
BRANCH   1  40
ATOM     40  O   UNL     1       7.757   3.574  22.483  0.00  0.00    -0.453 OA
BRANCH  40  43
ATOM     41  C   UNL     1       8.038   7.106  23.233  0.00  0.00    +0.198 C 
ATOM     42  O   UNL     1       8.280   5.844  22.592  0.00  0.00    -0.337 OA
ATOM     43  C   UNL     1       7.608   4.766  23.258  0.00  0.00    +0.339 C 
ATOM     44  C   UNL     1       8.284   4.581  24.632  0.00  0.00    +0.214 C 
ATOM     45  C   UNL     1       8.134   5.898  25.418  0.00  0.00    +0.180 C 
ATOM     46  C   UNL     1       8.664   7.108  24.623  0.00  0.00    +0.171 C 
BRANCH  46  47
ATOM     47  O   UNL     1      10.091   7.058  24.488  0.00  0.00    -0.387 OA
ATOM     48  H   UNL     1      10.425   7.952  24.699  0.00  0.00    +0.210 HD
ENDBRANCH  46  47
BRANCH  45  49
ATOM     49  O   UNL     1       8.806   5.800  26.673  0.00  0.00    -0.386 OA
ATOM     50  H   UNL     1       8.271   6.355  27.278  0.00  0.00    +0.210 HD
ENDBRANCH  45  49
BRANCH  44  51
ATOM     51  O   UNL     1       9.691   4.294  24.485  0.00  0.00    -0.383 OA
ATOM     52  H   UNL     1       9.804   3.898  23.598  0.00  0.00    +0.210 HD
ENDBRANCH  44  51
ENDBRANCH  40  43
ENDBRANCH   1  40
TORSDOF 16
ENDMDL
MODEL 7
REMARK VINA RESULT:      -6.6      2.548      4.903
REMARK  Name = 
REMARK  16 active torsions:
REMARK  status: ('A' for Active; 'I' for Inactive)
REMARK    1  A    between atoms: C_2  and  O_47
REMARK    2  A    between atoms: C_4  and  O_46
REMARK    3  A    between atoms: C_5  and  O_45
REMARK    4  A    between atoms: C_6  and  O_9
REMARK    5  A    between atoms: O_9  and  C_10
REMARK    6  A    between atoms: C_11  and  C_37
REMARK    7  A    between atoms: C_15  and  O_22
REMARK    8  A    between atoms: C_17  and  O_21
REMARK    9  A    between atoms: O_22  and  C_23
REMARK   10  A    between atoms: C_25  and  O_36
REMARK   11  A    between atoms: C_26  and  O_35
REMARK   12  A    between atoms: C_28  and  O_34
REMARK   13  A    between atoms: C_30  and  C_32
REMARK   14  A    between atoms: C_32  and  O_33
REMARK   15  A    between atoms: C_39  and  O_44
REMARK   16  A    between atoms: C_40  and  O_43
REMARK                            x       y       z     vdW  Elec       q    Type
REMARK                         _______ _______ _______ _____ _____    ______ ____
ROOT
ATOM      1  C   UNL     1       3.925  -2.692  26.382  0.00  0.00    +0.214 A 
ATOM      2  C   UNL     1       3.584  -1.386  27.061  0.00  0.00    +0.238 A 
ATOM      3  O   UNL     1       2.642  -1.332  27.843  0.00  0.00    -0.283 OA
ATOM      4  C   UNL     1       4.435  -0.205  26.753  0.00  0.00    +0.109 A 
ATOM      5  C   UNL     1       5.398  -0.365  25.770  0.00  0.00    +0.147 A 
ATOM      6  C   UNL     1       6.289   0.668  25.452  0.00  0.00    +0.093 A 
ATOM      7  C   UNL     1       6.229   1.895  26.111  0.00  0.00    +0.131 A 
ATOM      8  C   UNL     1       5.230   2.080  27.071  0.00  0.00    +0.092 A 
ATOM      9  O   UNL     1       5.546  -1.506  25.031  0.00  0.00    -0.451 OA
ATOM     10  C   UNL     1       4.348   1.034  27.398  0.00  0.00    +0.135 A 
ATOM     11  C   UNL     1       4.828  -2.640  25.369  0.00  0.00    +0.181 A 
ENDROOT
BRANCH  11  12
ATOM     12  C   UNL     1       5.179  -3.745  24.448  0.00  0.00    +0.025 A 
ATOM     13  C   UNL     1       6.520  -4.049  24.169  0.00  0.00    +0.015 A 
ATOM     14  C   UNL     1       6.854  -5.039  23.242  0.00  0.00    +0.050 A 
ATOM     15  C   UNL     1       5.846  -5.784  22.655  0.00  0.00    +0.158 A 
ATOM     16  C   UNL     1       4.515  -5.563  22.991  0.00  0.00    +0.159 A 
ATOM     17  C   UNL     1       4.170  -4.542  23.873  0.00  0.00    +0.060 A 
BRANCH  16  18
ATOM     18  O   UNL     1       3.575  -6.375  22.420  0.00  0.00    -0.503 OA
ATOM     19  H   UNL     1       2.722  -6.217  22.863  0.00  0.00    +0.292 HD
ENDBRANCH  16  18
BRANCH  15  20
ATOM     20  O   UNL     1       6.178  -6.744  21.745  0.00  0.00    -0.503 OA
ATOM     21  H   UNL     1       7.078  -6.506  21.447  0.00  0.00    +0.292 HD
ENDBRANCH  15  20
ENDBRANCH  11  12
BRANCH  10  22
ATOM     22  O   UNL     1       3.411   1.238  28.369  0.00  0.00    -0.506 OA
ATOM     23  H   UNL     1       2.590   1.588  27.985  0.00  0.00    +0.292 HD
ENDBRANCH  10  22
BRANCH   7  24
ATOM     24  O   UNL     1       7.102   2.944  25.920  0.00  0.00    -0.461 OA
BRANCH  24  25
ATOM     25  C   UNL     1       7.140   3.504  24.589  0.00  0.00    +0.339 C 
ATOM     26  O   UNL     1       8.263   3.040  23.834  0.00  0.00    -0.331 OA
ATOM     27  C   UNL     1       9.542   3.587  24.200  0.00  0.00    +0.179 C 
ATOM     28  C   UNL     1       9.539   5.131  24.173  0.00  0.00    +0.177 C 
ATOM     29  C   UNL     1       8.401   5.678  25.042  0.00  0.00    +0.180 C 
ATOM     30  C   UNL     1       7.072   5.045  24.617  0.00  0.00    +0.214 C 
BRANCH  29  31
ATOM     31  O   UNL     1       8.652   5.500  26.441  0.00  0.00    -0.386 OA
ATOM     32  H   UNL     1       8.670   6.364  26.888  0.00  0.00    +0.210 HD
ENDBRANCH  29  31
BRANCH  30  33
ATOM     33  O   UNL     1       6.000   5.524  25.433  0.00  0.00    -0.383 OA
ATOM     34  H   UNL     1       6.034   5.011  26.262  0.00  0.00    +0.210 HD
ENDBRANCH  30  33
BRANCH  28  35
ATOM     35  O   UNL     1       9.368   5.583  22.825  0.00  0.00    -0.386 OA
ATOM     36  H   UNL     1       9.795   6.453  22.729  0.00  0.00    +0.210 HD
ENDBRANCH  28  35
BRANCH  27  37
ATOM     37  C   UNL     1      10.576   3.046  23.192  0.00  0.00    +0.190 C 
BRANCH  37  38
ATOM     38  O   UNL     1       9.957   2.651  21.957  0.00  0.00    -0.392 OA
ATOM     39  H   UNL     1      10.244   3.263  21.260  0.00  0.00    +0.210 HD
ENDBRANCH  37  38
ENDBRANCH  27  37
ENDBRANCH  24  25
ENDBRANCH   7  24
BRANCH   1  40
ATOM     40  O   UNL     1       3.218  -3.784  26.865  0.00  0.00    -0.453 OA
BRANCH  40  43
ATOM     41  C   UNL     1       5.649  -5.273  29.098  0.00  0.00    +0.198 C 
ATOM     42  O   UNL     1       5.094  -4.701  27.904  0.00  0.00    -0.337 OA
ATOM     43  C   UNL     1       3.678  -4.498  28.015  0.00  0.00    +0.339 C 
ATOM     44  C   UNL     1       3.016  -5.890  28.063  0.00  0.00    +0.214 C 
ATOM     45  C   UNL     1       3.567  -6.638  29.292  0.00  0.00    +0.180 C 
ATOM     46  C   UNL     1       5.108  -6.683  29.297  0.00  0.00    +0.171 C 
BRANCH  46  47
ATOM     47  O   UNL     1       5.608  -7.523  28.248  0.00  0.00    -0.387 OA
ATOM     48  H   UNL     1       6.574  -7.380  28.210  0.00  0.00    +0.210 HD
ENDBRANCH  46  47
BRANCH  45  49
ATOM     49  O   UNL     1       3.034  -7.961  29.340  0.00  0.00    -0.386 OA
ATOM     50  H   UNL     1       2.609  -8.082  28.465  0.00  0.00    +0.210 HD
ENDBRANCH  45  49
BRANCH  44  51
ATOM     51  O   UNL     1       3.332  -6.657  26.881  0.00  0.00    -0.383 OA
ATOM     52  H   UNL     1       3.070  -7.580  27.070  0.00  0.00    +0.210 HD
ENDBRANCH  44  51
ENDBRANCH  40  43
ENDBRANCH   1  40
TORSDOF 16
ENDMDL
MODEL 8
REMARK VINA RESULT:      -6.5      2.371      4.527
REMARK  Name = 
REMARK  16 active torsions:
REMARK  status: ('A' for Active; 'I' for Inactive)
REMARK    1  A    between atoms: C_2  and  O_47
REMARK    2  A    between atoms: C_4  and  O_46
REMARK    3  A    between atoms: C_5  and  O_45
REMARK    4  A    between atoms: C_6  and  O_9
REMARK    5  A    between atoms: O_9  and  C_10
REMARK    6  A    between atoms: C_11  and  C_37
REMARK    7  A    between atoms: C_15  and  O_22
REMARK    8  A    between atoms: C_17  and  O_21
REMARK    9  A    between atoms: O_22  and  C_23
REMARK   10  A    between atoms: C_25  and  O_36
REMARK   11  A    between atoms: C_26  and  O_35
REMARK   12  A    between atoms: C_28  and  O_34
REMARK   13  A    between atoms: C_30  and  C_32
REMARK   14  A    between atoms: C_32  and  O_33
REMARK   15  A    between atoms: C_39  and  O_44
REMARK   16  A    between atoms: C_40  and  O_43
REMARK                            x       y       z     vdW  Elec       q    Type
REMARK                         _______ _______ _______ _____ _____    ______ ____
ROOT
ATOM      1  C   UNL     1       5.641  -2.915  26.611  0.00  0.00    +0.214 A 
ATOM      2  C   UNL     1       5.278  -1.772  27.531  0.00  0.00    +0.238 A 
ATOM      3  O   UNL     1       4.578  -1.980  28.515  0.00  0.00    -0.283 OA
ATOM      4  C   UNL     1       5.812  -0.424  27.201  0.00  0.00    +0.109 A 
ATOM      5  C   UNL     1       6.497  -0.296  26.004  0.00  0.00    +0.147 A 
ATOM      6  C   UNL     1       7.091   0.918  25.634  0.00  0.00    +0.093 A 
ATOM      7  C   UNL     1       7.003   2.040  26.456  0.00  0.00    +0.131 A 
ATOM      8  C   UNL     1       6.274   1.932  27.644  0.00  0.00    +0.092 A 
ATOM      9  O   UNL     1       6.633  -1.309  25.096  0.00  0.00    -0.451 OA
ATOM     10  C   UNL     1       5.693   0.706  28.018  0.00  0.00    +0.135 A 
ATOM     11  C   UNL     1       6.227  -2.589  25.430  0.00  0.00    +0.181 A 
ENDROOT
BRANCH  11  12
ATOM     12  C   UNL     1       6.502  -3.509  24.303  0.00  0.00    +0.025 A 
ATOM     13  C   UNL     1       7.304  -4.646  24.484  0.00  0.00    +0.015 A 
ATOM     14  C   UNL     1       7.630  -5.474  23.407  0.00  0.00    +0.050 A 
ATOM     15  C   UNL     1       7.083  -5.213  22.163  0.00  0.00    +0.158 A 
ATOM     16  C   UNL     1       6.208  -4.146  21.984  0.00  0.00    +0.159 A 
ATOM     17  C   UNL     1       5.922  -3.284  23.039  0.00  0.00    +0.060 A 
BRANCH  16  18
ATOM     18  O   UNL     1       5.656  -3.982  20.744  0.00  0.00    -0.503 OA
ATOM     19  H   UNL     1       5.017  -3.249  20.786  0.00  0.00    +0.292 HD
ENDBRANCH  16  18
BRANCH  15  20
ATOM     20  O   UNL     1       7.410  -6.020  21.114  0.00  0.00    -0.503 OA
ATOM     21  H   UNL     1       7.416  -5.427  20.335  0.00  0.00    +0.292 HD
ENDBRANCH  15  20
ENDBRANCH  11  12
BRANCH  10  22
ATOM     22  O   UNL     1       5.022   0.627  29.205  0.00  0.00    -0.506 OA
ATOM     23  H   UNL     1       5.297   1.342  29.802  0.00  0.00    +0.292 HD
ENDBRANCH  10  22
BRANCH   7  24
ATOM     24  O   UNL     1       7.610   3.253  26.214  0.00  0.00    -0.461 OA
BRANCH  24  25
ATOM     25  C   UNL     1       7.507   3.757  24.864  0.00  0.00    +0.339 C 
ATOM     26  O   UNL     1       8.618   3.370  24.052  0.00  0.00    -0.331 OA
ATOM     27  C   UNL     1       9.859   4.051  24.308  0.00  0.00    +0.179 C 
ATOM     28  C   UNL     1       9.703   5.585  24.226  0.00  0.00    +0.177 C 
ATOM     29  C   UNL     1       8.576   6.058  25.151  0.00  0.00    +0.180 C 
ATOM     30  C   UNL     1       7.291   5.284  24.841  0.00  0.00    +0.214 C 
BRANCH  29  31
ATOM     31  O   UNL     1       8.934   5.964  26.534  0.00  0.00    -0.386 OA
ATOM     32  H   UNL     1       8.718   6.796  26.991  0.00  0.00    +0.210 HD
ENDBRANCH  29  31
BRANCH  30  33
ATOM     33  O   UNL     1       6.232   5.693  25.711  0.00  0.00    -0.383 OA
ATOM     34  H   UNL     1       5.934   4.891  26.180  0.00  0.00    +0.210 HD
ENDBRANCH  30  33
BRANCH  28  35
ATOM     35  O   UNL     1       9.401   5.961  22.878  0.00  0.00    -0.386 OA
ATOM     36  H   UNL     1       8.644   6.574  22.884  0.00  0.00    +0.210 HD
ENDBRANCH  28  35
BRANCH  27  37
ATOM     37  C   UNL     1      10.873   3.569  23.252  0.00  0.00    +0.190 C 
BRANCH  37  38
ATOM     38  O   UNL     1      10.273   2.655  22.318  0.00  0.00    -0.392 OA
ATOM     39  H   UNL     1       9.780   1.985  22.819  0.00  0.00    +0.210 HD
ENDBRANCH  37  38
ENDBRANCH  27  37
ENDBRANCH  24  25
ENDBRANCH   7  24
BRANCH   1  40
ATOM     40  O   UNL     1       5.275  -4.165  27.087  0.00  0.00    -0.453 OA
BRANCH  40  43
ATOM     41  C   UNL     1       1.891  -5.446  27.244  0.00  0.00    +0.198 C 
ATOM     42  O   UNL     1       3.162  -4.949  27.689  0.00  0.00    -0.337 OA
ATOM     43  C   UNL     1       4.093  -4.810  26.606  0.00  0.00    +0.339 C 
ATOM     44  C   UNL     1       4.439  -6.229  26.111  0.00  0.00    +0.214 C 
ATOM     45  C   UNL     1       3.135  -6.900  25.639  0.00  0.00    +0.180 C 
ATOM     46  C   UNL     1       2.044  -6.872  26.728  0.00  0.00    +0.171 C 
BRANCH  46  47
ATOM     47  O   UNL     1       2.383  -7.728  27.827  0.00  0.00    -0.387 OA
ATOM     48  H   UNL     1       3.290  -7.489  28.100  0.00  0.00    +0.210 HD
ENDBRANCH  46  47
BRANCH  45  49
ATOM     49  O   UNL     1       3.394  -8.244  25.235  0.00  0.00    -0.386 OA
ATOM     50  H   UNL     1       4.175  -8.174  24.647  0.00  0.00    +0.210 HD
ENDBRANCH  45  49
BRANCH  44  51
ATOM     51  O   UNL     1       5.005  -7.027  27.173  0.00  0.00    -0.383 OA
ATOM     52  H   UNL     1       5.712  -6.487  27.580  0.00  0.00    +0.210 HD
ENDBRANCH  44  51
ENDBRANCH  40  43
ENDBRANCH   1  40
TORSDOF 16
ENDMDL
MODEL 9
REMARK VINA RESULT:      -6.4      3.161     10.237
REMARK  Name = 
REMARK  16 active torsions:
REMARK  status: ('A' for Active; 'I' for Inactive)
REMARK    1  A    between atoms: C_2  and  O_47
REMARK    2  A    between atoms: C_4  and  O_46
REMARK    3  A    between atoms: C_5  and  O_45
REMARK    4  A    between atoms: C_6  and  O_9
REMARK    5  A    between atoms: O_9  and  C_10
REMARK    6  A    between atoms: C_11  and  C_37
REMARK    7  A    between atoms: C_15  and  O_22
REMARK    8  A    between atoms: C_17  and  O_21
REMARK    9  A    between atoms: O_22  and  C_23
REMARK   10  A    between atoms: C_25  and  O_36
REMARK   11  A    between atoms: C_26  and  O_35
REMARK   12  A    between atoms: C_28  and  O_34
REMARK   13  A    between atoms: C_30  and  C_32
REMARK   14  A    between atoms: C_32  and  O_33
REMARK   15  A    between atoms: C_39  and  O_44
REMARK   16  A    between atoms: C_40  and  O_43
REMARK                            x       y       z     vdW  Elec       q    Type
REMARK                         _______ _______ _______ _____ _____    ______ ____
ROOT
ATOM      1  C   UNL     1       5.487   1.958  25.650  0.00  0.00    +0.214 A 
ATOM      2  C   UNL     1       4.509   1.375  26.643  0.00  0.00    +0.238 A 
ATOM      3  O   UNL     1       3.834   2.120  27.343  0.00  0.00    -0.283 OA
ATOM      4  C   UNL     1       4.400  -0.107  26.716  0.00  0.00    +0.109 A 
ATOM      5  C   UNL     1       5.295  -0.841  25.955  0.00  0.00    +0.147 A 
ATOM      6  C   UNL     1       5.231  -2.239  25.907  0.00  0.00    +0.093 A 
ATOM      7  C   UNL     1       4.269  -2.939  26.633  0.00  0.00    +0.131 A 
ATOM      8  C   UNL     1       3.391  -2.209  27.440  0.00  0.00    +0.092 A 
ATOM      9  O   UNL     1       6.303  -0.280  25.220  0.00  0.00    -0.451 OA
ATOM     10  C   UNL     1       3.449  -0.803  27.471  0.00  0.00    +0.135 A 
ATOM     11  C   UNL     1       6.359   1.094  25.067  0.00  0.00    +0.181 A 
ENDROOT
BRANCH  11  12
ATOM     12  C   UNL     1       7.512   1.454  24.212  0.00  0.00    +0.025 A 
ATOM     13  C   UNL     1       8.624   2.121  24.749  0.00  0.00    +0.015 A 
ATOM     14  C   UNL     1       9.679   2.531  23.931  0.00  0.00    +0.050 A 
ATOM     15  C   UNL     1       9.663   2.199  22.588  0.00  0.00    +0.158 A 
ATOM     16  C   UNL     1       8.616   1.454  22.055  0.00  0.00    +0.159 A 
ATOM     17  C   UNL     1       7.534   1.088  22.852  0.00  0.00    +0.060 A 
BRANCH  16  18
ATOM     18  O   UNL     1       8.693   1.108  20.735  0.00  0.00    -0.503 OA
ATOM     19  H   UNL     1       8.531   1.904  20.198  0.00  0.00    +0.292 HD
ENDBRANCH  16  18
BRANCH  15  20
ATOM     20  O   UNL     1      10.692   2.608  21.792  0.00  0.00    -0.503 OA
ATOM     21  H   UNL     1      11.061   1.783  21.416  0.00  0.00    +0.292 HD
ENDBRANCH  15  20
ENDBRANCH  11  12
BRANCH  10  22
ATOM     22  O   UNL     1       2.550  -0.121  28.240  0.00  0.00    -0.506 OA
ATOM     23  H   UNL     1       1.652  -0.217  27.882  0.00  0.00    +0.292 HD
ENDBRANCH  10  22
BRANCH   7  24
ATOM     24  O   UNL     1       4.081  -4.303  26.597  0.00  0.00    -0.461 OA
BRANCH  24  25
ATOM     25  C   UNL     1       4.328  -4.945  25.326  0.00  0.00    +0.339 C 
ATOM     26  O   UNL     1       3.147  -5.042  24.526  0.00  0.00    -0.331 OA
ATOM     27  C   UNL     1       2.180  -6.024  24.937  0.00  0.00    +0.179 C 
ATOM     28  C   UNL     1       2.804  -7.431  25.062  0.00  0.00    +0.177 C 
ATOM     29  C   UNL     1       4.027  -7.395  25.985  0.00  0.00    +0.180 C 
ATOM     30  C   UNL     1       5.007  -6.319  25.505  0.00  0.00    +0.214 C 
BRANCH  29  31
ATOM     31  O   UNL     1       3.665  -7.211  27.358  0.00  0.00    -0.386 OA
ATOM     32  H   UNL     1       4.435  -6.903  27.866  0.00  0.00    +0.210 HD
ENDBRANCH  29  31
BRANCH  30  33
ATOM     33  O   UNL     1       6.145  -6.251  26.369  0.00  0.00    -0.383 OA
ATOM     34  H   UNL     1       6.871  -5.870  25.840  0.00  0.00    +0.210 HD
ENDBRANCH  30  33
BRANCH  28  35
ATOM     35  O   UNL     1       3.200  -7.892  23.765  0.00  0.00    -0.386 OA
ATOM     36  H   UNL     1       3.553  -8.796  23.847  0.00  0.00    +0.210 HD
ENDBRANCH  28  35
BRANCH  27  37
ATOM     37  C   UNL     1       1.061  -6.037  23.877  0.00  0.00    +0.190 C 
BRANCH  37  38
ATOM     38  O   UNL     1       1.550  -5.642  22.585  0.00  0.00    -0.392 OA
ATOM     39  H   UNL     1       1.326  -4.708  22.445  0.00  0.00    +0.210 HD
ENDBRANCH  37  38
ENDBRANCH  27  37
ENDBRANCH  24  25
ENDBRANCH   7  24
BRANCH   1  40
ATOM     40  O   UNL     1       5.392   3.333  25.501  0.00  0.00    -0.453 OA
BRANCH  40  43
ATOM     41  C   UNL     1       2.468   3.358  23.364  0.00  0.00    +0.198 C 
ATOM     42  O   UNL     1       3.648   2.872  24.022  0.00  0.00    -0.337 OA
ATOM     43  C   UNL     1       4.326   3.911  24.743  0.00  0.00    +0.339 C 
ATOM     44  C   UNL     1       4.900   4.894  23.702  0.00  0.00    +0.214 C 
ATOM     45  C   UNL     1       3.725   5.463  22.885  0.00  0.00    +0.180 C 
ATOM     46  C   UNL     1       2.856   4.347  22.271  0.00  0.00    +0.171 C 
BRANCH  46  47
ATOM     47  O   UNL     1       3.562   3.645  21.239  0.00  0.00    -0.387 OA
ATOM     48  H   UNL     1       3.117   2.781  21.132  0.00  0.00    +0.210 HD
ENDBRANCH  46  47
BRANCH  45  49
ATOM     49  O   UNL     1       4.214   6.327  21.860  0.00  0.00    -0.386 OA
ATOM     50  H   UNL     1       4.280   7.204  22.294  0.00  0.00    +0.210 HD
ENDBRANCH  45  49
BRANCH  44  51
ATOM     51  O   UNL     1       5.805   4.225  22.798  0.00  0.00    -0.383 OA
ATOM     52  H   UNL     1       5.336   3.430  22.472  0.00  0.00    +0.210 HD
ENDBRANCH  44  51
ENDBRANCH  40  43
ENDBRANCH   1  40
TORSDOF 16
ENDMDL
