MODEL 1
REMARK VINA RESULT:      -7.5      0.000      0.000
REMARK  Name = 
REMARK  22 active torsions:
REMARK  status: ('A' for Active; 'I' for Inactive)
REMARK    1  A    between atoms: C_1  and  C_2
REMARK    2  A    between atoms: C_3  and  O_61
REMARK    3  A    between atoms: C_5  and  O_60
REMARK    4  A    between atoms: C_7  and  O_59
REMARK    5  A    between atoms: C_8  and  O_11
REMARK    6  A    between atoms: O_11  and  C_12
REMARK    7  A    between atoms: C_14  and  O_58
REMARK    8  A    between atoms: C_16  and  C_57
REMARK    9  A    between atoms: C_18  and  O_22
REMARK   10  A    between atoms: C_20  and  O_21
REMARK   11  A    between atoms: O_22  and  C_23
REMARK   12  A    between atoms: C_23  and  C_24
REMARK   13  A    between atoms: C_25  and  O_56
REMARK   14  A    between atoms: C_27  and  O_55
REMARK   15  A    between atoms: C_28  and  O_54
REMARK   16  A    between atoms: C_29  and  O_32
REMARK   17  A    between atoms: O_32  and  C_33
REMARK   18  A    between atoms: C_34  and  C_46
REMARK   19  A    between atoms: C_38  and  O_45
REMARK   20  A    between atoms: C_40  and  O_44
REMARK   21  A    between atoms: C_48  and  O_53
REMARK   22  A    between atoms: C_49  and  O_52
REMARK                            x       y       z     vdW  Elec       q    Type
REMARK                         _______ _______ _______ _____ _____    ______ ____
ROOT
ATOM      1  C   UNL     1       4.296  -3.998  28.533  0.00  0.00    +0.179 C 
ATOM      2  O   UNL     1       5.461  -3.316  27.970  0.00  0.00    -0.331 OA
ATOM      3  C   UNL     1       6.227  -3.914  26.872  0.00  0.00    +0.340 C 
ATOM      4  C   UNL     1       6.553  -5.412  27.156  0.00  0.00    +0.214 C 
ATOM      5  C   UNL     1       5.276  -6.145  27.581  0.00  0.00    +0.180 C 
ATOM      6  C   UNL     1       4.630  -5.487  28.816  0.00  0.00    +0.177 C 
ENDROOT
BRANCH   6   7
ATOM      7  O   UNL     1       5.478  -5.596  29.974  0.00  0.00    -0.386 OA
ATOM      8  H   UNL     1       6.204  -4.954  29.872  0.00  0.00    +0.210 HD
ENDBRANCH   6   7
BRANCH   5   9
ATOM      9  O   UNL     1       5.552  -7.524  27.862  0.00  0.00    -0.386 OA
ATOM     10  H   UNL     1       4.795  -7.835  28.400  0.00  0.00    +0.210 HD
ENDBRANCH   5   9
BRANCH   4  11
ATOM     11  O   UNL     1       7.534  -5.585  28.209  0.00  0.00    -0.383 OA
ATOM     12  H   UNL     1       7.310  -4.973  28.931  0.00  0.00    +0.210 HD
ENDBRANCH   4  11
BRANCH   3  13
ATOM     13  O   UNL     1       7.502  -3.194  26.743  0.00  0.00    -0.453 OA
BRANCH  13  14
ATOM     14  C   UNL     1       7.787  -2.190  25.794  0.00  0.00    +0.214 A 
ATOM     15  C   UNL     1       8.732  -2.360  24.618  0.00  0.00    +0.238 A 
ATOM     16  O   UNL     1       9.252  -3.440  24.415  0.00  0.00    -0.283 OA
ATOM     17  C   UNL     1       9.046  -1.164  23.764  0.00  0.00    +0.109 A 
ATOM     18  C   UNL     1       8.377   0.017  24.029  0.00  0.00    +0.147 A 
ATOM     19  C   UNL     1       8.618   1.211  23.347  0.00  0.00    +0.092 A 
ATOM     20  C   UNL     1       9.549   1.241  22.320  0.00  0.00    +0.124 A 
ATOM     21  C   UNL     1      10.222   0.061  21.997  0.00  0.00    +0.091 A 
ATOM     22  O   UNL     1       7.427   0.086  24.996  0.00  0.00    -0.451 OA
ATOM     23  C   UNL     1       9.973  -1.120  22.699  0.00  0.00    +0.135 A 
ATOM     24  C   UNL     1       7.249  -0.944  25.892  0.00  0.00    +0.181 A 
BRANCH  24  25
ATOM     25  C   UNL     1       6.438  -0.360  26.983  0.00  0.00    +0.025 A 
ATOM     26  C   UNL     1       5.135   0.048  26.649  0.00  0.00    +0.015 A 
ATOM     27  C   UNL     1       4.652   1.286  27.086  0.00  0.00    +0.050 A 
ATOM     28  C   UNL     1       5.480   2.094  27.854  0.00  0.00    +0.158 A 
ATOM     29  C   UNL     1       6.725   1.641  28.278  0.00  0.00    +0.159 A 
ATOM     30  C   UNL     1       7.191   0.389  27.911  0.00  0.00    +0.060 A 
BRANCH  29  31
ATOM     31  O   UNL     1       7.593   2.484  28.915  0.00  0.00    -0.503 OA
ATOM     32  H   UNL     1       7.067   2.896  29.627  0.00  0.00    +0.292 HD
ENDBRANCH  29  31
BRANCH  28  33
ATOM     33  O   UNL     1       5.125   3.386  28.118  0.00  0.00    -0.503 OA
ATOM     34  H   UNL     1       5.014   3.435  29.084  0.00  0.00    +0.292 HD
ENDBRANCH  28  33
ENDBRANCH  24  25
BRANCH  23  35
ATOM     35  O   UNL     1      10.660  -2.244  22.340  0.00  0.00    -0.506 OA
ATOM     36  H   UNL     1      11.610  -2.096  22.476  0.00  0.00    +0.292 HD
ENDBRANCH  23  35
BRANCH  20  37
ATOM     37  O   UNL     1       9.833   2.370  21.625  0.00  0.00    -0.507 OA
ATOM     38  H   UNL     1       9.088   2.584  21.036  0.00  0.00    +0.292 HD
ENDBRANCH  20  37
ENDBRANCH  13  14
ENDBRANCH   3  13
BRANCH   1  39
ATOM     39  C   UNL     1       2.910  -3.927  27.778  0.00  0.00    +0.197 C 
BRANCH  39  40
ATOM     40  O   UNL     1       2.200  -5.098  27.351  0.00  0.00    -0.346 OA
BRANCH  40  43
ATOM     41  C   UNL     1       2.543  -4.660  24.084  0.00  0.00    +0.186 C 
ATOM     42  C   UNL     1       1.646  -4.035  25.194  0.00  0.00    +0.202 C 
ATOM     43  C   UNL     1       1.200  -5.037  26.323  0.00  0.00    +0.282 C 
ATOM     44  O   UNL     1       0.717  -6.275  25.769  0.00  0.00    -0.343 OA
ATOM     45  C   UNL     1       1.430  -6.867  24.665  0.00  0.00    +0.149 C 
ATOM     46  C   UNL     1       0.530  -7.982  24.097  0.00  0.00    +0.041 C 
ATOM     47  C   UNL     1       1.758  -5.872  23.532  0.00  0.00    +0.174 C 
BRANCH  47  48
ATOM     48  O   UNL     1       2.329  -6.495  22.381  0.00  0.00    -0.387 OA
ATOM     49  H   UNL     1       2.904  -7.218  22.685  0.00  0.00    +0.210 HD
ENDBRANCH  47  48
BRANCH  42  50
ATOM     50  O   UNL     1       0.478  -3.468  24.550  0.00  0.00    -0.384 OA
ATOM     51  H   UNL     1      -0.024  -4.196  24.139  0.00  0.00    +0.210 HD
ENDBRANCH  42  50
BRANCH  41  52
ATOM     52  O   UNL     1       3.850  -4.927  24.626  0.00  0.00    -0.340 OA
BRANCH  52  56
ATOM     53  C   UNL     1       6.290  -2.519  21.963  0.00  0.00    +0.041 C 
ATOM     54  C   UNL     1       5.491  -3.759  21.579  0.00  0.00    +0.149 C 
ATOM     55  O   UNL     1       4.513  -4.076  22.575  0.00  0.00    -0.343 OA
ATOM     56  C   UNL     1       4.993  -4.556  23.833  0.00  0.00    +0.282 C 
ATOM     57  C   UNL     1       5.956  -5.773  23.649  0.00  0.00    +0.201 C 
ATOM     58  C   UNL     1       7.020  -5.489  22.563  0.00  0.00    +0.179 C 
ATOM     59  C   UNL     1       6.365  -4.975  21.273  0.00  0.00    +0.174 C 
BRANCH  59  60
ATOM     60  O   UNL     1       5.574  -6.015  20.678  0.00  0.00    -0.387 OA
ATOM     61  H   UNL     1       5.535  -5.837  19.714  0.00  0.00    +0.210 HD
ENDBRANCH  59  60
BRANCH  58  62
ATOM     62  O   UNL     1       7.772  -6.686  22.303  0.00  0.00    -0.386 OA
ATOM     63  H   UNL     1       8.690  -6.427  22.092  0.00  0.00    +0.210 HD
ENDBRANCH  58  62
BRANCH  57  64
ATOM     64  O   UNL     1       5.210  -6.945  23.266  0.00  0.00    -0.384 OA
ATOM     65  H   UNL     1       5.136  -6.913  22.291  0.00  0.00    +0.210 HD
ENDBRANCH  57  64
ENDBRANCH  52  56
ENDBRANCH  41  52
ENDBRANCH  40  43
ENDBRANCH  39  40
ENDBRANCH   1  39
TORSDOF 20
ENDMDL
MODEL 2
REMARK VINA RESULT:      -7.5      3.366      9.007
REMARK  Name = 
REMARK  22 active torsions:
REMARK  status: ('A' for Active; 'I' for Inactive)
REMARK    1  A    between atoms: C_1  and  C_2
REMARK    2  A    between atoms: C_3  and  O_61
REMARK    3  A    between atoms: C_5  and  O_60
REMARK    4  A    between atoms: C_7  and  O_59
REMARK    5  A    between atoms: C_8  and  O_11
REMARK    6  A    between atoms: O_11  and  C_12
REMARK    7  A    between atoms: C_14  and  O_58
REMARK    8  A    between atoms: C_16  and  C_57
REMARK    9  A    between atoms: C_18  and  O_22
REMARK   10  A    between atoms: C_20  and  O_21
REMARK   11  A    between atoms: O_22  and  C_23
REMARK   12  A    between atoms: C_23  and  C_24
REMARK   13  A    between atoms: C_25  and  O_56
REMARK   14  A    between atoms: C_27  and  O_55
REMARK   15  A    between atoms: C_28  and  O_54
REMARK   16  A    between atoms: C_29  and  O_32
REMARK   17  A    between atoms: O_32  and  C_33
REMARK   18  A    between atoms: C_34  and  C_46
REMARK   19  A    between atoms: C_38  and  O_45
REMARK   20  A    between atoms: C_40  and  O_44
REMARK   21  A    between atoms: C_48  and  O_53
REMARK   22  A    between atoms: C_49  and  O_52
REMARK                            x       y       z     vdW  Elec       q    Type
REMARK                         _______ _______ _______ _____ _____    ______ ____
ROOT
ATOM      1  C   UNL     1       8.762   1.171  22.427  0.00  0.00    +0.179 C 
ATOM      2  O   UNL     1       7.471   0.578  22.774  0.00  0.00    -0.331 OA
ATOM      3  C   UNL     1       7.390  -0.603  23.640  0.00  0.00    +0.340 C 
ATOM      4  C   UNL     1       8.396  -1.705  23.189  0.00  0.00    +0.214 C 
ATOM      5  C   UNL     1       9.785  -1.088  22.997  0.00  0.00    +0.180 C 
ATOM      6  C   UNL     1       9.755   0.067  21.977  0.00  0.00    +0.177 C 
ENDROOT
BRANCH   6   7
ATOM      7  O   UNL     1       9.414  -0.404  20.660  0.00  0.00    -0.386 OA
ATOM      8  H   UNL     1      10.057  -0.024  20.034  0.00  0.00    +0.210 HD
ENDBRANCH   6   7
BRANCH   5   9
ATOM      9  O   UNL     1      10.727  -2.082  22.569  0.00  0.00    -0.386 OA
ATOM     10  H   UNL     1      11.609  -1.705  22.768  0.00  0.00    +0.210 HD
ENDBRANCH   5   9
BRANCH   4  11
ATOM     11  O   UNL     1       8.016  -2.339  21.942  0.00  0.00    -0.383 OA
ATOM     12  H   UNL     1       7.128  -2.023  21.704  0.00  0.00    +0.210 HD
ENDBRANCH   4  11
BRANCH   3  13
ATOM     13  O   UNL     1       6.035  -1.164  23.543  0.00  0.00    -0.453 OA
BRANCH  13  14
ATOM     14  C   UNL     1       5.592  -2.353  24.158  0.00  0.00    +0.214 A 
ATOM     15  C   UNL     1       5.163  -3.602  23.410  0.00  0.00    +0.238 A 
ATOM     16  O   UNL     1       5.248  -3.637  22.198  0.00  0.00    -0.283 OA
ATOM     17  C   UNL     1       4.584  -4.749  24.189  0.00  0.00    +0.109 A 
ATOM     18  C   UNL     1       4.565  -4.653  25.568  0.00  0.00    +0.147 A 
ATOM     19  C   UNL     1       4.006  -5.623  26.403  0.00  0.00    +0.092 A 
ATOM     20  C   UNL     1       3.460  -6.772  25.853  0.00  0.00    +0.124 A 
ATOM     21  C   UNL     1       3.491  -6.925  24.464  0.00  0.00    +0.091 A 
ATOM     22  O   UNL     1       5.098  -3.580  26.207  0.00  0.00    -0.451 OA
ATOM     23  C   UNL     1       4.045  -5.938  23.648  0.00  0.00    +0.135 A 
ATOM     24  C   UNL     1       5.475  -2.454  25.510  0.00  0.00    +0.181 A 
BRANCH  24  25
ATOM     25  C   UNL     1       5.628  -1.405  26.542  0.00  0.00    +0.025 A 
ATOM     26  C   UNL     1       4.921  -0.209  26.332  0.00  0.00    +0.015 A 
ATOM     27  C   UNL     1       5.553   1.025  26.526  0.00  0.00    +0.050 A 
ATOM     28  C   UNL     1       6.881   1.040  26.930  0.00  0.00    +0.158 A 
ATOM     29  C   UNL     1       7.545  -0.140  27.245  0.00  0.00    +0.159 A 
ATOM     30  C   UNL     1       6.912  -1.368  27.125  0.00  0.00    +0.060 A 
BRANCH  29  31
ATOM     31  O   UNL     1       8.886  -0.136  27.510  0.00  0.00    -0.503 OA
ATOM     32  H   UNL     1       9.068  -1.010  27.904  0.00  0.00    +0.292 HD
ENDBRANCH  29  31
BRANCH  28  33
ATOM     33  O   UNL     1       7.585   2.210  26.924  0.00  0.00    -0.503 OA
ATOM     34  H   UNL     1       7.049   2.842  27.435  0.00  0.00    +0.292 HD
ENDBRANCH  28  33
ENDBRANCH  24  25
BRANCH  23  35
ATOM     35  O   UNL     1       4.048  -6.141  22.298  0.00  0.00    -0.506 OA
ATOM     36  H   UNL     1       4.485  -5.390  21.862  0.00  0.00    +0.292 HD
ENDBRANCH  23  35
BRANCH  20  37
ATOM     37  O   UNL     1       2.896  -7.747  26.607  0.00  0.00    -0.507 OA
ATOM     38  H   UNL     1       2.507  -8.424  26.025  0.00  0.00    +0.292 HD
ENDBRANCH  20  37
ENDBRANCH  13  14
ENDBRANCH   3  13
BRANCH   1  39
ATOM     39  C   UNL     1       9.492   2.114  23.464  0.00  0.00    +0.197 C 
BRANCH  39  40
ATOM     40  O   UNL     1       8.779   2.961  24.376  0.00  0.00    -0.346 OA
BRANCH  40  43
ATOM     41  C   UNL     1       6.993   5.636  23.581  0.00  0.00    +0.186 C 
ATOM     42  C   UNL     1       8.461   5.176  23.336  0.00  0.00    +0.202 C 
ATOM     43  C   UNL     1       9.099   4.353  24.516  0.00  0.00    +0.282 C 
ATOM     44  O   UNL     1       8.860   4.982  25.788  0.00  0.00    -0.343 OA
ATOM     45  C   UNL     1       7.554   5.533  26.055  0.00  0.00    +0.149 C 
ATOM     46  C   UNL     1       7.684   6.392  27.328  0.00  0.00    +0.041 C 
ATOM     47  C   UNL     1       7.008   6.418  24.916  0.00  0.00    +0.174 C 
BRANCH  47  48
ATOM     48  O   UNL     1       5.787   7.078  25.249  0.00  0.00    -0.387 OA
ATOM     49  H   UNL     1       5.052   6.484  25.019  0.00  0.00    +0.210 HD
ENDBRANCH  47  48
BRANCH  42  50
ATOM     50  O   UNL     1       9.256   6.357  23.073  0.00  0.00    -0.384 OA
ATOM     51  H   UNL     1      10.197   6.114  23.164  0.00  0.00    +0.210 HD
ENDBRANCH  42  50
BRANCH  41  52
ATOM     52  O   UNL     1       6.119   4.494  23.509  0.00  0.00    -0.340 OA
BRANCH  52  56
ATOM     53  C   UNL     1       2.255   6.442  23.162  0.00  0.00    +0.041 C 
ATOM     54  C   UNL     1       2.570   5.205  23.997  0.00  0.00    +0.149 C 
ATOM     55  O   UNL     1       3.980   5.059  24.197  0.00  0.00    -0.343 OA
ATOM     56  C   UNL     1       4.770   4.711  23.058  0.00  0.00    +0.282 C 
ATOM     57  C   UNL     1       4.214   3.434  22.347  0.00  0.00    +0.201 C 
ATOM     58  C   UNL     1       2.686   3.533  22.127  0.00  0.00    +0.179 C 
ATOM     59  C   UNL     1       1.968   3.920  23.429  0.00  0.00    +0.174 C 
BRANCH  59  60
ATOM     60  O   UNL     1       2.083   2.855  24.385  0.00  0.00    -0.387 OA
ATOM     61  H   UNL     1       3.005   2.522  24.341  0.00  0.00    +0.210 HD
ENDBRANCH  59  60
BRANCH  58  62
ATOM     62  O   UNL     1       2.190   2.278  21.633  0.00  0.00    -0.386 OA
ATOM     63  H   UNL     1       2.339   2.252  20.668  0.00  0.00    +0.210 HD
ENDBRANCH  58  62
BRANCH  57  64
ATOM     64  O   UNL     1       4.489   2.263  23.139  0.00  0.00    -0.384 OA
ATOM     65  H   UNL     1       3.635   1.798  23.244  0.00  0.00    +0.210 HD
ENDBRANCH  57  64
ENDBRANCH  52  56
ENDBRANCH  41  52
ENDBRANCH  40  43
ENDBRANCH  39  40
ENDBRANCH   1  39
TORSDOF 20
ENDMDL
MODEL 3
REMARK VINA RESULT:      -7.3      2.574      5.296
REMARK  Name = 
REMARK  22 active torsions:
REMARK  status: ('A' for Active; 'I' for Inactive)
REMARK    1  A    between atoms: C_1  and  C_2
REMARK    2  A    between atoms: C_3  and  O_61
REMARK    3  A    between atoms: C_5  and  O_60
REMARK    4  A    between atoms: C_7  and  O_59
REMARK    5  A    between atoms: C_8  and  O_11
REMARK    6  A    between atoms: O_11  and  C_12
REMARK    7  A    between atoms: C_14  and  O_58
REMARK    8  A    between atoms: C_16  and  C_57
REMARK    9  A    between atoms: C_18  and  O_22
REMARK   10  A    between atoms: C_20  and  O_21
REMARK   11  A    between atoms: O_22  and  C_23
REMARK   12  A    between atoms: C_23  and  C_24
REMARK   13  A    between atoms: C_25  and  O_56
REMARK   14  A    between atoms: C_27  and  O_55
REMARK   15  A    between atoms: C_28  and  O_54
REMARK   16  A    between atoms: C_29  and  O_32
REMARK   17  A    between atoms: O_32  and  C_33
REMARK   18  A    between atoms: C_34  and  C_46
REMARK   19  A    between atoms: C_38  and  O_45
REMARK   20  A    between atoms: C_40  and  O_44
REMARK   21  A    between atoms: C_48  and  O_53
REMARK   22  A    between atoms: C_49  and  O_52
REMARK                            x       y       z     vdW  Elec       q    Type
REMARK                         _______ _______ _______ _____ _____    ______ ____
ROOT
ATOM      1  C   UNL     1       3.806  -1.186  27.041  0.00  0.00    +0.179 C 
ATOM      2  O   UNL     1       4.395  -0.304  26.034  0.00  0.00    -0.331 OA
ATOM      3  C   UNL     1       5.547   0.545  26.355  0.00  0.00    +0.340 C 
ATOM      4  C   UNL     1       5.331   1.311  27.696  0.00  0.00    +0.214 C 
ATOM      5  C   UNL     1       4.876   0.330  28.782  0.00  0.00    +0.180 C 
ATOM      6  C   UNL     1       3.591  -0.415  28.370  0.00  0.00    +0.177 C 
ENDROOT
BRANCH   6   7
ATOM      7  O   UNL     1       2.477   0.488  28.248  0.00  0.00    -0.386 OA
ATOM      8  H   UNL     1       1.774   0.027  27.756  0.00  0.00    +0.210 HD
ENDBRANCH   6   7
BRANCH   5   9
ATOM      9  O   UNL     1       4.657   1.014  30.024  0.00  0.00    -0.386 OA
ATOM     10  H   UNL     1       4.950   1.935  29.867  0.00  0.00    +0.210 HD
ENDBRANCH   5   9
BRANCH   4  11
ATOM     11  O   UNL     1       4.329   2.354  27.594  0.00  0.00    -0.383 OA
ATOM     12  H   UNL     1       3.779   2.320  28.396  0.00  0.00    +0.210 HD
ENDBRANCH   4  11
BRANCH   3  13
ATOM     13  O   UNL     1       5.706   1.543  25.288  0.00  0.00    -0.453 OA
BRANCH  13  14
ATOM     14  C   UNL     1       6.876   2.285  25.024  0.00  0.00    +0.214 A 
ATOM     15  C   UNL     1       7.011   3.783  25.227  0.00  0.00    +0.238 A 
ATOM     16  O   UNL     1       6.086   4.412  25.702  0.00  0.00    -0.283 OA
ATOM     17  C   UNL     1       8.273   4.464  24.776  0.00  0.00    +0.109 A 
ATOM     18  C   UNL     1       9.298   3.674  24.289  0.00  0.00    +0.147 A 
ATOM     19  C   UNL     1      10.497   4.185  23.788  0.00  0.00    +0.092 A 
ATOM     20  C   UNL     1      10.717   5.554  23.794  0.00  0.00    +0.124 A 
ATOM     21  C   UNL     1       9.720   6.386  24.310  0.00  0.00    +0.091 A 
ATOM     22  O   UNL     1       9.194   2.320  24.266  0.00  0.00    -0.451 OA
ATOM     23  C   UNL     1       8.524   5.854  24.796  0.00  0.00    +0.135 A 
ATOM     24  C   UNL     1       7.993   1.696  24.513  0.00  0.00    +0.181 A 
BRANCH  24  25
ATOM     25  C   UNL     1       8.178   0.311  24.026  0.00  0.00    +0.025 A 
ATOM     26  C   UNL     1       9.065  -0.498  24.756  0.00  0.00    +0.015 A 
ATOM     27  C   UNL     1      10.009  -1.286  24.089  0.00  0.00    +0.050 A 
ATOM     28  C   UNL     1      10.047  -1.254  22.702  0.00  0.00    +0.158 A 
ATOM     29  C   UNL     1       9.098  -0.541  21.978  0.00  0.00    +0.159 A 
ATOM     30  C   UNL     1       8.112   0.191  22.622  0.00  0.00    +0.060 A 
BRANCH  29  31
ATOM     31  O   UNL     1       9.216  -0.398  20.624  0.00  0.00    -0.503 OA
ATOM     32  H   UNL     1       9.621   0.481  20.497  0.00  0.00    +0.292 HD
ENDBRANCH  29  31
BRANCH  28  33
ATOM     33  O   UNL     1      11.082  -1.840  22.030  0.00  0.00    -0.503 OA
ATOM     34  H   UNL     1      11.377  -2.576  22.595  0.00  0.00    +0.292 HD
ENDBRANCH  28  33
ENDBRANCH  24  25
BRANCH  23  35
ATOM     35  O   UNL     1       7.586   6.714  25.289  0.00  0.00    -0.506 OA
ATOM     36  H   UNL     1       7.662   6.752  26.256  0.00  0.00    +0.292 HD
ENDBRANCH  23  35
BRANCH  20  37
ATOM     37  O   UNL     1      11.855   6.114  23.316  0.00  0.00    -0.507 OA
ATOM     38  H   UNL     1      12.069   6.909  23.837  0.00  0.00    +0.292 HD
ENDBRANCH  20  37
ENDBRANCH  13  14
ENDBRANCH   3  13
BRANCH   1  39
ATOM     39  C   UNL     1       4.496  -2.569  27.366  0.00  0.00    +0.197 C 
BRANCH  39  40
ATOM     40  O   UNL     1       3.751  -3.738  27.737  0.00  0.00    -0.346 OA
BRANCH  40  43
ATOM     41  C   UNL     1       3.908  -5.934  25.261  0.00  0.00    +0.186 C 
ATOM     42  C   UNL     1       3.255  -4.534  25.455  0.00  0.00    +0.202 C 
ATOM     43  C   UNL     1       2.705  -4.258  26.903  0.00  0.00    +0.282 C 
ATOM     44  O   UNL     1       1.931  -5.368  27.395  0.00  0.00    -0.343 OA
ATOM     45  C   UNL     1       2.414  -6.707  27.162  0.00  0.00    +0.149 C 
ATOM     46  C   UNL     1       1.258  -7.665  27.512  0.00  0.00    +0.041 C 
ATOM     47  C   UNL     1       2.847  -6.967  25.704  0.00  0.00    +0.174 C 
BRANCH  47  48
ATOM     48  O   UNL     1       3.179  -8.332  25.448  0.00  0.00    -0.387 OA
ATOM     49  H   UNL     1       4.121  -8.456  25.658  0.00  0.00    +0.210 HD
ENDBRANCH  47  48
BRANCH  42  50
ATOM     50  O   UNL     1       2.182  -4.410  24.489  0.00  0.00    -0.384 OA
ATOM     51  H   UNL     1       1.352  -4.251  24.978  0.00  0.00    +0.210 HD
ENDBRANCH  42  50
BRANCH  41  52
ATOM     52  O   UNL     1       5.172  -5.968  25.951  0.00  0.00    -0.340 OA
BRANCH  52  56
ATOM     53  C   UNL     1       7.598  -3.771  23.100  0.00  0.00    +0.041 C 
ATOM     54  C   UNL     1       7.975  -5.080  23.784  0.00  0.00    +0.149 C 
ATOM     55  O   UNL     1       6.826  -5.722  24.347  0.00  0.00    -0.343 OA
ATOM     56  C   UNL     1       6.216  -5.097  25.479  0.00  0.00    +0.282 C 
ATOM     57  C   UNL     1       7.261  -4.824  26.610  0.00  0.00    +0.201 C 
ATOM     58  C   UNL     1       8.535  -4.151  26.048  0.00  0.00    +0.179 C 
ATOM     59  C   UNL     1       9.074  -4.922  24.834  0.00  0.00    +0.174 C 
BRANCH  59  60
ATOM     60  O   UNL     1       9.552  -6.211  25.248  0.00  0.00    -0.387 OA
ATOM     61  H   UNL     1       8.797  -6.686  25.657  0.00  0.00    +0.210 HD
ENDBRANCH  59  60
BRANCH  58  62
ATOM     62  O   UNL     1       9.533  -4.075  27.080  0.00  0.00    -0.386 OA
ATOM     63  H   UNL     1       9.107  -4.300  27.930  0.00  0.00    +0.210 HD
ENDBRANCH  58  62
BRANCH  57  64
ATOM     64  O   UNL     1       7.638  -6.059  27.249  0.00  0.00    -0.384 OA
ATOM     65  H   UNL     1       8.451  -6.361  26.798  0.00  0.00    +0.210 HD
ENDBRANCH  57  64
ENDBRANCH  52  56
ENDBRANCH  41  52
ENDBRANCH  40  43
ENDBRANCH  39  40
ENDBRANCH   1  39
TORSDOF 20
ENDMDL
MODEL 4
REMARK VINA RESULT:      -7.2      2.407      7.412
REMARK  Name = 
REMARK  22 active torsions:
REMARK  status: ('A' for Active; 'I' for Inactive)
REMARK    1  A    between atoms: C_1  and  C_2
REMARK    2  A    between atoms: C_3  and  O_61
REMARK    3  A    between atoms: C_5  and  O_60
REMARK    4  A    between atoms: C_7  and  O_59
REMARK    5  A    between atoms: C_8  and  O_11
REMARK    6  A    between atoms: O_11  and  C_12
REMARK    7  A    between atoms: C_14  and  O_58
REMARK    8  A    between atoms: C_16  and  C_57
REMARK    9  A    between atoms: C_18  and  O_22
REMARK   10  A    between atoms: C_20  and  O_21
REMARK   11  A    between atoms: O_22  and  C_23
REMARK   12  A    between atoms: C_23  and  C_24
REMARK   13  A    between atoms: C_25  and  O_56
REMARK   14  A    between atoms: C_27  and  O_55
REMARK   15  A    between atoms: C_28  and  O_54
REMARK   16  A    between atoms: C_29  and  O_32
REMARK   17  A    between atoms: O_32  and  C_33
REMARK   18  A    between atoms: C_34  and  C_46
REMARK   19  A    between atoms: C_38  and  O_45
REMARK   20  A    between atoms: C_40  and  O_44
REMARK   21  A    between atoms: C_48  and  O_53
REMARK   22  A    between atoms: C_49  and  O_52
REMARK                            x       y       z     vdW  Elec       q    Type
REMARK                         _______ _______ _______ _____ _____    ______ ____
ROOT
ATOM      1  C   UNL     1       9.702   0.817  24.314  0.00  0.00    +0.179 C 
ATOM      2  O   UNL     1       8.328   1.274  24.515  0.00  0.00    -0.331 OA
ATOM      3  C   UNL     1       7.228   0.737  23.706  0.00  0.00    +0.340 C 
ATOM      4  C   UNL     1       7.588   0.734  22.190  0.00  0.00    +0.214 C 
ATOM      5  C   UNL     1       8.965   0.092  21.988  0.00  0.00    +0.180 C 
ATOM      6  C   UNL     1      10.053   0.820  22.802  0.00  0.00    +0.177 C 
ENDROOT
BRANCH   6   7
ATOM      7  O   UNL     1      10.243   2.169  22.338  0.00  0.00    -0.386 OA
ATOM      8  H   UNL     1       9.380   2.503  22.035  0.00  0.00    +0.210 HD
ENDBRANCH   6   7
BRANCH   5   9
ATOM      9  O   UNL     1       9.326   0.090  20.600  0.00  0.00    -0.386 OA
ATOM     10  H   UNL     1       9.017  -0.773  20.254  0.00  0.00    +0.210 HD
ENDBRANCH   5   9
BRANCH   4  11
ATOM     11  O   UNL     1       7.633   2.066  21.618  0.00  0.00    -0.383 OA
ATOM     12  H   UNL     1       8.515   2.194  21.228  0.00  0.00    +0.210 HD
ENDBRANCH   4  11
BRANCH   3  13
ATOM     13  O   UNL     1       6.050   1.597  23.886  0.00  0.00    -0.453 OA
BRANCH  13  14
ATOM     14  C   UNL     1       5.424   1.887  25.116  0.00  0.00    +0.214 A 
ATOM     15  C   UNL     1       4.659   0.877  25.952  0.00  0.00    +0.238 A 
ATOM     16  O   UNL     1       4.609  -0.284  25.597  0.00  0.00    -0.283 OA
ATOM     17  C   UNL     1       3.927   1.356  27.175  0.00  0.00    +0.109 A 
ATOM     18  C   UNL     1       4.071   2.682  27.540  0.00  0.00    +0.147 A 
ATOM     19  C   UNL     1       3.403   3.263  28.619  0.00  0.00    +0.092 A 
ATOM     20  C   UNL     1       2.567   2.489  29.408  0.00  0.00    +0.124 A 
ATOM     21  C   UNL     1       2.420   1.135  29.095  0.00  0.00    +0.091 A 
ATOM     22  O   UNL     1       4.888   3.518  26.849  0.00  0.00    -0.451 OA
ATOM     23  C   UNL     1       3.090   0.577  28.004  0.00  0.00    +0.135 A 
ATOM     24  C   UNL     1       5.427   3.144  25.639  0.00  0.00    +0.181 A 
BRANCH  24  25
ATOM     25  C   UNL     1       5.911   4.405  25.035  0.00  0.00    +0.025 A 
ATOM     26  C   UNL     1       5.071   5.009  24.084  0.00  0.00    +0.015 A 
ATOM     27  C   UNL     1       5.601   5.492  22.882  0.00  0.00    +0.050 A 
ATOM     28  C   UNL     1       6.965   5.364  22.654  0.00  0.00    +0.158 A 
ATOM     29  C   UNL     1       7.810   4.870  23.641  0.00  0.00    +0.159 A 
ATOM     30  C   UNL     1       7.310   4.451  24.864  0.00  0.00    +0.060 A 
BRANCH  29  31
ATOM     31  O   UNL     1       9.126   4.618  23.369  0.00  0.00    -0.503 OA
ATOM     32  H   UNL     1       9.179   4.571  22.396  0.00  0.00    +0.292 HD
ENDBRANCH  29  31
BRANCH  28  33
ATOM     33  O   UNL     1       7.480   5.629  21.417  0.00  0.00    -0.503 OA
ATOM     34  H   UNL     1       7.244   4.862  20.866  0.00  0.00    +0.292 HD
ENDBRANCH  28  33
ENDBRANCH  24  25
BRANCH  23  35
ATOM     35  O   UNL     1       2.910  -0.751  27.745  0.00  0.00    -0.506 OA
ATOM     36  H   UNL     1       3.673  -1.087  27.246  0.00  0.00    +0.292 HD
ENDBRANCH  23  35
BRANCH  20  37
ATOM     37  O   UNL     1       1.885   2.994  30.465  0.00  0.00    -0.507 OA
ATOM     38  H   UNL     1       1.794   2.309  31.151  0.00  0.00    +0.292 HD
ENDBRANCH  20  37
ENDBRANCH  13  14
ENDBRANCH   3  13
BRANCH   1  39
ATOM     39  C   UNL     1      10.166  -0.560  24.936  0.00  0.00    +0.197 C 
BRANCH  39  40
ATOM     40  O   UNL     1       9.272  -1.667  25.120  0.00  0.00    -0.346 OA
BRANCH  40  43
ATOM     41  C   UNL     1       7.923  -4.651  25.624  0.00  0.00    +0.186 C 
ATOM     42  C   UNL     1       9.355  -4.126  25.310  0.00  0.00    +0.202 C 
ATOM     43  C   UNL     1       9.405  -2.875  24.357  0.00  0.00    +0.282 C 
ATOM     44  O   UNL     1       8.554  -3.052  23.210  0.00  0.00    -0.343 OA
ATOM     45  C   UNL     1       7.248  -3.634  23.398  0.00  0.00    +0.149 C 
ATOM     46  C   UNL     1       6.706  -3.979  21.997  0.00  0.00    +0.041 C 
ATOM     47  C   UNL     1       7.256  -4.917  24.254  0.00  0.00    +0.174 C 
BRANCH  47  48
ATOM     48  O   UNL     1       5.986  -5.568  24.310  0.00  0.00    -0.387 OA
ATOM     49  H   UNL     1       5.455  -5.130  24.997  0.00  0.00    +0.210 HD
ENDBRANCH  47  48
BRANCH  42  50
ATOM     50  O   UNL     1      10.109  -5.218  24.730  0.00  0.00    -0.384 OA
ATOM     51  H   UNL     1      10.461  -5.764  25.459  0.00  0.00    +0.210 HD
ENDBRANCH  42  50
BRANCH  41  52
ATOM     52  O   UNL     1       7.257  -3.721  26.498  0.00  0.00    -0.340 OA
BRANCH  52  56
ATOM     53  C   UNL     1       5.457  -6.445  29.359  0.00  0.00    +0.041 C 
ATOM     54  C   UNL     1       5.130  -6.353  27.872  0.00  0.00    +0.149 C 
ATOM     55  O   UNL     1       6.151  -5.647  27.159  0.00  0.00    -0.343 OA
ATOM     56  C   UNL     1       6.267  -4.243  27.403  0.00  0.00    +0.282 C 
ATOM     57  C   UNL     1       4.898  -3.514  27.204  0.00  0.00    +0.201 C 
ATOM     58  C   UNL     1       3.755  -4.254  27.938  0.00  0.00    +0.179 C 
ATOM     59  C   UNL     1       3.755  -5.750  27.589  0.00  0.00    +0.174 C 
BRANCH  59  60
ATOM     60  O   UNL     1       3.412  -5.928  26.206  0.00  0.00    -0.387 OA
ATOM     61  H   UNL     1       4.106  -5.484  25.673  0.00  0.00    +0.210 HD
ENDBRANCH  59  60
BRANCH  58  62
ATOM     62  O   UNL     1       2.495  -3.656  27.590  0.00  0.00    -0.386 OA
ATOM     63  H   UNL     1       2.401  -2.829  28.101  0.00  0.00    +0.210 HD
ENDBRANCH  58  62
BRANCH  57  64
ATOM     64  O   UNL     1       4.572  -3.441  25.802  0.00  0.00    -0.384 OA
ATOM     65  H   UNL     1       3.904  -2.732  25.715  0.00  0.00    +0.210 HD
ENDBRANCH  57  64
ENDBRANCH  52  56
ENDBRANCH  41  52
ENDBRANCH  40  43
ENDBRANCH  39  40
ENDBRANCH   1  39
TORSDOF 20
ENDMDL
MODEL 5
REMARK VINA RESULT:      -7.1      2.468      8.846
REMARK  Name = 
REMARK  22 active torsions:
REMARK  status: ('A' for Active; 'I' for Inactive)
REMARK    1  A    between atoms: C_1  and  C_2
REMARK    2  A    between atoms: C_3  and  O_61
REMARK    3  A    between atoms: C_5  and  O_60
REMARK    4  A    between atoms: C_7  and  O_59
REMARK    5  A    between atoms: C_8  and  O_11
REMARK    6  A    between atoms: O_11  and  C_12
REMARK    7  A    between atoms: C_14  and  O_58
REMARK    8  A    between atoms: C_16  and  C_57
REMARK    9  A    between atoms: C_18  and  O_22
REMARK   10  A    between atoms: C_20  and  O_21
REMARK   11  A    between atoms: O_22  and  C_23
REMARK   12  A    between atoms: C_23  and  C_24
REMARK   13  A    between atoms: C_25  and  O_56
REMARK   14  A    between atoms: C_27  and  O_55
REMARK   15  A    between atoms: C_28  and  O_54
REMARK   16  A    between atoms: C_29  and  O_32
REMARK   17  A    between atoms: O_32  and  C_33
REMARK   18  A    between atoms: C_34  and  C_46
REMARK   19  A    between atoms: C_38  and  O_45
REMARK   20  A    between atoms: C_40  and  O_44
REMARK   21  A    between atoms: C_48  and  O_53
REMARK   22  A    between atoms: C_49  and  O_52
REMARK                            x       y       z     vdW  Elec       q    Type
REMARK                         _______ _______ _______ _____ _____    ______ ____
ROOT
ATOM      1  C   UNL     1       5.625   1.315  26.101  0.00  0.00    +0.179 C 
ATOM      2  O   UNL     1       5.631  -0.121  26.376  0.00  0.00    -0.331 OA
ATOM      3  C   UNL     1       4.388  -0.837  26.681  0.00  0.00    +0.340 C 
ATOM      4  C   UNL     1       3.545  -0.078  27.751  0.00  0.00    +0.214 C 
ATOM      5  C   UNL     1       3.410   1.395  27.351  0.00  0.00    +0.180 C 
ATOM      6  C   UNL     1       4.787   2.062  27.173  0.00  0.00    +0.177 C 
ENDROOT
BRANCH   6   7
ATOM      7  O   UNL     1       5.508   2.121  28.417  0.00  0.00    -0.386 OA
ATOM      8  H   UNL     1       5.783   3.045  28.558  0.00  0.00    +0.210 HD
ENDBRANCH   6   7
BRANCH   5   9
ATOM      9  O   UNL     1       2.649   2.119  28.328  0.00  0.00    -0.386 OA
ATOM     10  H   UNL     1       2.908   1.738  29.192  0.00  0.00    +0.210 HD
ENDBRANCH   5   9
BRANCH   4  11
ATOM     11  O   UNL     1       4.139  -0.124  29.073  0.00  0.00    -0.383 OA
ATOM     12  H   UNL     1       3.905   0.700  29.535  0.00  0.00    +0.210 HD
ENDBRANCH   4  11
BRANCH   3  13
ATOM     13  O   UNL     1       4.729  -2.156  27.231  0.00  0.00    -0.453 OA
BRANCH  13  14
ATOM     14  C   UNL     1       4.301  -3.397  26.715  0.00  0.00    +0.214 A 
ATOM     15  C   UNL     1       3.027  -4.110  27.131  0.00  0.00    +0.238 A 
ATOM     16  O   UNL     1       2.269  -3.578  27.918  0.00  0.00    -0.283 OA
ATOM     17  C   UNL     1       2.764  -5.491  26.599  0.00  0.00    +0.109 A 
ATOM     18  C   UNL     1       3.649  -6.009  25.671  0.00  0.00    +0.147 A 
ATOM     19  C   UNL     1       3.550  -7.297  25.142  0.00  0.00    +0.092 A 
ATOM     20  C   UNL     1       2.499  -8.117  25.524  0.00  0.00    +0.124 A 
ATOM     21  C   UNL     1       1.563  -7.620  26.433  0.00  0.00    +0.091 A 
ATOM     22  O   UNL     1       4.696  -5.276  25.211  0.00  0.00    -0.451 OA
ATOM     23  C   UNL     1       1.688  -6.332  26.957  0.00  0.00    +0.135 A 
ATOM     24  C   UNL     1       5.046  -4.086  25.807  0.00  0.00    +0.181 A 
BRANCH  24  25
ATOM     25  C   UNL     1       6.409  -3.798  25.308  0.00  0.00    +0.025 A 
ATOM     26  C   UNL     1       6.712  -4.252  24.012  0.00  0.00    +0.015 A 
ATOM     27  C   UNL     1       7.925  -4.902  23.761  0.00  0.00    +0.050 A 
ATOM     28  C   UNL     1       8.816  -5.085  24.810  0.00  0.00    +0.158 A 
ATOM     29  C   UNL     1       8.565  -4.537  26.063  0.00  0.00    +0.159 A 
ATOM     30  C   UNL     1       7.399  -3.830  26.312  0.00  0.00    +0.060 A 
BRANCH  29  31
ATOM     31  O   UNL     1       9.372  -4.832  27.127  0.00  0.00    -0.503 OA
ATOM     32  H   UNL     1       9.700  -5.734  26.953  0.00  0.00    +0.292 HD
ENDBRANCH  29  31
BRANCH  28  33
ATOM     33  O   UNL     1       9.905  -5.894  24.652  0.00  0.00    -0.503 OA
ATOM     34  H   UNL     1       9.782  -6.334  23.792  0.00  0.00    +0.292 HD
ENDBRANCH  28  33
ENDBRANCH  24  25
BRANCH  23  35
ATOM     35  O   UNL     1       0.743  -5.899  27.842  0.00  0.00    -0.506 OA
ATOM     36  H   UNL     1       0.650  -4.935  27.765  0.00  0.00    +0.292 HD
ENDBRANCH  23  35
BRANCH  20  37
ATOM     37  O   UNL     1       2.350  -9.380  25.053  0.00  0.00    -0.507 OA
ATOM     38  H   UNL     1       2.745  -9.444  24.165  0.00  0.00    +0.292 HD
ENDBRANCH  20  37
ENDBRANCH  13  14
ENDBRANCH   3  13
BRANCH   1  39
ATOM     39  C   UNL     1       5.196   1.835  24.673  0.00  0.00    +0.197 C 
BRANCH  39  40
ATOM     40  O   UNL     1       5.955   2.809  23.942  0.00  0.00    -0.346 OA
BRANCH  40  43
ATOM     41  C   UNL     1       9.086   3.839  24.283  0.00  0.00    +0.186 C 
ATOM     42  C   UNL     1       7.865   3.685  25.237  0.00  0.00    +0.202 C 
ATOM     43  C   UNL     1       6.470   3.990  24.576  0.00  0.00    +0.282 C 
ATOM     44  O   UNL     1       6.501   5.212  23.815  0.00  0.00    -0.343 OA
ATOM     45  C   UNL     1       7.650   5.483  22.986  0.00  0.00    +0.149 C 
ATOM     46  C   UNL     1       7.550   6.958  22.552  0.00  0.00    +0.041 C 
ATOM     47  C   UNL     1       8.999   5.270  23.704  0.00  0.00    +0.174 C 
BRANCH  47  48
ATOM     48  O   UNL     1      10.124   5.684  22.928  0.00  0.00    -0.387 OA
ATOM     49  H   UNL     1       9.801   5.952  22.051  0.00  0.00    +0.210 HD
ENDBRANCH  47  48
BRANCH  42  50
ATOM     50  O   UNL     1       8.076   4.563  26.370  0.00  0.00    -0.384 OA
ATOM     51  H   UNL     1       8.167   4.010  27.168  0.00  0.00    +0.210 HD
ENDBRANCH  42  50
BRANCH  41  52
ATOM     52  O   UNL     1       9.086   2.756  23.334  0.00  0.00    -0.340 OA
BRANCH  52  56
ATOM     53  C   UNL     1       9.121  -0.591  26.098  0.00  0.00    +0.041 C 
ATOM     54  C   UNL     1      10.016  -0.423  24.875  0.00  0.00    +0.149 C 
ATOM     55  O   UNL     1      10.022   0.934  24.419  0.00  0.00    -0.343 OA
ATOM     56  C   UNL     1       8.818   1.431  23.829  0.00  0.00    +0.282 C 
ATOM     57  C   UNL     1       8.321   0.500  22.676  0.00  0.00    +0.201 C 
ATOM     58  C   UNL     1       8.319  -0.983  23.112  0.00  0.00    +0.179 C 
ATOM     59  C   UNL     1       9.668  -1.376  23.732  0.00  0.00    +0.174 C 
BRANCH  59  60
ATOM     60  O   UNL     1      10.695  -1.342  22.729  0.00  0.00    -0.387 OA
ATOM     61  H   UNL     1      10.926  -0.400  22.580  0.00  0.00    +0.210 HD
ENDBRANCH  59  60
BRANCH  58  62
ATOM     62  O   UNL     1       8.025  -1.816  21.978  0.00  0.00    -0.386 OA
ATOM     63  H   UNL     1       7.882  -2.727  22.300  0.00  0.00    +0.210 HD
ENDBRANCH  58  62
BRANCH  57  64
ATOM     64  O   UNL     1       9.174   0.639  21.522  0.00  0.00    -0.384 OA
ATOM     65  H   UNL     1       9.981   0.122  21.717  0.00  0.00    +0.210 HD
ENDBRANCH  57  64
ENDBRANCH  52  56
ENDBRANCH  41  52
ENDBRANCH  40  43
ENDBRANCH  39  40
ENDBRANCH   1  39
TORSDOF 20
ENDMDL
MODEL 6
REMARK VINA RESULT:      -7.1      1.737      5.941
REMARK  Name = 
REMARK  22 active torsions:
REMARK  status: ('A' for Active; 'I' for Inactive)
REMARK    1  A    between atoms: C_1  and  C_2
REMARK    2  A    between atoms: C_3  and  O_61
REMARK    3  A    between atoms: C_5  and  O_60
REMARK    4  A    between atoms: C_7  and  O_59
REMARK    5  A    between atoms: C_8  and  O_11
REMARK    6  A    between atoms: O_11  and  C_12
REMARK    7  A    between atoms: C_14  and  O_58
REMARK    8  A    between atoms: C_16  and  C_57
REMARK    9  A    between atoms: C_18  and  O_22
REMARK   10  A    between atoms: C_20  and  O_21
REMARK   11  A    between atoms: O_22  and  C_23
REMARK   12  A    between atoms: C_23  and  C_24
REMARK   13  A    between atoms: C_25  and  O_56
REMARK   14  A    between atoms: C_27  and  O_55
REMARK   15  A    between atoms: C_28  and  O_54
REMARK   16  A    between atoms: C_29  and  O_32
REMARK   17  A    between atoms: O_32  and  C_33
REMARK   18  A    between atoms: C_34  and  C_46
REMARK   19  A    between atoms: C_38  and  O_45
REMARK   20  A    between atoms: C_40  and  O_44
REMARK   21  A    between atoms: C_48  and  O_53
REMARK   22  A    between atoms: C_49  and  O_52
REMARK                            x       y       z     vdW  Elec       q    Type
REMARK                         _______ _______ _______ _____ _____    ______ ____
ROOT
ATOM      1  C   UNL     1       8.108  -4.364  23.955  0.00  0.00    +0.179 C 
ATOM      2  O   UNL     1       7.533  -3.031  24.130  0.00  0.00    -0.331 OA
ATOM      3  C   UNL     1       6.084  -2.845  24.261  0.00  0.00    +0.340 C 
ATOM      4  C   UNL     1       5.310  -3.636  23.163  0.00  0.00    +0.214 C 
ATOM      5  C   UNL     1       5.815  -5.082  23.116  0.00  0.00    +0.180 C 
ATOM      6  C   UNL     1       7.334  -5.142  22.858  0.00  0.00    +0.177 C 
ENDROOT
BRANCH   6   7
ATOM      7  O   UNL     1       7.667  -4.630  21.555  0.00  0.00    -0.386 OA
ATOM      8  H   UNL     1       6.900  -4.780  20.972  0.00  0.00    +0.210 HD
ENDBRANCH   6   7
BRANCH   5   9
ATOM      9  O   UNL     1       5.127  -5.828  22.102  0.00  0.00    -0.386 OA
ATOM     10  H   UNL     1       4.473  -6.375  22.584  0.00  0.00    +0.210 HD
ENDBRANCH   5   9
BRANCH   4  11
ATOM     11  O   UNL     1       5.471  -3.067  21.839  0.00  0.00    -0.383 OA
ATOM     12  H   UNL     1       6.309  -2.572  21.826  0.00  0.00    +0.210 HD
ENDBRANCH   4  11
BRANCH   3  13
ATOM     13  O   UNL     1       5.776  -1.419  24.088  0.00  0.00    -0.453 OA
BRANCH  13  14
ATOM     14  C   UNL     1       5.972  -0.412  25.056  0.00  0.00    +0.214 A 
ATOM     15  C   UNL     1       5.018  -0.121  26.201  0.00  0.00    +0.238 A 
ATOM     16  O   UNL     1       4.036  -0.820  26.359  0.00  0.00    -0.283 OA
ATOM     17  C   UNL     1       5.284   1.069  27.079  0.00  0.00    +0.109 A 
ATOM     18  C   UNL     1       6.446   1.787  26.866  0.00  0.00    +0.147 A 
ATOM     19  C   UNL     1       6.783   2.943  27.574  0.00  0.00    +0.092 A 
ATOM     20  C   UNL     1       5.942   3.405  28.575  0.00  0.00    +0.124 A 
ATOM     21  C   UNL     1       4.774   2.689  28.846  0.00  0.00    +0.091 A 
ATOM     22  O   UNL     1       7.349   1.402  25.928  0.00  0.00    -0.451 OA
ATOM     23  C   UNL     1       4.452   1.541  28.119  0.00  0.00    +0.135 A 
ATOM     24  C   UNL     1       7.045   0.424  25.008  0.00  0.00    +0.181 A 
BRANCH  24  25
ATOM     25  C   UNL     1       8.077   0.558  23.957  0.00  0.00    +0.025 A 
ATOM     26  C   UNL     1       9.410   0.365  24.356  0.00  0.00    +0.015 A 
ATOM     27  C   UNL     1      10.407   1.252  23.934  0.00  0.00    +0.050 A 
ATOM     28  C   UNL     1      10.052   2.316  23.116  0.00  0.00    +0.158 A 
ATOM     29  C   UNL     1       8.755   2.442  22.631  0.00  0.00    +0.159 A 
ATOM     30  C   UNL     1       7.771   1.532  22.983  0.00  0.00    +0.060 A 
BRANCH  29  31
ATOM     31  O   UNL     1       8.374   3.559  21.941  0.00  0.00    -0.503 OA
ATOM     32  H   UNL     1       7.520   3.325  21.533  0.00  0.00    +0.292 HD
ENDBRANCH  29  31
BRANCH  28  33
ATOM     33  O   UNL     1      10.950   3.313  22.860  0.00  0.00    -0.503 OA
ATOM     34  H   UNL     1      10.683   3.693  22.004  0.00  0.00    +0.292 HD
ENDBRANCH  28  33
ENDBRANCH  24  25
BRANCH  23  35
ATOM     35  O   UNL     1       3.298   0.881  28.427  0.00  0.00    -0.506 OA
ATOM     36  H   UNL     1       3.007   0.366  27.658  0.00  0.00    +0.292 HD
ENDBRANCH  23  35
BRANCH  20  37
ATOM     37  O   UNL     1       6.208   4.523  29.294  0.00  0.00    -0.507 OA
ATOM     38  H   UNL     1       7.167   4.690  29.290  0.00  0.00    +0.292 HD
ENDBRANCH  20  37
ENDBRANCH  13  14
ENDBRANCH   3  13
BRANCH   1  39
ATOM     39  C   UNL     1       8.290  -5.307  25.209  0.00  0.00    +0.197 C 
BRANCH  39  40
ATOM     40  O   UNL     1       7.194  -5.700  26.048  0.00  0.00    -0.346 OA
BRANCH  40  43
ATOM     41  C   UNL     1       4.227  -5.231  27.447  0.00  0.00    +0.186 C 
ATOM     42  C   UNL     1       5.415  -4.309  27.043  0.00  0.00    +0.202 C 
ATOM     43  C   UNL     1       6.840  -4.953  27.222  0.00  0.00    +0.282 C 
ATOM     44  O   UNL     1       6.973  -5.595  28.503  0.00  0.00    -0.343 OA
ATOM     45  C   UNL     1       5.872  -6.383  29.001  0.00  0.00    +0.149 C 
ATOM     46  C   UNL     1       6.169  -6.677  30.485  0.00  0.00    +0.041 C 
ATOM     47  C   UNL     1       4.505  -5.674  28.903  0.00  0.00    +0.174 C 
BRANCH  47  48
ATOM     48  O   UNL     1       3.447  -6.396  29.533  0.00  0.00    -0.387 OA
ATOM     49  H   UNL     1       2.753  -6.552  28.870  0.00  0.00    +0.210 HD
ENDBRANCH  47  48
BRANCH  42  50
ATOM     50  O   UNL     1       5.321  -3.097  27.831  0.00  0.00    -0.384 OA
ATOM     51  H   UNL     1       4.376  -2.916  27.994  0.00  0.00    +0.210 HD
ENDBRANCH  42  50
BRANCH  41  52
ATOM     52  O   UNL     1       4.085  -6.278  26.469  0.00  0.00    -0.340 OA
BRANCH  52  56
ATOM     53  C   UNL     1       0.563  -4.662  24.513  0.00  0.00    +0.041 C 
ATOM     54  C   UNL     1       0.654  -5.995  25.247  0.00  0.00    +0.149 C 
ATOM     55  O   UNL     1       1.811  -6.045  26.089  0.00  0.00    -0.343 OA
ATOM     56  C   UNL     1       3.086  -6.108  25.446  0.00  0.00    +0.282 C 
ATOM     57  C   UNL     1       3.147  -7.280  24.414  0.00  0.00    +0.201 C 
ATOM     58  C   UNL     1       1.905  -7.284  23.493  0.00  0.00    +0.179 C 
ATOM     59  C   UNL     1       0.610  -7.206  24.316  0.00  0.00    +0.174 C 
BRANCH  59  60
ATOM     60  O   UNL     1       0.443  -8.411  25.078  0.00  0.00    -0.387 OA
ATOM     61  H   UNL     1       0.869  -9.137  24.574  0.00  0.00    +0.210 HD
ENDBRANCH  59  60
BRANCH  58  62
ATOM     62  O   UNL     1       1.913  -8.469  22.680  0.00  0.00    -0.386 OA
ATOM     63  H   UNL     1       1.893  -9.244  23.273  0.00  0.00    +0.210 HD
ENDBRANCH  58  62
BRANCH  57  64
ATOM     64  O   UNL     1       3.213  -8.545  25.100  0.00  0.00    -0.384 OA
ATOM     65  H   UNL     1       2.290  -8.788  25.312  0.00  0.00    +0.210 HD
ENDBRANCH  57  64
ENDBRANCH  52  56
ENDBRANCH  41  52
ENDBRANCH  40  43
ENDBRANCH  39  40
ENDBRANCH   1  39
TORSDOF 20
ENDMDL
MODEL 7
REMARK VINA RESULT:      -7.0      2.335      5.552
REMARK  Name = 
REMARK  22 active torsions:
REMARK  status: ('A' for Active; 'I' for Inactive)
REMARK    1  A    between atoms: C_1  and  C_2
REMARK    2  A    between atoms: C_3  and  O_61
REMARK    3  A    between atoms: C_5  and  O_60
REMARK    4  A    between atoms: C_7  and  O_59
REMARK    5  A    between atoms: C_8  and  O_11
REMARK    6  A    between atoms: O_11  and  C_12
REMARK    7  A    between atoms: C_14  and  O_58
REMARK    8  A    between atoms: C_16  and  C_57
REMARK    9  A    between atoms: C_18  and  O_22
REMARK   10  A    between atoms: C_20  and  O_21
REMARK   11  A    between atoms: O_22  and  C_23
REMARK   12  A    between atoms: C_23  and  C_24
REMARK   13  A    between atoms: C_25  and  O_56
REMARK   14  A    between atoms: C_27  and  O_55
REMARK   15  A    between atoms: C_28  and  O_54
REMARK   16  A    between atoms: C_29  and  O_32
REMARK   17  A    between atoms: O_32  and  C_33
REMARK   18  A    between atoms: C_34  and  C_46
REMARK   19  A    between atoms: C_38  and  O_45
REMARK   20  A    between atoms: C_40  and  O_44
REMARK   21  A    between atoms: C_48  and  O_53
REMARK   22  A    between atoms: C_49  and  O_52
REMARK                            x       y       z     vdW  Elec       q    Type
REMARK                         _______ _______ _______ _____ _____    ______ ____
ROOT
ATOM      1  C   UNL     1       3.442   0.418  27.349  0.00  0.00    +0.179 C 
ATOM      2  O   UNL     1       4.174   0.968  26.209  0.00  0.00    -0.331 OA
ATOM      3  C   UNL     1       5.568   1.402  26.346  0.00  0.00    +0.340 C 
ATOM      4  C   UNL     1       5.762   2.299  27.606  0.00  0.00    +0.214 C 
ATOM      5  C   UNL     1       5.132   1.617  28.825  0.00  0.00    +0.180 C 
ATOM      6  C   UNL     1       3.637   1.318  28.598  0.00  0.00    +0.177 C 
ENDROOT
BRANCH   6   7
ATOM      7  O   UNL     1       2.874   2.531  28.462  0.00  0.00    -0.386 OA
ATOM      8  H   UNL     1       3.189   2.993  27.665  0.00  0.00    +0.210 HD
ENDBRANCH   6   7
BRANCH   5   9
ATOM      9  O   UNL     1       5.286   2.430  29.997  0.00  0.00    -0.386 OA
ATOM     10  H   UNL     1       6.024   3.040  29.794  0.00  0.00    +0.210 HD
ENDBRANCH   5   9
BRANCH   4  11
ATOM     11  O   UNL     1       5.152   3.607  27.467  0.00  0.00    -0.383 OA
ATOM     12  H   UNL     1       5.820   4.210  27.095  0.00  0.00    +0.210 HD
ENDBRANCH   4  11
BRANCH   3  13
ATOM     13  O   UNL     1       5.928   2.201  25.166  0.00  0.00    -0.453 OA
BRANCH  13  14
ATOM     14  C   UNL     1       7.222   2.665  24.851  0.00  0.00    +0.214 A 
ATOM     15  C   UNL     1       7.646   4.123  24.880  0.00  0.00    +0.238 A 
ATOM     16  O   UNL     1       6.859   4.971  25.251  0.00  0.00    -0.283 OA
ATOM     17  C   UNL     1       9.019   4.487  24.390  0.00  0.00    +0.109 A 
ATOM     18  C   UNL     1       9.874   3.461  24.030  0.00  0.00    +0.147 A 
ATOM     19  C   UNL     1      11.152   3.667  23.508  0.00  0.00    +0.092 A 
ATOM     20  C   UNL     1      11.635   4.958  23.360  0.00  0.00    +0.124 A 
ATOM     21  C   UNL     1      10.816   6.023  23.744  0.00  0.00    +0.091 A 
ATOM     22  O   UNL     1       9.507   2.160  24.163  0.00  0.00    -0.451 OA
ATOM     23  C   UNL     1       9.537   5.794  24.254  0.00  0.00    +0.135 A 
ATOM     24  C   UNL     1       8.205   1.815  24.446  0.00  0.00    +0.181 A 
BRANCH  24  25
ATOM     25  C   UNL     1       8.120   0.372  24.132  0.00  0.00    +0.025 A 
ATOM     26  C   UNL     1       8.624  -0.514  25.099  0.00  0.00    +0.015 A 
ATOM     27  C   UNL     1       9.443  -1.582  24.716  0.00  0.00    +0.050 A 
ATOM     28  C   UNL     1       9.740  -1.747  23.370  0.00  0.00    +0.158 A 
ATOM     29  C   UNL     1       9.151  -0.940  22.405  0.00  0.00    +0.159 A 
ATOM     30  C   UNL     1       8.282   0.080  22.761  0.00  0.00    +0.060 A 
BRANCH  29  31
ATOM     31  O   UNL     1       9.547  -1.013  21.098  0.00  0.00    -0.503 OA
ATOM     32  H   UNL     1      10.357  -0.472  21.049  0.00  0.00    +0.292 HD
ENDBRANCH  29  31
BRANCH  28  33
ATOM     33  O   UNL     1      10.698  -2.642  22.985  0.00  0.00    -0.503 OA
ATOM     34  H   UNL     1      10.223  -3.472  22.801  0.00  0.00    +0.292 HD
ENDBRANCH  28  33
ENDBRANCH  24  25
BRANCH  23  35
ATOM     35  O   UNL     1       8.781   6.873  24.614  0.00  0.00    -0.506 OA
ATOM     36  H   UNL     1       8.226   6.636  25.376  0.00  0.00    +0.292 HD
ENDBRANCH  23  35
BRANCH  20  37
ATOM     37  O   UNL     1      12.863   5.225  22.854  0.00  0.00    -0.507 OA
ATOM     38  H   UNL     1      12.954   4.800  21.982  0.00  0.00    +0.292 HD
ENDBRANCH  20  37
ENDBRANCH  13  14
ENDBRANCH   3  13
BRANCH   1  39
ATOM     39  C   UNL     1       3.672  -1.087  27.772  0.00  0.00    +0.197 C 
BRANCH  39  40
ATOM     40  O   UNL     1       3.048  -2.186  27.092  0.00  0.00    -0.346 OA
BRANCH  40  43
ATOM     41  C   UNL     1       3.693  -5.323  26.242  0.00  0.00    +0.186 C 
ATOM     42  C   UNL     1       2.434  -4.549  26.733  0.00  0.00    +0.202 C 
ATOM     43  C   UNL     1       2.727  -3.407  27.776  0.00  0.00    +0.282 C 
ATOM     44  O   UNL     1       3.613  -3.857  28.816  0.00  0.00    -0.343 OA
ATOM     45  C   UNL     1       4.748  -4.672  28.458  0.00  0.00    +0.149 C 
ATOM     46  C   UNL     1       5.318  -5.248  29.769  0.00  0.00    +0.041 C 
ATOM     47  C   UNL     1       4.399  -5.843  27.515  0.00  0.00    +0.174 C 
BRANCH  47  48
ATOM     48  O   UNL     1       5.495  -6.730  27.287  0.00  0.00    -0.387 OA
ATOM     49  H   UNL     1       6.318  -6.220  27.378  0.00  0.00    +0.210 HD
ENDBRANCH  47  48
BRANCH  42  50
ATOM     50  O   UNL     1       1.518  -5.515  27.305  0.00  0.00    -0.384 OA
ATOM     51  H   UNL     1       0.681  -5.054  27.505  0.00  0.00    +0.210 HD
ENDBRANCH  42  50
BRANCH  41  52
ATOM     52  O   UNL     1       4.466  -4.471  25.376  0.00  0.00    -0.340 OA
BRANCH  52  56
ATOM     53  C   UNL     1       8.560  -5.428  24.294  0.00  0.00    +0.041 C 
ATOM     54  C   UNL     1       7.659  -4.412  23.601  0.00  0.00    +0.149 C 
ATOM     55  O   UNL     1       6.540  -4.064  24.424  0.00  0.00    -0.343 OA
ATOM     56  C   UNL     1       5.545  -5.070  24.635  0.00  0.00    +0.282 C 
ATOM     57  C   UNL     1       5.029  -5.654  23.280  0.00  0.00    +0.201 C 
ATOM     58  C   UNL     1       6.202  -6.024  22.344  0.00  0.00    +0.179 C 
ATOM     59  C   UNL     1       7.193  -4.858  22.216  0.00  0.00    +0.174 C 
BRANCH  59  60
ATOM     60  O   UNL     1       6.571  -3.762  21.527  0.00  0.00    -0.387 OA
ATOM     61  H   UNL     1       5.657  -4.040  21.302  0.00  0.00    +0.210 HD
ENDBRANCH  59  60
BRANCH  58  62
ATOM     62  O   UNL     1       5.689  -6.392  21.053  0.00  0.00    -0.386 OA
ATOM     63  H   UNL     1       4.829  -6.837  21.184  0.00  0.00    +0.210 HD
ENDBRANCH  58  62
BRANCH  57  64
ATOM     64  O   UNL     1       4.192  -4.691  22.610  0.00  0.00    -0.384 OA
ATOM     65  H   UNL     1       4.101  -5.005  21.688  0.00  0.00    +0.210 HD
ENDBRANCH  57  64
ENDBRANCH  52  56
ENDBRANCH  41  52
ENDBRANCH  40  43
ENDBRANCH  39  40
ENDBRANCH   1  39
TORSDOF 20
ENDMDL
MODEL 8
REMARK VINA RESULT:      -6.9      2.555      9.076
REMARK  Name = 
REMARK  22 active torsions:
REMARK  status: ('A' for Active; 'I' for Inactive)
REMARK    1  A    between atoms: C_1  and  C_2
REMARK    2  A    between atoms: C_3  and  O_61
REMARK    3  A    between atoms: C_5  and  O_60
REMARK    4  A    between atoms: C_7  and  O_59
REMARK    5  A    between atoms: C_8  and  O_11
REMARK    6  A    between atoms: O_11  and  C_12
REMARK    7  A    between atoms: C_14  and  O_58
REMARK    8  A    between atoms: C_16  and  C_57
REMARK    9  A    between atoms: C_18  and  O_22
REMARK   10  A    between atoms: C_20  and  O_21
REMARK   11  A    between atoms: O_22  and  C_23
REMARK   12  A    between atoms: C_23  and  C_24
REMARK   13  A    between atoms: C_25  and  O_56
REMARK   14  A    between atoms: C_27  and  O_55
REMARK   15  A    between atoms: C_28  and  O_54
REMARK   16  A    between atoms: C_29  and  O_32
REMARK   17  A    between atoms: O_32  and  C_33
REMARK   18  A    between atoms: C_34  and  C_46
REMARK   19  A    between atoms: C_38  and  O_45
REMARK   20  A    between atoms: C_40  and  O_44
REMARK   21  A    between atoms: C_48  and  O_53
REMARK   22  A    between atoms: C_49  and  O_52
REMARK                            x       y       z     vdW  Elec       q    Type
REMARK                         _______ _______ _______ _____ _____    ______ ____
ROOT
ATOM      1  C   UNL     1       8.033  -0.053  26.784  0.00  0.00    +0.179 C 
ATOM      2  O   UNL     1       7.687  -1.456  27.007  0.00  0.00    -0.331 OA
ATOM      3  C   UNL     1       6.572  -2.083  26.289  0.00  0.00    +0.340 C 
ATOM      4  C   UNL     1       5.295  -1.190  26.334  0.00  0.00    +0.214 C 
ATOM      5  C   UNL     1       5.654   0.244  25.929  0.00  0.00    +0.180 C 
ATOM      6  C   UNL     1       6.756   0.828  26.834  0.00  0.00    +0.177 C 
ENDROOT
BRANCH   6   7
ATOM      7  O   UNL     1       6.301   0.970  28.191  0.00  0.00    -0.386 OA
ATOM      8  H   UNL     1       5.333   1.078  28.171  0.00  0.00    +0.210 HD
ENDBRANCH   6   7
BRANCH   5   9
ATOM      9  O   UNL     1       4.497   1.090  25.975  0.00  0.00    -0.386 OA
ATOM     10  H   UNL     1       3.819   0.574  26.459  0.00  0.00    +0.210 HD
ENDBRANCH   5   9
BRANCH   4  11
ATOM     11  O   UNL     1       4.689  -1.139  27.650  0.00  0.00    -0.383 OA
ATOM     12  H   UNL     1       5.141  -0.446  28.161  0.00  0.00    +0.210 HD
ENDBRANCH   4  11
BRANCH   3  13
ATOM     13  O   UNL     1       6.251  -3.359  26.943  0.00  0.00    -0.453 OA
BRANCH  13  14
ATOM     14  C   UNL     1       5.401  -4.358  26.424  0.00  0.00    +0.214 A 
ATOM     15  C   UNL     1       4.071  -4.760  27.035  0.00  0.00    +0.238 A 
ATOM     16  O   UNL     1       3.650  -4.163  28.006  0.00  0.00    -0.283 OA
ATOM     17  C   UNL     1       3.333  -5.933  26.454  0.00  0.00    +0.109 A 
ATOM     18  C   UNL     1       3.853  -6.531  25.320  0.00  0.00    +0.147 A 
ATOM     19  C   UNL     1       3.296  -7.660  24.716  0.00  0.00    +0.092 A 
ATOM     20  C   UNL     1       2.139  -8.218  25.238  0.00  0.00    +0.124 A 
ATOM     21  C   UNL     1       1.562  -7.624  26.363  0.00  0.00    +0.091 A 
ATOM     22  O   UNL     1       4.967  -6.044  24.716  0.00  0.00    -0.451 OA
ATOM     23  C   UNL     1       2.142  -6.502  26.957  0.00  0.00    +0.135 A 
ATOM     24  C   UNL     1       5.744  -5.084  25.325  0.00  0.00    +0.181 A 
BRANCH  24  25
ATOM     25  C   UNL     1       7.020  -5.100  24.577  0.00  0.00    +0.025 A 
ATOM     26  C   UNL     1       8.194  -5.227  25.339  0.00  0.00    +0.015 A 
ATOM     27  C   UNL     1       9.296  -4.406  25.075  0.00  0.00    +0.050 A 
ATOM     28  C   UNL     1       9.206  -3.474  24.050  0.00  0.00    +0.158 A 
ATOM     29  C   UNL     1       8.088  -3.426  23.226  0.00  0.00    +0.159 A 
ATOM     30  C   UNL     1       7.015  -4.279  23.429  0.00  0.00    +0.060 A 
BRANCH  29  31
ATOM     31  O   UNL     1       7.941  -2.423  22.308  0.00  0.00    -0.503 OA
ATOM     32  H   UNL     1       8.520  -1.704  22.625  0.00  0.00    +0.292 HD
ENDBRANCH  29  31
BRANCH  28  33
ATOM     33  O   UNL     1      10.173  -2.521  23.904  0.00  0.00    -0.503 OA
ATOM     34  H   UNL     1      11.013  -3.009  23.831  0.00  0.00    +0.292 HD
ENDBRANCH  28  33
ENDBRANCH  24  25
BRANCH  23  35
ATOM     35  O   UNL     1       1.534  -5.963  28.054  0.00  0.00    -0.506 OA
ATOM     36  H   UNL     1       2.139  -5.334  28.479  0.00  0.00    +0.292 HD
ENDBRANCH  23  35
BRANCH  20  37
ATOM     37  O   UNL     1       1.553  -9.317  24.703  0.00  0.00    -0.507 OA
ATOM     38  H   UNL     1       0.586  -9.238  24.779  0.00  0.00    +0.292 HD
ENDBRANCH  20  37
ENDBRANCH  13  14
ENDBRANCH   3  13
BRANCH   1  39
ATOM     39  C   UNL     1       8.874   0.350  25.509  0.00  0.00    +0.197 C 
BRANCH  39  40
ATOM     40  O   UNL     1       8.443   0.058  24.172  0.00  0.00    -0.346 OA
BRANCH  40  43
ATOM     41  C   UNL     1       7.568   2.877  22.666  0.00  0.00    +0.186 C 
ATOM     42  C   UNL     1       7.910   1.433  22.193  0.00  0.00    +0.202 C 
ATOM     43  C   UNL     1       9.027   0.710  23.034  0.00  0.00    +0.282 C 
ATOM     44  O   UNL     1      10.162   1.568  23.251  0.00  0.00    -0.343 OA
ATOM     45  C   UNL     1       9.933   2.951  23.588  0.00  0.00    +0.149 C 
ATOM     46  C   UNL     1      11.287   3.675  23.453  0.00  0.00    +0.041 C 
ATOM     47  C   UNL     1       8.906   3.652  22.673  0.00  0.00    +0.174 C 
BRANCH  47  48
ATOM     48  O   UNL     1       8.797   5.054  22.917  0.00  0.00    -0.387 OA
ATOM     49  H   UNL     1       8.743   5.189  23.879  0.00  0.00    +0.210 HD
ENDBRANCH  47  48
BRANCH  42  50
ATOM     50  O   UNL     1       8.311   1.506  20.803  0.00  0.00    -0.384 OA
ATOM     51  H   UNL     1       8.987   2.205  20.720  0.00  0.00    +0.210 HD
ENDBRANCH  42  50
BRANCH  41  52
ATOM     52  O   UNL     1       6.852   2.810  23.913  0.00  0.00    -0.340 OA
BRANCH  52  56
ATOM     53  C   UNL     1       5.079   6.141  26.060  0.00  0.00    +0.041 C 
ATOM     54  C   UNL     1       4.603   4.693  26.091  0.00  0.00    +0.149 C 
ATOM     55  O   UNL     1       5.612   3.804  25.601  0.00  0.00    -0.343 OA
ATOM     56  C   UNL     1       5.914   3.863  24.204  0.00  0.00    +0.282 C 
ATOM     57  C   UNL     1       4.624   3.710  23.335  0.00  0.00    +0.201 C 
ATOM     58  C   UNL     1       3.492   4.635  23.840  0.00  0.00    +0.179 C 
ATOM     59  C   UNL     1       3.283   4.472  25.353  0.00  0.00    +0.174 C 
BRANCH  59  60
ATOM     60  O   UNL     1       2.771   3.161  25.636  0.00  0.00    -0.387 OA
ATOM     61  H   UNL     1       2.324   3.205  26.509  0.00  0.00    +0.210 HD
ENDBRANCH  59  60
BRANCH  58  62
ATOM     62  O   UNL     1       2.278   4.341  23.129  0.00  0.00    -0.386 OA
ATOM     63  H   UNL     1       2.392   3.483  22.677  0.00  0.00    +0.210 HD
ENDBRANCH  58  62
BRANCH  57  64
ATOM     64  O   UNL     1       4.155   2.348  23.375  0.00  0.00    -0.384 OA
ATOM     65  H   UNL     1       4.942   1.795  23.553  0.00  0.00    +0.210 HD
ENDBRANCH  57  64
ENDBRANCH  52  56
ENDBRANCH  41  52
ENDBRANCH  40  43
ENDBRANCH  39  40
ENDBRANCH   1  39
TORSDOF 20
ENDMDL
MODEL 9
REMARK VINA RESULT:      -6.8      2.000      6.486
REMARK  Name = 
REMARK  22 active torsions:
REMARK  status: ('A' for Active; 'I' for Inactive)
REMARK    1  A    between atoms: C_1  and  C_2
REMARK    2  A    between atoms: C_3  and  O_61
REMARK    3  A    between atoms: C_5  and  O_60
REMARK    4  A    between atoms: C_7  and  O_59
REMARK    5  A    between atoms: C_8  and  O_11
REMARK    6  A    between atoms: O_11  and  C_12
REMARK    7  A    between atoms: C_14  and  O_58
REMARK    8  A    between atoms: C_16  and  C_57
REMARK    9  A    between atoms: C_18  and  O_22
REMARK   10  A    between atoms: C_20  and  O_21
REMARK   11  A    between atoms: O_22  and  C_23
REMARK   12  A    between atoms: C_23  and  C_24
REMARK   13  A    between atoms: C_25  and  O_56
REMARK   14  A    between atoms: C_27  and  O_55
REMARK   15  A    between atoms: C_28  and  O_54
REMARK   16  A    between atoms: C_29  and  O_32
REMARK   17  A    between atoms: O_32  and  C_33
REMARK   18  A    between atoms: C_34  and  C_46
REMARK   19  A    between atoms: C_38  and  O_45
REMARK   20  A    between atoms: C_40  and  O_44
REMARK   21  A    between atoms: C_48  and  O_53
REMARK   22  A    between atoms: C_49  and  O_52
REMARK                            x       y       z     vdW  Elec       q    Type
REMARK                         _______ _______ _______ _____ _____    ______ ____
ROOT
ATOM      1  C   UNL     1       7.376  -3.177  24.062  0.00  0.00    +0.179 C 
ATOM      2  O   UNL     1       7.317  -1.998  24.925  0.00  0.00    -0.331 OA
ATOM      3  C   UNL     1       7.626  -0.663  24.402  0.00  0.00    +0.340 C 
ATOM      4  C   UNL     1       8.947  -0.670  23.575  0.00  0.00    +0.214 C 
ATOM      5  C   UNL     1       8.912  -1.816  22.557  0.00  0.00    +0.180 C 
ATOM      6  C   UNL     1       8.696  -3.178  23.245  0.00  0.00    +0.177 C 
ENDROOT
BRANCH   6   7
ATOM      7  O   UNL     1       9.807  -3.520  24.093  0.00  0.00    -0.386 OA
ATOM      8  H   UNL     1      10.434  -4.045  23.563  0.00  0.00    +0.210 HD
ENDBRANCH   6   7
BRANCH   5   9
ATOM      9  O   UNL     1      10.124  -1.852  21.791  0.00  0.00    -0.386 OA
ATOM     10  H   UNL     1      10.128  -1.020  21.274  0.00  0.00    +0.210 HD
ENDBRANCH   5   9
BRANCH   4  11
ATOM     11  O   UNL     1      10.128  -0.847  24.398  0.00  0.00    -0.383 OA
ATOM     12  H   UNL     1      10.214  -1.795  24.598  0.00  0.00    +0.210 HD
ENDBRANCH   4  11
BRANCH   3  13
ATOM     13  O   UNL     1       7.811   0.253  25.535  0.00  0.00    -0.453 OA
BRANCH  13  14
ATOM     14  C   UNL     1       6.816   1.082  26.094  0.00  0.00    +0.214 A 
ATOM     15  C   UNL     1       5.839   0.649  27.172  0.00  0.00    +0.238 A 
ATOM     16  O   UNL     1       5.927  -0.464  27.652  0.00  0.00    -0.283 OA
ATOM     17  C   UNL     1       4.744   1.594  27.579  0.00  0.00    +0.109 A 
ATOM     18  C   UNL     1       4.738   2.860  27.022  0.00  0.00    +0.147 A 
ATOM     19  C   UNL     1       3.747   3.811  27.273  0.00  0.00    +0.092 A 
ATOM     20  C   UNL     1       2.715   3.513  28.148  0.00  0.00    +0.124 A 
ATOM     21  C   UNL     1       2.701   2.257  28.759  0.00  0.00    +0.091 A 
ATOM     22  O   UNL     1       5.720   3.260  26.173  0.00  0.00    -0.451 OA
ATOM     23  C   UNL     1       3.697   1.317  28.486  0.00  0.00    +0.135 A 
ATOM     24  C   UNL     1       6.628   2.360  25.663  0.00  0.00    +0.181 A 
BRANCH  24  25
ATOM     25  C   UNL     1       7.259   3.063  24.524  0.00  0.00    +0.025 A 
ATOM     26  C   UNL     1       6.699   2.834  23.256  0.00  0.00    +0.015 A 
ATOM     27  C   UNL     1       7.527   2.576  22.158  0.00  0.00    +0.050 A 
ATOM     28  C   UNL     1       8.902   2.555  22.348  0.00  0.00    +0.158 A 
ATOM     29  C   UNL     1       9.459   2.892  23.576  0.00  0.00    +0.159 A 
ATOM     30  C   UNL     1       8.655   3.218  24.657  0.00  0.00    +0.060 A 
BRANCH  29  31
ATOM     31  O   UNL     1      10.799   2.739  23.800  0.00  0.00    -0.503 OA
ATOM     32  H   UNL     1      10.965   1.784  23.696  0.00  0.00    +0.292 HD
ENDBRANCH  29  31
BRANCH  28  33
ATOM     33  O   UNL     1       9.724   2.102  21.355  0.00  0.00    -0.503 OA
ATOM     34  H   UNL     1       9.513   2.642  20.573  0.00  0.00    +0.292 HD
ENDBRANCH  28  33
ENDBRANCH  24  25
BRANCH  23  35
ATOM     35  O   UNL     1       3.634   0.106  29.112  0.00  0.00    -0.506 OA
ATOM     36  H   UNL     1       2.774  -0.306  28.927  0.00  0.00    +0.292 HD
ENDBRANCH  23  35
BRANCH  20  37
ATOM     37  O   UNL     1       1.719   4.389  28.428  0.00  0.00    -0.507 OA
ATOM     38  H   UNL     1       1.184   4.539  27.628  0.00  0.00    +0.292 HD
ENDBRANCH  20  37
ENDBRANCH  13  14
ENDBRANCH   3  13
BRANCH   1  39
ATOM     39  C   UNL     1       6.177  -3.489  23.082  0.00  0.00    +0.197 C 
BRANCH  39  40
ATOM     40  O   UNL     1       4.869  -3.850  23.549  0.00  0.00    -0.346 OA
BRANCH  40  43
ATOM     41  C   UNL     1       3.384  -6.014  25.572  0.00  0.00    +0.186 C 
ATOM     42  C   UNL     1       4.493  -6.103  24.482  0.00  0.00    +0.202 C 
ATOM     43  C   UNL     1       4.295  -5.133  23.259  0.00  0.00    +0.282 C 
ATOM     44  O   UNL     1       2.945  -5.178  22.763  0.00  0.00    -0.343 OA
ATOM     45  C   UNL     1       1.858  -5.207  23.710  0.00  0.00    +0.149 C 
ATOM     46  C   UNL     1       0.584  -5.562  22.918  0.00  0.00    +0.041 C 
ATOM     47  C   UNL     1       2.043  -6.245  24.837  0.00  0.00    +0.174 C 
BRANCH  47  48
ATOM     48  O   UNL     1       0.899  -6.372  25.682  0.00  0.00    -0.387 OA
ATOM     49  H   UNL     1       0.128  -6.033  25.196  0.00  0.00    +0.210 HD
ENDBRANCH  47  48
BRANCH  42  50
ATOM     50  O   UNL     1       4.548  -7.475  24.019  0.00  0.00    -0.384 OA
ATOM     51  H   UNL     1       3.757  -7.938  24.353  0.00  0.00    +0.210 HD
ENDBRANCH  42  50
BRANCH  41  52
ATOM     52  O   UNL     1       3.524  -4.774  26.290  0.00  0.00    -0.340 OA
BRANCH  52  56
ATOM     53  C   UNL     1       1.589  -5.829  30.030  0.00  0.00    +0.041 C 
ATOM     54  C   UNL     1       1.415  -4.524  29.262  0.00  0.00    +0.149 C 
ATOM     55  O   UNL     1       1.873  -4.650  27.912  0.00  0.00    -0.343 OA
ATOM     56  C   UNL     1       3.281  -4.790  27.709  0.00  0.00    +0.282 C 
ATOM     57  C   UNL     1       4.075  -3.646  28.419  0.00  0.00    +0.201 C 
ATOM     58  C   UNL     1       3.600  -3.453  29.878  0.00  0.00    +0.179 C 
ATOM     59  C   UNL     1       2.071  -3.325  29.945  0.00  0.00    +0.174 C 
BRANCH  59  60
ATOM     60  O   UNL     1       1.655  -2.105  29.312  0.00  0.00    -0.387 OA
ATOM     61  H   UNL     1       1.257  -2.346  28.448  0.00  0.00    +0.210 HD
ENDBRANCH  59  60
BRANCH  58  62
ATOM     62  O   UNL     1       4.228  -2.287  30.437  0.00  0.00    -0.386 OA
ATOM     63  H   UNL     1       4.833  -1.918  29.765  0.00  0.00    +0.210 HD
ENDBRANCH  58  62
BRANCH  57  64
ATOM     64  O   UNL     1       3.899  -2.404  27.710  0.00  0.00    -0.384 OA
ATOM     65  H   UNL     1       3.038  -2.045  28.001  0.00  0.00    +0.210 HD
ENDBRANCH  57  64
ENDBRANCH  52  56
ENDBRANCH  41  52
ENDBRANCH  40  43
ENDBRANCH  39  40
ENDBRANCH   1  39
TORSDOF 20
ENDMDL
