MODEL 1
REMARK VINA RESULT:      -7.5      0.000      0.000
REMARK  Name = 
REMARK  18 active torsions:
REMARK  status: ('A' for Active; 'I' for Inactive)
REMARK    1  A    between atoms: C_3  and  O_51
REMARK    2  A    between atoms: C_4  and  O_50
REMARK    3  A    between atoms: C_6  and  C_7
REMARK    4  A    between atoms: C_8  and  O_35
REMARK    5  A    between atoms: C_12  and  O_34
REMARK    6  A    between atoms: C_14  and  O_18
REMARK    7  A    between atoms: O_18  and  C_19
REMARK    8  A    between atoms: C_21  and  O_33
REMARK    9  A    between atoms: C_22  and  O_32
REMARK   10  A    between atoms: C_24  and  O_31
REMARK   11  A    between atoms: C_26  and  C_28
REMARK   12  A    between atoms: C_28  and  O_30
REMARK   13  A    between atoms: O_35  and  C_36
REMARK   14  A    between atoms: C_38  and  O_49
REMARK   15  A    between atoms: C_39  and  O_48
REMARK   16  A    between atoms: C_40  and  O_47
REMARK   17  A    between atoms: C_42  and  C_44
REMARK   18  A    between atoms: C_44  and  O_46
REMARK                            x       y       z     vdW  Elec       q    Type
REMARK                         _______ _______ _______ _____ _____    ______ ____
ROOT
ATOM      1  C   UNL     1       7.440   0.926  24.999  0.00  0.00    +0.181 A 
ATOM      2  O   UNL     1       6.676  -0.222  25.004  0.00  0.00    -0.451 OA
ATOM      3  C   UNL     1       7.230  -1.417  24.646  0.00  0.00    +0.147 A 
ATOM      4  C   UNL     1       8.516  -1.538  24.157  0.00  0.00    +0.109 A 
ATOM      5  C   UNL     1       8.974  -2.819  23.803  0.00  0.00    +0.135 A 
ATOM      6  C   UNL     1       8.187  -3.969  24.040  0.00  0.00    +0.092 A 
ATOM      7  C   UNL     1       6.930  -3.844  24.635  0.00  0.00    +0.131 A 
ATOM      8  C   UNL     1       9.341  -0.302  24.100  0.00  0.00    +0.238 A 
ATOM      9  O   UNL     1      10.488  -0.344  23.677  0.00  0.00    -0.283 OA
ATOM     10  C   UNL     1       6.434  -2.552  24.862  0.00  0.00    +0.093 A 
ATOM     11  C   UNL     1       8.737   0.975  24.628  0.00  0.00    +0.214 A 
ENDROOT
BRANCH   1  13
ATOM     12  C   UNL     1       5.595   2.683  24.980  0.00  0.00    +0.015 A 
ATOM     13  C   UNL     1       6.702   2.078  25.594  0.00  0.00    +0.025 A 
ATOM     14  C   UNL     1       7.195   2.688  26.757  0.00  0.00    +0.060 A 
ATOM     15  C   UNL     1       6.742   3.944  27.131  0.00  0.00    +0.159 A 
ATOM     16  C   UNL     1       5.810   4.623  26.356  0.00  0.00    +0.158 A 
ATOM     17  C   UNL     1       5.189   3.980  25.304  0.00  0.00    +0.050 A 
BRANCH  16  18
ATOM     18  O   UNL     1       5.542   5.925  26.657  0.00  0.00    -0.503 OA
ATOM     19  H   UNL     1       6.175   6.204  27.344  0.00  0.00    +0.292 HD
ENDBRANCH  16  18
BRANCH  15  20
ATOM     20  O   UNL     1       7.266   4.537  28.240  0.00  0.00    -0.503 OA
ATOM     21  H   UNL     1       6.893   5.440  28.232  0.00  0.00    +0.292 HD
ENDBRANCH  15  20
ENDBRANCH   1  13
BRANCH   5  22
ATOM     22  O   UNL     1      10.202  -3.044  23.244  0.00  0.00    -0.506 OA
ATOM     23  H   UNL     1      10.789  -3.451  23.921  0.00  0.00    +0.292 HD
ENDBRANCH   5  22
BRANCH  11  24
ATOM     24  O   UNL     1       9.399   2.184  24.488  0.00  0.00    -0.453 OA
BRANCH  24  25
ATOM     25  C   UNL     1       9.863   2.705  23.229  0.00  0.00    +0.340 C 
ATOM     26  O   UNL     1      11.156   3.367  23.334  0.00  0.00    -0.322 OA
ATOM     27  C   UNL     1      11.231   4.619  24.076  0.00  0.00    +0.261 C 
ATOM     28  C   UNL     1       9.989   5.530  24.095  0.00  0.00    +0.185 C 
ATOM     29  C   UNL     1       8.694   4.741  23.942  0.00  0.00    +0.180 C 
ATOM     30  C   UNL     1       8.874   3.778  22.746  0.00  0.00    +0.214 C 
BRANCH  30  31
ATOM     31  O   UNL     1       7.627   3.295  22.269  0.00  0.00    -0.383 OA
ATOM     32  H   UNL     1       7.295   2.586  22.861  0.00  0.00    +0.210 HD
ENDBRANCH  30  31
BRANCH  29  33
ATOM     33  O   UNL     1       7.620   5.670  23.755  0.00  0.00    -0.386 OA
ATOM     34  H   UNL     1       6.810   5.134  23.663  0.00  0.00    +0.210 HD
ENDBRANCH  29  33
BRANCH  28  35
ATOM     35  O   UNL     1      10.007   6.481  23.018  0.00  0.00    -0.386 OA
ATOM     36  H   UNL     1      10.933   6.810  22.988  0.00  0.00    +0.210 HD
ENDBRANCH  28  35
BRANCH  27  37
ATOM     37  C   UNL     1      12.433   5.432  23.565  0.00  0.00    +0.337 C 
ATOM     38  O   UNL     1      12.909   5.339  22.444  0.00  0.00    -0.248 OA
BRANCH  37  39
ATOM     39  O   UNL     1      12.904   6.311  24.488  0.00  0.00    -0.479 OA
ATOM     40  H   UNL     1      13.884   6.298  24.473  0.00  0.00    +0.295 HD
ENDBRANCH  37  39
ENDBRANCH  27  37
ENDBRANCH  24  25
ENDBRANCH  11  24
BRANCH   7  41
ATOM     41  O   UNL     1       6.285  -5.012  25.014  0.00  0.00    -0.461 OA
BRANCH  41  42
ATOM     42  C   UNL     1       4.966  -4.798  25.569  0.00  0.00    +0.340 C 
ATOM     43  O   UNL     1       4.924  -5.271  26.928  0.00  0.00    -0.322 OA
ATOM     44  C   UNL     1       4.852  -6.706  26.984  0.00  0.00    +0.261 C 
ATOM     45  C   UNL     1       3.473  -7.150  26.491  0.00  0.00    +0.185 C 
ATOM     46  C   UNL     1       3.403  -6.820  24.996  0.00  0.00    +0.180 C 
ATOM     47  C   UNL     1       3.786  -5.354  24.714  0.00  0.00    +0.214 C 
BRANCH  47  48
ATOM     48  O   UNL     1       3.976  -5.132  23.314  0.00  0.00    -0.383 OA
ATOM     49  H   UNL     1       3.237  -4.579  22.997  0.00  0.00    +0.210 HD
ENDBRANCH  47  48
BRANCH  46  50
ATOM     50  O   UNL     1       4.206  -7.715  24.215  0.00  0.00    -0.386 OA
ATOM     51  H   UNL     1       3.850  -8.617  24.285  0.00  0.00    +0.210 HD
ENDBRANCH  46  50
BRANCH  45  52
ATOM     52  O   UNL     1       2.472  -6.379  27.178  0.00  0.00    -0.386 OA
ATOM     53  H   UNL     1       2.068  -5.770  26.536  0.00  0.00    +0.210 HD
ENDBRANCH  45  52
BRANCH  44  54
ATOM     54  C   UNL     1       5.102  -7.187  28.406  0.00  0.00    +0.337 C 
ATOM     55  O   UNL     1       6.184  -7.169  28.968  0.00  0.00    -0.248 OA
BRANCH  54  56
ATOM     56  O   UNL     1       3.953  -7.576  29.015  0.00  0.00    -0.479 OA
ATOM     57  H   UNL     1       4.109  -7.558  29.987  0.00  0.00    +0.295 HD
ENDBRANCH  54  56
ENDBRANCH  44  54
ENDBRANCH  41  42
ENDBRANCH   7  41
TORSDOF 18
ENDMDL
MODEL 2
REMARK VINA RESULT:      -7.4      1.438      2.652
REMARK  Name = 
REMARK  18 active torsions:
REMARK  status: ('A' for Active; 'I' for Inactive)
REMARK    1  A    between atoms: C_3  and  O_51
REMARK    2  A    between atoms: C_4  and  O_50
REMARK    3  A    between atoms: C_6  and  C_7
REMARK    4  A    between atoms: C_8  and  O_35
REMARK    5  A    between atoms: C_12  and  O_34
REMARK    6  A    between atoms: C_14  and  O_18
REMARK    7  A    between atoms: O_18  and  C_19
REMARK    8  A    between atoms: C_21  and  O_33
REMARK    9  A    between atoms: C_22  and  O_32
REMARK   10  A    between atoms: C_24  and  O_31
REMARK   11  A    between atoms: C_26  and  C_28
REMARK   12  A    between atoms: C_28  and  O_30
REMARK   13  A    between atoms: O_35  and  C_36
REMARK   14  A    between atoms: C_38  and  O_49
REMARK   15  A    between atoms: C_39  and  O_48
REMARK   16  A    between atoms: C_40  and  O_47
REMARK   17  A    between atoms: C_42  and  C_44
REMARK   18  A    between atoms: C_44  and  O_46
REMARK                            x       y       z     vdW  Elec       q    Type
REMARK                         _______ _______ _______ _____ _____    ______ ____
ROOT
ATOM      1  C   UNL     1       6.705   1.135  23.322  0.00  0.00    +0.181 A 
ATOM      2  O   UNL     1       6.088  -0.095  23.234  0.00  0.00    -0.451 OA
ATOM      3  C   UNL     1       6.819  -1.241  23.360  0.00  0.00    +0.147 A 
ATOM      4  C   UNL     1       8.196  -1.252  23.463  0.00  0.00    +0.109 A 
ATOM      5  C   UNL     1       8.845  -2.494  23.570  0.00  0.00    +0.135 A 
ATOM      6  C   UNL     1       8.110  -3.697  23.681  0.00  0.00    +0.092 A 
ATOM      7  C   UNL     1       6.714  -3.663  23.684  0.00  0.00    +0.131 A 
ATOM      8  C   UNL     1       8.886   0.066  23.512  0.00  0.00    +0.238 A 
ATOM      9  O   UNL     1      10.103   0.123  23.603  0.00  0.00    -0.283 OA
ATOM     10  C   UNL     1       6.084  -2.433  23.445  0.00  0.00    +0.093 A 
ATOM     11  C   UNL     1       8.032   1.308  23.503  0.00  0.00    +0.214 A 
ENDROOT
BRANCH   1  13
ATOM     12  C   UNL     1       5.653   3.246  22.358  0.00  0.00    +0.015 A 
ATOM     13  C   UNL     1       5.710   2.246  23.342  0.00  0.00    +0.025 A 
ATOM     14  C   UNL     1       4.867   2.398  24.451  0.00  0.00    +0.060 A 
ATOM     15  C   UNL     1       4.190   3.592  24.654  0.00  0.00    +0.159 A 
ATOM     16  C   UNL     1       4.348   4.656  23.776  0.00  0.00    +0.158 A 
ATOM     17  C   UNL     1       5.038   4.478  22.593  0.00  0.00    +0.050 A 
BRANCH  16  18
ATOM     18  O   UNL     1       3.818   5.864  24.119  0.00  0.00    -0.503 OA
ATOM     19  H   UNL     1       4.481   6.333  24.658  0.00  0.00    +0.292 HD
ENDBRANCH  16  18
BRANCH  15  20
ATOM     20  O   UNL     1       3.409   3.733  25.761  0.00  0.00    -0.503 OA
ATOM     21  H   UNL     1       3.965   4.237  26.388  0.00  0.00    +0.292 HD
ENDBRANCH  15  20
ENDBRANCH   1  13
BRANCH   5  22
ATOM     22  O   UNL     1      10.206  -2.625  23.607  0.00  0.00    -0.506 OA
ATOM     23  H   UNL     1      10.586  -2.213  22.798  0.00  0.00    +0.292 HD
ENDBRANCH   5  22
BRANCH  11  24
ATOM     24  O   UNL     1       8.609   2.565  23.418  0.00  0.00    -0.453 OA
BRANCH  24  25
ATOM     25  C   UNL     1       9.346   3.185  24.489  0.00  0.00    +0.340 C 
ATOM     26  O   UNL     1       8.511   3.501  25.639  0.00  0.00    -0.322 OA
ATOM     27  C   UNL     1       7.506   4.546  25.494  0.00  0.00    +0.261 C 
ATOM     28  C   UNL     1       7.790   5.700  24.514  0.00  0.00    +0.185 C 
ATOM     29  C   UNL     1       8.701   5.272  23.369  0.00  0.00    +0.180 C 
ATOM     30  C   UNL     1       9.906   4.526  23.988  0.00  0.00    +0.214 C 
BRANCH  30  31
ATOM     31  O   UNL     1      10.992   4.438  23.077  0.00  0.00    -0.383 OA
ATOM     32  H   UNL     1      11.841   4.451  23.569  0.00  0.00    +0.210 HD
ENDBRANCH  30  31
BRANCH  29  33
ATOM     33  O   UNL     1       9.083   6.441  22.636  0.00  0.00    -0.386 OA
ATOM     34  H   UNL     1       8.602   7.186  23.043  0.00  0.00    +0.210 HD
ENDBRANCH  29  33
BRANCH  28  35
ATOM     35  O   UNL     1       8.451   6.800  25.160  0.00  0.00    -0.386 OA
ATOM     36  H   UNL     1       7.808   7.121  25.831  0.00  0.00    +0.210 HD
ENDBRANCH  28  35
BRANCH  27  37
ATOM     37  C   UNL     1       7.198   5.140  26.880  0.00  0.00    +0.337 C 
ATOM     38  O   UNL     1       8.033   5.624  27.629  0.00  0.00    -0.248 OA
BRANCH  37  39
ATOM     39  O   UNL     1       5.874   5.107  27.184  0.00  0.00    -0.479 OA
ATOM     40  H   UNL     1       5.719   4.423  27.869  0.00  0.00    +0.295 HD
ENDBRANCH  37  39
ENDBRANCH  27  37
ENDBRANCH  24  25
ENDBRANCH  11  24
BRANCH   7  41
ATOM     41  O   UNL     1       6.048  -4.842  23.983  0.00  0.00    -0.461 OA
BRANCH  41  42
ATOM     42  C   UNL     1       4.878  -4.660  24.814  0.00  0.00    +0.340 C 
ATOM     43  O   UNL     1       5.203  -4.949  26.187  0.00  0.00    -0.322 OA
ATOM     44  C   UNL     1       5.300  -6.365  26.417  0.00  0.00    +0.261 C 
ATOM     45  C   UNL     1       3.901  -6.977  26.326  0.00  0.00    +0.185 C 
ATOM     46  C   UNL     1       3.452  -6.856  24.866  0.00  0.00    +0.180 C 
ATOM     47  C   UNL     1       3.600  -5.416  24.338  0.00  0.00    +0.214 C 
BRANCH  47  48
ATOM     48  O   UNL     1       3.437  -5.370  22.918  0.00  0.00    -0.383 OA
ATOM     49  H   UNL     1       4.061  -4.706  22.567  0.00  0.00    +0.210 HD
ENDBRANCH  47  48
BRANCH  46  50
ATOM     50  O   UNL     1       4.145  -7.783  24.018  0.00  0.00    -0.386 OA
ATOM     51  H   UNL     1       3.502  -8.364  23.577  0.00  0.00    +0.210 HD
ENDBRANCH  46  50
BRANCH  45  52
ATOM     52  O   UNL     1       3.008  -6.202  27.145  0.00  0.00    -0.386 OA
ATOM     53  H   UNL     1       3.524  -5.491  27.563  0.00  0.00    +0.210 HD
ENDBRANCH  45  52
BRANCH  44  54
ATOM     54  C   UNL     1       5.922  -6.630  27.781  0.00  0.00    +0.337 C 
ATOM     55  O   UNL     1       6.849  -5.998  28.260  0.00  0.00    -0.248 OA
BRANCH  54  56
ATOM     56  O   UNL     1       5.270  -7.616  28.448  0.00  0.00    -0.479 OA
ATOM     57  H   UNL     1       4.335  -7.619  28.138  0.00  0.00    +0.295 HD
ENDBRANCH  54  56
ENDBRANCH  44  54
ENDBRANCH  41  42
ENDBRANCH   7  41
TORSDOF 18
ENDMDL
MODEL 3
REMARK VINA RESULT:      -7.1      1.135      2.563
REMARK  Name = 
REMARK  18 active torsions:
REMARK  status: ('A' for Active; 'I' for Inactive)
REMARK    1  A    between atoms: C_3  and  O_51
REMARK    2  A    between atoms: C_4  and  O_50
REMARK    3  A    between atoms: C_6  and  C_7
REMARK    4  A    between atoms: C_8  and  O_35
REMARK    5  A    between atoms: C_12  and  O_34
REMARK    6  A    between atoms: C_14  and  O_18
REMARK    7  A    between atoms: O_18  and  C_19
REMARK    8  A    between atoms: C_21  and  O_33
REMARK    9  A    between atoms: C_22  and  O_32
REMARK   10  A    between atoms: C_24  and  O_31
REMARK   11  A    between atoms: C_26  and  C_28
REMARK   12  A    between atoms: C_28  and  O_30
REMARK   13  A    between atoms: O_35  and  C_36
REMARK   14  A    between atoms: C_38  and  O_49
REMARK   15  A    between atoms: C_39  and  O_48
REMARK   16  A    between atoms: C_40  and  O_47
REMARK   17  A    between atoms: C_42  and  C_44
REMARK   18  A    between atoms: C_44  and  O_46
REMARK                            x       y       z     vdW  Elec       q    Type
REMARK                         _______ _______ _______ _____ _____    ______ ____
ROOT
ATOM      1  C   UNL     1       7.473   0.840  25.459  0.00  0.00    +0.181 A 
ATOM      2  O   UNL     1       6.753  -0.327  25.600  0.00  0.00    -0.451 OA
ATOM      3  C   UNL     1       7.333  -1.530  25.320  0.00  0.00    +0.147 A 
ATOM      4  C   UNL     1       8.599  -1.653  24.781  0.00  0.00    +0.109 A 
ATOM      5  C   UNL     1       9.087  -2.944  24.516  0.00  0.00    +0.135 A 
ATOM      6  C   UNL     1       8.354  -4.094  24.889  0.00  0.00    +0.092 A 
ATOM      7  C   UNL     1       7.122  -3.958  25.532  0.00  0.00    +0.131 A 
ATOM      8  C   UNL     1       9.375  -0.400  24.577  0.00  0.00    +0.238 A 
ATOM      9  O   UNL     1      10.502  -0.441  24.104  0.00  0.00    -0.283 OA
ATOM     10  C   UNL     1       6.590  -2.668  25.671  0.00  0.00    +0.093 A 
ATOM     11  C   UNL     1       8.750   0.898  25.022  0.00  0.00    +0.214 A 
ENDROOT
BRANCH   1  13
ATOM     12  C   UNL     1       5.629   2.593  25.324  0.00  0.00    +0.015 A 
ATOM     13  C   UNL     1       6.721   2.016  25.988  0.00  0.00    +0.025 A 
ATOM     14  C   UNL     1       7.188   2.674  27.134  0.00  0.00    +0.060 A 
ATOM     15  C   UNL     1       6.727   3.945  27.444  0.00  0.00    +0.159 A 
ATOM     16  C   UNL     1       5.812   4.589  26.621  0.00  0.00    +0.158 A 
ATOM     17  C   UNL     1       5.215   3.901  25.583  0.00  0.00    +0.050 A 
BRANCH  16  18
ATOM     18  O   UNL     1       5.537   5.902  26.860  0.00  0.00    -0.503 OA
ATOM     19  H   UNL     1       6.110   6.434  26.277  0.00  0.00    +0.292 HD
ENDBRANCH  16  18
BRANCH  15  20
ATOM     20  O   UNL     1       7.226   4.585  28.539  0.00  0.00    -0.503 OA
ATOM     21  H   UNL     1       7.913   5.181  28.180  0.00  0.00    +0.292 HD
ENDBRANCH  15  20
ENDBRANCH   1  13
BRANCH   5  22
ATOM     22  O   UNL     1      10.295  -3.177  23.920  0.00  0.00    -0.506 OA
ATOM     23  H   UNL     1      10.993  -2.691  24.415  0.00  0.00    +0.292 HD
ENDBRANCH   5  22
BRANCH  11  24
ATOM     24  O   UNL     1       9.360   2.111  24.746  0.00  0.00    -0.453 OA
BRANCH  24  25
ATOM     25  C   UNL     1       9.765   2.526  23.428  0.00  0.00    +0.340 C 
ATOM     26  O   UNL     1      11.066   3.180  23.417  0.00  0.00    -0.322 OA
ATOM     27  C   UNL     1      11.185   4.486  24.053  0.00  0.00    +0.261 C 
ATOM     28  C   UNL     1       9.952   5.409  24.059  0.00  0.00    +0.185 C 
ATOM     29  C   UNL     1       8.645   4.625  24.033  0.00  0.00    +0.180 C 
ATOM     30  C   UNL     1       8.760   3.567  22.910  0.00  0.00    +0.214 C 
BRANCH  30  31
ATOM     31  O   UNL     1       7.487   3.062  22.535  0.00  0.00    -0.383 OA
ATOM     32  H   UNL     1       6.882   3.805  22.325  0.00  0.00    +0.210 HD
ENDBRANCH  30  31
BRANCH  29  33
ATOM     33  O   UNL     1       7.570   5.547  23.825  0.00  0.00    -0.386 OA
ATOM     34  H   UNL     1       7.187   5.719  24.705  0.00  0.00    +0.210 HD
ENDBRANCH  29  33
BRANCH  28  35
ATOM     35  O   UNL     1       9.923   6.271  22.910  0.00  0.00    -0.386 OA
ATOM     36  H   UNL     1      10.153   5.688  22.152  0.00  0.00    +0.210 HD
ENDBRANCH  28  35
BRANCH  27  37
ATOM     37  C   UNL     1      12.366   5.243  23.421  0.00  0.00    +0.337 C 
ATOM     38  O   UNL     1      12.762   5.083  22.276  0.00  0.00    -0.248 OA
BRANCH  37  39
ATOM     39  O   UNL     1      12.918   6.155  24.263  0.00  0.00    -0.479 OA
ATOM     40  H   UNL     1      13.838   6.340  23.978  0.00  0.00    +0.295 HD
ENDBRANCH  37  39
ENDBRANCH  27  37
ENDBRANCH  24  25
ENDBRANCH  11  24
BRANCH   7  41
ATOM     41  O   UNL     1       6.538  -5.108  26.042  0.00  0.00    -0.461 OA
BRANCH  41  42
ATOM     42  C   UNL     1       6.107  -6.045  25.027  0.00  0.00    +0.340 C 
ATOM     43  O   UNL     1       6.206  -5.438  23.726  0.00  0.00    -0.322 OA
ATOM     44  C   UNL     1       5.135  -4.507  23.497  0.00  0.00    +0.261 C 
ATOM     45  C   UNL     1       3.827  -5.287  23.344  0.00  0.00    +0.185 C 
ATOM     46  C   UNL     1       3.512  -5.908  24.709  0.00  0.00    +0.180 C 
ATOM     47  C   UNL     1       4.711  -6.695  25.272  0.00  0.00    +0.214 C 
BRANCH  47  48
ATOM     48  O   UNL     1       4.502  -7.038  26.644  0.00  0.00    -0.383 OA
ATOM     49  H   UNL     1       4.990  -6.392  27.191  0.00  0.00    +0.210 HD
ENDBRANCH  47  48
BRANCH  46  50
ATOM     50  O   UNL     1       3.062  -4.924  25.650  0.00  0.00    -0.386 OA
ATOM     51  H   UNL     1       2.396  -4.352  25.230  0.00  0.00    +0.210 HD
ENDBRANCH  46  50
BRANCH  45  52
ATOM     52  O   UNL     1       4.037  -6.348  22.396  0.00  0.00    -0.386 OA
ATOM     53  H   UNL     1       3.710  -7.175  22.791  0.00  0.00    +0.210 HD
ENDBRANCH  45  52
BRANCH  44  54
ATOM     54  C   UNL     1       5.421  -3.676  22.255  0.00  0.00    +0.337 C 
ATOM     55  O   UNL     1       5.529  -4.124  21.125  0.00  0.00    -0.248 OA
BRANCH  54  56
ATOM     56  O   UNL     1       5.471  -2.349  22.537  0.00  0.00    -0.479 OA
ATOM     57  H   UNL     1       4.610  -2.099  22.946  0.00  0.00    +0.295 HD
ENDBRANCH  54  56
ENDBRANCH  44  54
ENDBRANCH  41  42
ENDBRANCH   7  41
TORSDOF 18
ENDMDL
MODEL 4
REMARK VINA RESULT:      -7.1      2.065     10.694
REMARK  Name = 
REMARK  18 active torsions:
REMARK  status: ('A' for Active; 'I' for Inactive)
REMARK    1  A    between atoms: C_3  and  O_51
REMARK    2  A    between atoms: C_4  and  O_50
REMARK    3  A    between atoms: C_6  and  C_7
REMARK    4  A    between atoms: C_8  and  O_35
REMARK    5  A    between atoms: C_12  and  O_34
REMARK    6  A    between atoms: C_14  and  O_18
REMARK    7  A    between atoms: O_18  and  C_19
REMARK    8  A    between atoms: C_21  and  O_33
REMARK    9  A    between atoms: C_22  and  O_32
REMARK   10  A    between atoms: C_24  and  O_31
REMARK   11  A    between atoms: C_26  and  C_28
REMARK   12  A    between atoms: C_28  and  O_30
REMARK   13  A    between atoms: O_35  and  C_36
REMARK   14  A    between atoms: C_38  and  O_49
REMARK   15  A    between atoms: C_39  and  O_48
REMARK   16  A    between atoms: C_40  and  O_47
REMARK   17  A    between atoms: C_42  and  C_44
REMARK   18  A    between atoms: C_44  and  O_46
REMARK                            x       y       z     vdW  Elec       q    Type
REMARK                         _______ _______ _______ _____ _____    ______ ____
ROOT
ATOM      1  C   UNL     1       5.583  -1.712  24.577  0.00  0.00    +0.181 A 
ATOM      2  O   UNL     1       6.216  -0.499  24.409  0.00  0.00    -0.451 OA
ATOM      3  C   UNL     1       5.939   0.543  25.245  0.00  0.00    +0.147 A 
ATOM      4  C   UNL     1       4.953   0.496  26.211  0.00  0.00    +0.109 A 
ATOM      5  C   UNL     1       4.743   1.638  27.003  0.00  0.00    +0.135 A 
ATOM      6  C   UNL     1       5.585   2.768  26.896  0.00  0.00    +0.092 A 
ATOM      7  C   UNL     1       6.648   2.762  25.989  0.00  0.00    +0.131 A 
ATOM      8  C   UNL     1       4.224  -0.790  26.377  0.00  0.00    +0.238 A 
ATOM      9  O   UNL     1       3.341  -0.896  27.216  0.00  0.00    -0.283 OA
ATOM     10  C   UNL     1       6.763   1.671  25.117  0.00  0.00    +0.093 A 
ATOM     11  C   UNL     1       4.651  -1.958  25.524  0.00  0.00    +0.214 A 
ENDROOT
BRANCH   1  13
ATOM     12  C   UNL     1       5.569  -3.146  22.472  0.00  0.00    +0.015 A 
ATOM     13  C   UNL     1       6.158  -2.760  23.685  0.00  0.00    +0.025 A 
ATOM     14  C   UNL     1       7.267  -3.502  24.118  0.00  0.00    +0.060 A 
ATOM     15  C   UNL     1       7.604  -4.687  23.481  0.00  0.00    +0.159 A 
ATOM     16  C   UNL     1       6.844  -5.165  22.421  0.00  0.00    +0.158 A 
ATOM     17  C   UNL     1       5.852  -4.376  21.873  0.00  0.00    +0.050 A 
BRANCH  16  18
ATOM     18  O   UNL     1       7.097  -6.421  21.956  0.00  0.00    -0.503 OA
ATOM     19  H   UNL     1       6.573  -7.044  22.493  0.00  0.00    +0.292 HD
ENDBRANCH  16  18
BRANCH  15  20
ATOM     20  O   UNL     1       8.659  -5.414  23.944  0.00  0.00    -0.503 OA
ATOM     21  H   UNL     1       8.456  -5.562  24.889  0.00  0.00    +0.292 HD
ENDBRANCH  15  20
ENDBRANCH   1  13
BRANCH   5  22
ATOM     22  O   UNL     1       3.749   1.725  27.939  0.00  0.00    -0.506 OA
ATOM     23  H   UNL     1       3.794   0.934  28.523  0.00  0.00    +0.292 HD
ENDBRANCH   5  22
BRANCH  11  24
ATOM     24  O   UNL     1       3.935  -3.144  25.535  0.00  0.00    -0.453 OA
BRANCH  24  25
ATOM     25  C   UNL     1       3.627  -3.885  26.731  0.00  0.00    +0.340 C 
ATOM     26  O   UNL     1       4.799  -4.127  27.562  0.00  0.00    -0.322 OA
ATOM     27  C   UNL     1       5.825  -5.030  27.059  0.00  0.00    +0.261 C 
ATOM     28  C   UNL     1       5.393  -6.180  26.131  0.00  0.00    +0.185 C 
ATOM     29  C   UNL     1       4.139  -5.838  25.335  0.00  0.00    +0.180 C 
ATOM     30  C   UNL     1       3.098  -5.271  26.328  0.00  0.00    +0.214 C 
BRANCH  30  31
ATOM     31  O   UNL     1       1.787  -5.295  25.784  0.00  0.00    -0.383 OA
ATOM     32  H   UNL     1       1.439  -4.381  25.712  0.00  0.00    +0.210 HD
ENDBRANCH  30  31
BRANCH  29  33
ATOM     33  O   UNL     1       3.689  -7.023  24.670  0.00  0.00    -0.386 OA
ATOM     34  H   UNL     1       4.300  -7.734  24.940  0.00  0.00    +0.210 HD
ENDBRANCH  29  33
BRANCH  28  35
ATOM     35  O   UNL     1       5.084  -7.375  26.867  0.00  0.00    -0.386 OA
ATOM     36  H   UNL     1       5.687  -8.060  26.500  0.00  0.00    +0.210 HD
ENDBRANCH  28  35
BRANCH  27  37
ATOM     37  C   UNL     1       6.598  -5.622  28.251  0.00  0.00    +0.337 C 
ATOM     38  O   UNL     1       6.227  -5.573  29.414  0.00  0.00    -0.248 OA
BRANCH  37  39
ATOM     39  O   UNL     1       7.743  -6.251  27.877  0.00  0.00    -0.479 OA
ATOM     40  H   UNL     1       7.524  -6.968  27.246  0.00  0.00    +0.295 HD
ENDBRANCH  37  39
ENDBRANCH  27  37
ENDBRANCH  24  25
ENDBRANCH  11  24
BRANCH   7  41
ATOM     41  O   UNL     1       7.550   3.814  26.057  0.00  0.00    -0.461 OA
BRANCH  41  42
ATOM     42  C   UNL     1       7.552   4.661  24.884  0.00  0.00    +0.340 C 
ATOM     43  O   UNL     1       8.451   4.125  23.895  0.00  0.00    -0.322 OA
ATOM     44  C   UNL     1       9.824   4.383  24.238  0.00  0.00    +0.261 C 
ATOM     45  C   UNL     1      10.098   5.880  24.083  0.00  0.00    +0.185 C 
ATOM     46  C   UNL     1       9.290   6.599  25.169  0.00  0.00    +0.180 C 
ATOM     47  C   UNL     1       7.809   6.174  25.158  0.00  0.00    +0.214 C 
BRANCH  47  48
ATOM     48  O   UNL     1       7.132   6.639  26.328  0.00  0.00    -0.383 OA
ATOM     49  H   UNL     1       6.290   6.150  26.399  0.00  0.00    +0.210 HD
ENDBRANCH  47  48
BRANCH  46  50
ATOM     50  O   UNL     1       9.863   6.412  26.470  0.00  0.00    -0.386 OA
ATOM     51  H   UNL     1      10.496   5.673  26.444  0.00  0.00    +0.210 HD
ENDBRANCH  46  50
BRANCH  45  52
ATOM     52  O   UNL     1       9.614   6.303  22.797  0.00  0.00    -0.386 OA
ATOM     53  H   UNL     1       9.943   5.676  22.130  0.00  0.00    +0.210 HD
ENDBRANCH  45  52
BRANCH  44  54
ATOM     54  C   UNL     1      10.747   3.566  23.345  0.00  0.00    +0.337 C 
ATOM     55  O   UNL     1      10.542   2.414  22.998  0.00  0.00    -0.248 OA
BRANCH  54  56
ATOM     56  O   UNL     1      11.803   4.298  22.910  0.00  0.00    -0.479 OA
ATOM     57  H   UNL     1      11.449   5.125  22.509  0.00  0.00    +0.295 HD
ENDBRANCH  54  56
ENDBRANCH  44  54
ENDBRANCH  41  42
ENDBRANCH   7  41
TORSDOF 18
ENDMDL
MODEL 5
REMARK VINA RESULT:      -7.0      2.219      9.908
REMARK  Name = 
REMARK  18 active torsions:
REMARK  status: ('A' for Active; 'I' for Inactive)
REMARK    1  A    between atoms: C_3  and  O_51
REMARK    2  A    between atoms: C_4  and  O_50
REMARK    3  A    between atoms: C_6  and  C_7
REMARK    4  A    between atoms: C_8  and  O_35
REMARK    5  A    between atoms: C_12  and  O_34
REMARK    6  A    between atoms: C_14  and  O_18
REMARK    7  A    between atoms: O_18  and  C_19
REMARK    8  A    between atoms: C_21  and  O_33
REMARK    9  A    between atoms: C_22  and  O_32
REMARK   10  A    between atoms: C_24  and  O_31
REMARK   11  A    between atoms: C_26  and  C_28
REMARK   12  A    between atoms: C_28  and  O_30
REMARK   13  A    between atoms: O_35  and  C_36
REMARK   14  A    between atoms: C_38  and  O_49
REMARK   15  A    between atoms: C_39  and  O_48
REMARK   16  A    between atoms: C_40  and  O_47
REMARK   17  A    between atoms: C_42  and  C_44
REMARK   18  A    between atoms: C_44  and  O_46
REMARK                            x       y       z     vdW  Elec       q    Type
REMARK                         _______ _______ _______ _____ _____    ______ ____
ROOT
ATOM      1  C   UNL     1       6.814  -1.560  25.293  0.00  0.00    +0.181 A 
ATOM      2  O   UNL     1       7.468  -0.359  25.469  0.00  0.00    -0.451 OA
ATOM      3  C   UNL     1       8.147   0.212  24.432  0.00  0.00    +0.147 A 
ATOM      4  C   UNL     1       8.322  -0.406  23.210  0.00  0.00    +0.109 A 
ATOM      5  C   UNL     1       9.056   0.271  22.220  0.00  0.00    +0.135 A 
ATOM      6  C   UNL     1       9.513   1.593  22.424  0.00  0.00    +0.092 A 
ATOM      7  C   UNL     1       9.237   2.249  23.626  0.00  0.00    +0.131 A 
ATOM      8  C   UNL     1       7.663  -1.726  23.015  0.00  0.00    +0.238 A 
ATOM      9  O   UNL     1       7.779  -2.324  21.955  0.00  0.00    -0.283 OA
ATOM     10  C   UNL     1       8.619   1.516  24.649  0.00  0.00    +0.093 A 
ATOM     11  C   UNL     1       6.812  -2.262  24.139  0.00  0.00    +0.214 A 
ENDROOT
BRANCH   1  13
ATOM     12  C   UNL     1       6.222  -3.053  27.270  0.00  0.00    +0.015 A 
ATOM     13  C   UNL     1       5.989  -1.915  26.483  0.00  0.00    +0.025 A 
ATOM     14  C   UNL     1       4.841  -1.164  26.776  0.00  0.00    +0.060 A 
ATOM     15  C   UNL     1       3.884  -1.666  27.646  0.00  0.00    +0.159 A 
ATOM     16  C   UNL     1       4.038  -2.917  28.227  0.00  0.00    +0.158 A 
ATOM     17  C   UNL     1       5.230  -3.601  28.086  0.00  0.00    +0.050 A 
BRANCH  16  18
ATOM     18  O   UNL     1       2.989  -3.445  28.918  0.00  0.00    -0.503 OA
ATOM     19  H   UNL     1       2.191  -3.341  28.366  0.00  0.00    +0.292 HD
ENDBRANCH  16  18
BRANCH  15  20
ATOM     20  O   UNL     1       2.756  -0.940  27.883  0.00  0.00    -0.503 OA
ATOM     21  H   UNL     1       2.596  -0.459  27.047  0.00  0.00    +0.292 HD
ENDBRANCH  15  20
ENDBRANCH   1  13
BRANCH   5  22
ATOM     22  O   UNL     1       9.348  -0.278  21.002  0.00  0.00    -0.506 OA
ATOM     23  H   UNL     1      10.253   0.004  20.736  0.00  0.00    +0.292 HD
ENDBRANCH   5  22
BRANCH  11  24
ATOM     24  O   UNL     1       6.276  -3.538  24.076  0.00  0.00    -0.453 OA
BRANCH  24  25
ATOM     25  C   UNL     1       4.928  -3.823  23.657  0.00  0.00    +0.340 C 
ATOM     26  O   UNL     1       4.100  -4.343  24.737  0.00  0.00    -0.322 OA
ATOM     27  C   UNL     1       4.402  -5.669  25.259  0.00  0.00    +0.261 C 
ATOM     28  C   UNL     1       5.012  -6.708  24.300  0.00  0.00    +0.185 C 
ATOM     29  C   UNL     1       5.827  -6.057  23.188  0.00  0.00    +0.180 C 
ATOM     30  C   UNL     1       4.968  -4.922  22.585  0.00  0.00    +0.214 C 
BRANCH  30  31
ATOM     31  O   UNL     1       5.449  -4.522  21.310  0.00  0.00    -0.383 OA
ATOM     32  H   UNL     1       4.746  -4.639  20.636  0.00  0.00    +0.210 HD
ENDBRANCH  30  31
BRANCH  29  33
ATOM     33  O   UNL     1       6.173  -7.066  22.233  0.00  0.00    -0.386 OA
ATOM     34  H   UNL     1       5.467  -7.056  21.560  0.00  0.00    +0.210 HD
ENDBRANCH  29  33
BRANCH  28  35
ATOM     35  O   UNL     1       4.000  -7.491  23.646  0.00  0.00    -0.386 OA
ATOM     36  H   UNL     1       3.299  -6.846  23.404  0.00  0.00    +0.210 HD
ENDBRANCH  28  35
BRANCH  27  37
ATOM     37  C   UNL     1       3.127  -6.262  25.884  0.00  0.00    +0.337 C 
ATOM     38  O   UNL     1       2.041  -5.703  25.911  0.00  0.00    -0.248 OA
BRANCH  37  39
ATOM     39  O   UNL     1       3.318  -7.511  26.385  0.00  0.00    -0.479 OA
ATOM     40  H   UNL     1       4.246  -7.597  26.690  0.00  0.00    +0.295 HD
ENDBRANCH  37  39
ENDBRANCH  27  37
ENDBRANCH  24  25
ENDBRANCH  11  24
BRANCH   7  41
ATOM     41  O   UNL     1       9.542   3.600  23.700  0.00  0.00    -0.461 OA
BRANCH  41  42
ATOM     42  C   UNL     1       8.587   4.375  24.463  0.00  0.00    +0.340 C 
ATOM     43  O   UNL     1       7.270   3.815  24.312  0.00  0.00    -0.322 OA
ATOM     44  C   UNL     1       6.702   4.143  23.032  0.00  0.00    +0.261 C 
ATOM     45  C   UNL     1       6.376   5.638  23.005  0.00  0.00    +0.185 C 
ATOM     46  C   UNL     1       7.711   6.390  23.037  0.00  0.00    +0.180 C 
ATOM     47  C   UNL     1       8.611   5.911  24.192  0.00  0.00    +0.214 C 
BRANCH  47  48
ATOM     48  O   UNL     1       9.940   6.419  24.054  0.00  0.00    -0.383 OA
ATOM     49  H   UNL     1      10.023   7.200  24.633  0.00  0.00    +0.210 HD
ENDBRANCH  47  48
BRANCH  46  50
ATOM     50  O   UNL     1       8.402   6.301  21.784  0.00  0.00    -0.386 OA
ATOM     51  H   UNL     1       8.130   7.037  21.209  0.00  0.00    +0.210 HD
ENDBRANCH  46  50
BRANCH  45  52
ATOM     52  O   UNL     1       5.637   5.966  24.194  0.00  0.00    -0.386 OA
ATOM     53  H   UNL     1       4.719   5.668  24.071  0.00  0.00    +0.210 HD
ENDBRANCH  45  52
BRANCH  44  54
ATOM     54  C   UNL     1       5.453   3.309  22.785  0.00  0.00    +0.337 C 
ATOM     55  O   UNL     1       4.318   3.752  22.730  0.00  0.00    -0.248 OA
BRANCH  54  56
ATOM     56  O   UNL     1       5.755   2.006  22.554  0.00  0.00    -0.479 OA
ATOM     57  H   UNL     1       5.988   1.918  21.600  0.00  0.00    +0.295 HD
ENDBRANCH  54  56
ENDBRANCH  44  54
ENDBRANCH  41  42
ENDBRANCH   7  41
TORSDOF 18
ENDMDL
MODEL 6
REMARK VINA RESULT:      -6.9      2.099     11.066
REMARK  Name = 
REMARK  18 active torsions:
REMARK  status: ('A' for Active; 'I' for Inactive)
REMARK    1  A    between atoms: C_3  and  O_51
REMARK    2  A    between atoms: C_4  and  O_50
REMARK    3  A    between atoms: C_6  and  C_7
REMARK    4  A    between atoms: C_8  and  O_35
REMARK    5  A    between atoms: C_12  and  O_34
REMARK    6  A    between atoms: C_14  and  O_18
REMARK    7  A    between atoms: O_18  and  C_19
REMARK    8  A    between atoms: C_21  and  O_33
REMARK    9  A    between atoms: C_22  and  O_32
REMARK   10  A    between atoms: C_24  and  O_31
REMARK   11  A    between atoms: C_26  and  C_28
REMARK   12  A    between atoms: C_28  and  O_30
REMARK   13  A    between atoms: O_35  and  C_36
REMARK   14  A    between atoms: C_38  and  O_49
REMARK   15  A    between atoms: C_39  and  O_48
REMARK   16  A    between atoms: C_40  and  O_47
REMARK   17  A    between atoms: C_42  and  C_44
REMARK   18  A    between atoms: C_44  and  O_46
REMARK                            x       y       z     vdW  Elec       q    Type
REMARK                         _______ _______ _______ _____ _____    ______ ____
ROOT
ATOM      1  C   UNL     1       5.836  -1.842  24.552  0.00  0.00    +0.181 A 
ATOM      2  O   UNL     1       6.020  -0.556  24.091  0.00  0.00    -0.451 OA
ATOM      3  C   UNL     1       5.662   0.510  24.866  0.00  0.00    +0.147 A 
ATOM      4  C   UNL     1       5.007   0.380  26.074  0.00  0.00    +0.109 A 
ATOM      5  C   UNL     1       4.672   1.550  26.778  0.00  0.00    +0.135 A 
ATOM      6  C   UNL     1       5.088   2.822  26.323  0.00  0.00    +0.092 A 
ATOM      7  C   UNL     1       5.845   2.932  25.155  0.00  0.00    +0.131 A 
ATOM      8  C   UNL     1       4.756  -1.001  26.568  0.00  0.00    +0.238 A 
ATOM      9  O   UNL     1       4.180  -1.182  27.631  0.00  0.00    -0.283 OA
ATOM     10  C   UNL     1       6.058   1.772  24.397  0.00  0.00    +0.093 A 
ATOM     11  C   UNL     1       5.283  -2.150  25.746  0.00  0.00    +0.214 A 
ENDROOT
BRANCH   1  13
ATOM     12  C   UNL     1       5.974  -3.113  22.349  0.00  0.00    +0.015 A 
ATOM     13  C   UNL     1       6.455  -2.846  23.639  0.00  0.00    +0.025 A 
ATOM     14  C   UNL     1       7.487  -3.667  24.115  0.00  0.00    +0.060 A 
ATOM     15  C   UNL     1       7.839  -4.816  23.421  0.00  0.00    +0.159 A 
ATOM     16  C   UNL     1       7.169  -5.178  22.261  0.00  0.00    +0.158 A 
ATOM     17  C   UNL     1       6.266  -4.306  21.684  0.00  0.00    +0.050 A 
BRANCH  16  18
ATOM     18  O   UNL     1       7.418  -6.406  21.724  0.00  0.00    -0.503 OA
ATOM     19  H   UNL     1       6.583  -6.910  21.744  0.00  0.00    +0.292 HD
ENDBRANCH  16  18
BRANCH  15  20
ATOM     20  O   UNL     1       8.815  -5.622  23.924  0.00  0.00    -0.503 OA
ATOM     21  H   UNL     1       9.002  -5.255  24.810  0.00  0.00    +0.292 HD
ENDBRANCH  15  20
ENDBRANCH   1  13
BRANCH   5  22
ATOM     22  O   UNL     1       3.961   1.540  27.947  0.00  0.00    -0.506 OA
ATOM     23  H   UNL     1       3.899   2.461  28.288  0.00  0.00    +0.292 HD
ENDBRANCH   5  22
BRANCH  11  24
ATOM     24  O   UNL     1       4.977  -3.460  26.078  0.00  0.00    -0.453 OA
BRANCH  24  25
ATOM     25  C   UNL     1       3.635  -3.976  26.156  0.00  0.00    +0.340 C 
ATOM     26  O   UNL     1       3.383  -4.709  27.389  0.00  0.00    -0.322 OA
ATOM     27  C   UNL     1       4.068  -5.980  27.586  0.00  0.00    +0.261 C 
ATOM     28  C   UNL     1       4.412  -6.822  26.344  0.00  0.00    +0.185 C 
ATOM     29  C   UNL     1       4.620  -5.961  25.103  0.00  0.00    +0.180 C 
ATOM     30  C   UNL     1       3.427  -4.981  25.013  0.00  0.00    +0.214 C 
BRANCH  30  31
ATOM     31  O   UNL     1       3.306  -4.421  23.714  0.00  0.00    -0.383 OA
ATOM     32  H   UNL     1       2.410  -4.040  23.597  0.00  0.00    +0.210 HD
ENDBRANCH  30  31
BRANCH  29  33
ATOM     33  O   UNL     1       4.720  -6.826  23.966  0.00  0.00    -0.386 OA
ATOM     34  H   UNL     1       4.317  -7.673  24.233  0.00  0.00    +0.210 HD
ENDBRANCH  29  33
BRANCH  28  35
ATOM     35  O   UNL     1       3.363  -7.747  26.016  0.00  0.00    -0.386 OA
ATOM     36  H   UNL     1       2.570  -7.405  26.486  0.00  0.00    +0.210 HD
ENDBRANCH  28  35
BRANCH  27  37
ATOM     37  C   UNL     1       3.247  -6.845  28.558  0.00  0.00    +0.337 C 
ATOM     38  O   UNL     1       2.026  -6.903  28.576  0.00  0.00    -0.248 OA
BRANCH  37  39
ATOM     39  O   UNL     1       4.025  -7.586  29.390  0.00  0.00    -0.479 OA
ATOM     40  H   UNL     1       4.078  -7.141  30.262  0.00  0.00    +0.295 HD
ENDBRANCH  37  39
ENDBRANCH  27  37
ENDBRANCH  24  25
ENDBRANCH  11  24
BRANCH   7  41
ATOM     41  O   UNL     1       6.383   4.175  24.858  0.00  0.00    -0.461 OA
BRANCH  41  42
ATOM     42  C   UNL     1       7.595   4.115  24.069  0.00  0.00    +0.340 C 
ATOM     43  O   UNL     1       8.700   4.638  24.828  0.00  0.00    -0.322 OA
ATOM     44  C   UNL     1       8.663   6.074  24.891  0.00  0.00    +0.261 C 
ATOM     45  C   UNL     1       8.984   6.637  23.505  0.00  0.00    +0.185 C 
ATOM     46  C   UNL     1       7.817   6.263  22.586  0.00  0.00    +0.180 C 
ATOM     47  C   UNL     1       7.496   4.757  22.650  0.00  0.00    +0.214 C 
BRANCH  47  48
ATOM     48  O   UNL     1       6.253   4.468  22.007  0.00  0.00    -0.383 OA
ATOM     49  H   UNL     1       6.046   3.527  22.166  0.00  0.00    +0.210 HD
ENDBRANCH  47  48
BRANCH  46  50
ATOM     50  O   UNL     1       6.648   7.044  22.866  0.00  0.00    -0.386 OA
ATOM     51  H   UNL     1       6.872   7.990  22.831  0.00  0.00    +0.210 HD
ENDBRANCH  46  50
BRANCH  45  52
ATOM     52  O   UNL     1      10.176   5.996  23.016  0.00  0.00    -0.386 OA
ATOM     53  H   UNL     1      10.173   6.056  22.045  0.00  0.00    +0.210 HD
ENDBRANCH  45  52
BRANCH  44  54
ATOM     54  C   UNL     1       9.658   6.577  25.927  0.00  0.00    +0.337 C 
ATOM     55  O   UNL     1       9.483   6.548  27.134  0.00  0.00    -0.248 OA
BRANCH  54  56
ATOM     56  O   UNL     1      10.812   7.001  25.352  0.00  0.00    -0.479 OA
ATOM     57  H   UNL     1      11.240   6.220  24.932  0.00  0.00    +0.295 HD
ENDBRANCH  54  56
ENDBRANCH  44  54
ENDBRANCH  41  42
ENDBRANCH   7  41
TORSDOF 18
ENDMDL
MODEL 7
REMARK VINA RESULT:      -6.8      2.236      4.897
REMARK  Name = 
REMARK  18 active torsions:
REMARK  status: ('A' for Active; 'I' for Inactive)
REMARK    1  A    between atoms: C_3  and  O_51
REMARK    2  A    between atoms: C_4  and  O_50
REMARK    3  A    between atoms: C_6  and  C_7
REMARK    4  A    between atoms: C_8  and  O_35
REMARK    5  A    between atoms: C_12  and  O_34
REMARK    6  A    between atoms: C_14  and  O_18
REMARK    7  A    between atoms: O_18  and  C_19
REMARK    8  A    between atoms: C_21  and  O_33
REMARK    9  A    between atoms: C_22  and  O_32
REMARK   10  A    between atoms: C_24  and  O_31
REMARK   11  A    between atoms: C_26  and  C_28
REMARK   12  A    between atoms: C_28  and  O_30
REMARK   13  A    between atoms: O_35  and  C_36
REMARK   14  A    between atoms: C_38  and  O_49
REMARK   15  A    between atoms: C_39  and  O_48
REMARK   16  A    between atoms: C_40  and  O_47
REMARK   17  A    between atoms: C_42  and  C_44
REMARK   18  A    between atoms: C_44  and  O_46
REMARK                            x       y       z     vdW  Elec       q    Type
REMARK                         _______ _______ _______ _____ _____    ______ ____
ROOT
ATOM      1  C   UNL     1       7.463   0.980  25.907  0.00  0.00    +0.181 A 
ATOM      2  O   UNL     1       6.970  -0.294  26.088  0.00  0.00    -0.451 OA
ATOM      3  C   UNL     1       5.993  -0.528  27.012  0.00  0.00    +0.147 A 
ATOM      4  C   UNL     1       5.527   0.438  27.882  0.00  0.00    +0.109 A 
ATOM      5  C   UNL     1       4.530   0.077  28.805  0.00  0.00    +0.135 A 
ATOM      6  C   UNL     1       3.936  -1.205  28.776  0.00  0.00    +0.092 A 
ATOM      7  C   UNL     1       4.339  -2.139  27.820  0.00  0.00    +0.131 A 
ATOM      8  C   UNL     1       6.082   1.811  27.735  0.00  0.00    +0.238 A 
ATOM      9  O   UNL     1       5.711   2.710  28.474  0.00  0.00    -0.283 OA
ATOM     10  C   UNL     1       5.424  -1.811  26.994  0.00  0.00    +0.093 A 
ATOM     11  C   UNL     1       7.063   2.058  26.616  0.00  0.00    +0.214 A 
ENDROOT
BRANCH   1  13
ATOM     12  C   UNL     1       9.775   1.180  24.855  0.00  0.00    +0.015 A 
ATOM     13  C   UNL     1       8.383   1.051  24.735  0.00  0.00    +0.025 A 
ATOM     14  C   UNL     1       7.847   1.126  23.441  0.00  0.00    +0.060 A 
ATOM     15  C   UNL     1       8.643   1.534  22.380  0.00  0.00    +0.159 A 
ATOM     16  C   UNL     1       9.970   1.887  22.583  0.00  0.00    +0.158 A 
ATOM     17  C   UNL     1      10.564   1.665  23.810  0.00  0.00    +0.050 A 
BRANCH  16  18
ATOM     18  O   UNL     1      10.653   2.462  21.552  0.00  0.00    -0.503 OA
ATOM     19  H   UNL     1      11.605   2.365  21.740  0.00  0.00    +0.292 HD
ENDBRANCH  16  18
BRANCH  15  20
ATOM     20  O   UNL     1       8.092   1.641  21.139  0.00  0.00    -0.503 OA
ATOM     21  H   UNL     1       8.411   0.850  20.662  0.00  0.00    +0.292 HD
ENDBRANCH  15  20
ENDBRANCH   1  13
BRANCH   5  22
ATOM     22  O   UNL     1       4.049   0.934  29.756  0.00  0.00    -0.506 OA
ATOM     23  H   UNL     1       3.552   1.656  29.311  0.00  0.00    +0.292 HD
ENDBRANCH   5  22
BRANCH  11  24
ATOM     24  O   UNL     1       7.713   3.276  26.500  0.00  0.00    -0.453 OA
BRANCH  24  25
ATOM     25  C   UNL     1       7.039   4.529  26.280  0.00  0.00    +0.340 C 
ATOM     26  O   UNL     1       6.062   4.463  25.202  0.00  0.00    -0.322 OA
ATOM     27  C   UNL     1       6.550   4.289  23.840  0.00  0.00    +0.261 C 
ATOM     28  C   UNL     1       7.930   4.869  23.481  0.00  0.00    +0.185 C 
ATOM     29  C   UNL     1       8.862   4.928  24.686  0.00  0.00    +0.180 C 
ATOM     30  C   UNL     1       8.077   5.577  25.849  0.00  0.00    +0.214 C 
BRANCH  30  31
ATOM     31  O   UNL     1       8.946   6.041  26.872  0.00  0.00    -0.383 OA
ATOM     32  H   UNL     1       9.447   5.287  27.251  0.00  0.00    +0.210 HD
ENDBRANCH  30  31
BRANCH  29  33
ATOM     33  O   UNL     1      10.030   5.668  24.317  0.00  0.00    -0.386 OA
ATOM     34  H   UNL     1      10.793   5.102  24.541  0.00  0.00    +0.210 HD
ENDBRANCH  29  33
BRANCH  28  35
ATOM     35  O   UNL     1       7.833   6.214  22.986  0.00  0.00    -0.386 OA
ATOM     36  H   UNL     1       6.907   6.485  23.172  0.00  0.00    +0.210 HD
ENDBRANCH  28  35
BRANCH  27  37
ATOM     37  C   UNL     1       5.506   4.852  22.860  0.00  0.00    +0.337 C 
ATOM     38  O   UNL     1       5.002   5.962  22.943  0.00  0.00    -0.248 OA
BRANCH  37  39
ATOM     39  O   UNL     1       5.218   3.994  21.846  0.00  0.00    -0.479 OA
ATOM     40  H   UNL     1       4.402   4.294  21.394  0.00  0.00    +0.295 HD
ENDBRANCH  37  39
ENDBRANCH  27  37
ENDBRANCH  24  25
ENDBRANCH  11  24
BRANCH   7  41
ATOM     41  O   UNL     1       3.598  -3.307  27.716  0.00  0.00    -0.461 OA
BRANCH  41  42
ATOM     42  C   UNL     1       4.055  -4.371  28.583  0.00  0.00    +0.340 C 
ATOM     43  O   UNL     1       5.414  -4.717  28.259  0.00  0.00    -0.322 OA
ATOM     44  C   UNL     1       5.485  -5.499  27.055  0.00  0.00    +0.261 C 
ATOM     45  C   UNL     1       4.902  -6.886  27.332  0.00  0.00    +0.185 C 
ATOM     46  C   UNL     1       3.401  -6.701  27.582  0.00  0.00    +0.180 C 
ATOM     47  C   UNL     1       3.126  -5.622  28.647  0.00  0.00    +0.214 C 
BRANCH  47  48
ATOM     48  O   UNL     1       1.740  -5.271  28.678  0.00  0.00    -0.383 OA
ATOM     49  H   UNL     1       1.664  -4.333  28.416  0.00  0.00    +0.210 HD
ENDBRANCH  47  48
BRANCH  46  50
ATOM     50  O   UNL     1       2.692  -6.411  26.370  0.00  0.00    -0.386 OA
ATOM     51  H   UNL     1       3.141  -5.692  25.894  0.00  0.00    +0.210 HD
ENDBRANCH  46  50
BRANCH  45  52
ATOM     52  O   UNL     1       5.504  -7.404  28.531  0.00  0.00    -0.386 OA
ATOM     53  H   UNL     1       6.463  -7.246  28.479  0.00  0.00    +0.210 HD
ENDBRANCH  45  52
BRANCH  44  54
ATOM     54  C   UNL     1       6.928  -5.601  26.582  0.00  0.00    +0.337 C 
ATOM     55  O   UNL     1       7.315  -5.326  25.458  0.00  0.00    -0.248 OA
BRANCH  54  56
ATOM     56  O   UNL     1       7.763  -5.965  27.588  0.00  0.00    -0.479 OA
ATOM     57  H   UNL     1       8.654  -5.597  27.385  0.00  0.00    +0.295 HD
ENDBRANCH  54  56
ENDBRANCH  44  54
ENDBRANCH  41  42
ENDBRANCH   7  41
TORSDOF 18
ENDMDL
MODEL 8
REMARK VINA RESULT:      -6.6      1.413      2.742
REMARK  Name = 
REMARK  18 active torsions:
REMARK  status: ('A' for Active; 'I' for Inactive)
REMARK    1  A    between atoms: C_3  and  O_51
REMARK    2  A    between atoms: C_4  and  O_50
REMARK    3  A    between atoms: C_6  and  C_7
REMARK    4  A    between atoms: C_8  and  O_35
REMARK    5  A    between atoms: C_12  and  O_34
REMARK    6  A    between atoms: C_14  and  O_18
REMARK    7  A    between atoms: O_18  and  C_19
REMARK    8  A    between atoms: C_21  and  O_33
REMARK    9  A    between atoms: C_22  and  O_32
REMARK   10  A    between atoms: C_24  and  O_31
REMARK   11  A    between atoms: C_26  and  C_28
REMARK   12  A    between atoms: C_28  and  O_30
REMARK   13  A    between atoms: O_35  and  C_36
REMARK   14  A    between atoms: C_38  and  O_49
REMARK   15  A    between atoms: C_39  and  O_48
REMARK   16  A    between atoms: C_40  and  O_47
REMARK   17  A    between atoms: C_42  and  C_44
REMARK   18  A    between atoms: C_44  and  O_46
REMARK                            x       y       z     vdW  Elec       q    Type
REMARK                         _______ _______ _______ _____ _____    ______ ____
ROOT
ATOM      1  C   UNL     1       6.749   1.190  25.023  0.00  0.00    +0.181 A 
ATOM      2  O   UNL     1       5.764   0.226  25.064  0.00  0.00    -0.451 OA
ATOM      3  C   UNL     1       6.057  -1.069  24.747  0.00  0.00    +0.147 A 
ATOM      4  C   UNL     1       7.288  -1.471  24.267  0.00  0.00    +0.109 A 
ATOM      5  C   UNL     1       7.470  -2.829  23.956  0.00  0.00    +0.135 A 
ATOM      6  C   UNL     1       6.463  -3.783  24.228  0.00  0.00    +0.092 A 
ATOM      7  C   UNL     1       5.261  -3.381  24.815  0.00  0.00    +0.131 A 
ATOM      8  C   UNL     1       8.352  -0.435  24.171  0.00  0.00    +0.238 A 
ATOM      9  O   UNL     1       9.463  -0.727  23.754  0.00  0.00    -0.283 OA
ATOM     10  C   UNL     1       5.044  -2.008  24.997  0.00  0.00    +0.093 A 
ATOM     11  C   UNL     1       8.027   0.956  24.655  0.00  0.00    +0.214 A 
ENDROOT
BRANCH   1  13
ATOM     12  C   UNL     1       6.770   3.055  26.759  0.00  0.00    +0.015 A 
ATOM     13  C   UNL     1       6.267   2.489  25.577  0.00  0.00    +0.025 A 
ATOM     14  C   UNL     1       5.173   3.130  24.981  0.00  0.00    +0.060 A 
ATOM     15  C   UNL     1       4.498   4.133  25.661  0.00  0.00    +0.159 A 
ATOM     16  C   UNL     1       4.882   4.505  26.942  0.00  0.00    +0.158 A 
ATOM     17  C   UNL     1       6.051   4.009  27.483  0.00  0.00    +0.050 A 
BRANCH  16  18
ATOM     18  O   UNL     1       4.075   5.354  27.640  0.00  0.00    -0.503 OA
ATOM     19  H   UNL     1       4.563   5.636  28.435  0.00  0.00    +0.292 HD
ENDBRANCH  16  18
BRANCH  15  20
ATOM     20  O   UNL     1       3.410   4.714  25.080  0.00  0.00    -0.503 OA
ATOM     21  H   UNL     1       3.710   4.946  24.179  0.00  0.00    +0.292 HD
ENDBRANCH  15  20
ENDBRANCH   1  13
BRANCH   5  22
ATOM     22  O   UNL     1       8.623  -3.322  23.410  0.00  0.00    -0.506 OA
ATOM     23  H   UNL     1       8.810  -4.203  23.805  0.00  0.00    +0.292 HD
ENDBRANCH   5  22
BRANCH  11  24
ATOM     24  O   UNL     1       8.924   1.997  24.478  0.00  0.00    -0.453 OA
BRANCH  24  25
ATOM     25  C   UNL     1       9.424   2.417  23.194  0.00  0.00    +0.340 C 
ATOM     26  O   UNL     1      10.744   3.027  23.275  0.00  0.00    -0.322 OA
ATOM     27  C   UNL     1      10.867   4.318  23.939  0.00  0.00    +0.261 C 
ATOM     28  C   UNL     1       9.667   5.282  23.885  0.00  0.00    +0.185 C 
ATOM     29  C   UNL     1       8.339   4.544  23.764  0.00  0.00    +0.180 C 
ATOM     30  C   UNL     1       8.489   3.500  22.633  0.00  0.00    +0.214 C 
BRANCH  30  31
ATOM     31  O   UNL     1       7.226   3.044  22.171  0.00  0.00    -0.383 OA
ATOM     32  H   UNL     1       7.287   2.100  21.910  0.00  0.00    +0.210 HD
ENDBRANCH  30  31
BRANCH  29  33
ATOM     33  O   UNL     1       7.310   5.505  23.506  0.00  0.00    -0.386 OA
ATOM     34  H   UNL     1       6.905   5.707  24.370  0.00  0.00    +0.210 HD
ENDBRANCH  29  33
BRANCH  28  35
ATOM     35  O   UNL     1       9.738   6.162  22.751  0.00  0.00    -0.386 OA
ATOM     36  H   UNL     1      10.677   6.125  22.462  0.00  0.00    +0.210 HD
ENDBRANCH  28  35
BRANCH  27  37
ATOM     37  C   UNL     1      12.109   5.044  23.394  0.00  0.00    +0.337 C 
ATOM     38  O   UNL     1      12.896   5.684  24.076  0.00  0.00    -0.248 OA
BRANCH  37  39
ATOM     39  O   UNL     1      12.275   4.873  22.056  0.00  0.00    -0.479 OA
ATOM     40  H   UNL     1      11.467   4.463  21.682  0.00  0.00    +0.295 HD
ENDBRANCH  37  39
ENDBRANCH  27  37
ENDBRANCH  24  25
ENDBRANCH  11  24
BRANCH   7  41
ATOM     41  O   UNL     1       4.389  -4.376  25.230  0.00  0.00    -0.461 OA
BRANCH  41  42
ATOM     42  C   UNL     1       4.469  -5.590  24.446  0.00  0.00    +0.340 C 
ATOM     43  O   UNL     1       3.355  -5.659  23.536  0.00  0.00    -0.322 OA
ATOM     44  C   UNL     1       2.143  -6.029  24.216  0.00  0.00    +0.261 C 
ATOM     45  C   UNL     1       2.245  -7.494  24.645  0.00  0.00    +0.185 C 
ATOM     46  C   UNL     1       3.330  -7.572  25.724  0.00  0.00    +0.180 C 
ATOM     47  C   UNL     1       4.641  -6.903  25.269  0.00  0.00    +0.214 C 
BRANCH  47  48
ATOM     48  O   UNL     1       5.545  -6.744  26.365  0.00  0.00    -0.383 OA
ATOM     49  H   UNL     1       5.306  -7.400  27.048  0.00  0.00    +0.210 HD
ENDBRANCH  47  48
BRANCH  46  50
ATOM     50  O   UNL     1       2.882  -7.017  26.969  0.00  0.00    -0.386 OA
ATOM     51  H   UNL     1       3.589  -6.473  27.356  0.00  0.00    +0.210 HD
ENDBRANCH  46  50
BRANCH  45  52
ATOM     52  O   UNL     1       2.670  -8.273  23.513  0.00  0.00    -0.386 OA
ATOM     53  H   UNL     1       2.094  -9.054  23.451  0.00  0.00    +0.210 HD
ENDBRANCH  45  52
BRANCH  44  54
ATOM     54  C   UNL     1       0.945  -5.812  23.302  0.00  0.00    +0.337 C 
ATOM     55  O   UNL     1       0.517  -4.722  22.960  0.00  0.00    -0.248 OA
BRANCH  54  56
ATOM     56  O   UNL     1       0.444  -6.986  22.843  0.00  0.00    -0.479 OA
ATOM     57  H   UNL     1       0.449  -6.948  21.858  0.00  0.00    +0.295 HD
ENDBRANCH  54  56
ENDBRANCH  44  54
ENDBRANCH  41  42
ENDBRANCH   7  41
TORSDOF 18
ENDMDL
MODEL 9
REMARK VINA RESULT:      -6.6      1.427      2.019
REMARK  Name = 
REMARK  18 active torsions:
REMARK  status: ('A' for Active; 'I' for Inactive)
REMARK    1  A    between atoms: C_3  and  O_51
REMARK    2  A    between atoms: C_4  and  O_50
REMARK    3  A    between atoms: C_6  and  C_7
REMARK    4  A    between atoms: C_8  and  O_35
REMARK    5  A    between atoms: C_12  and  O_34
REMARK    6  A    between atoms: C_14  and  O_18
REMARK    7  A    between atoms: O_18  and  C_19
REMARK    8  A    between atoms: C_21  and  O_33
REMARK    9  A    between atoms: C_22  and  O_32
REMARK   10  A    between atoms: C_24  and  O_31
REMARK   11  A    between atoms: C_26  and  C_28
REMARK   12  A    between atoms: C_28  and  O_30
REMARK   13  A    between atoms: O_35  and  C_36
REMARK   14  A    between atoms: C_38  and  O_49
REMARK   15  A    between atoms: C_39  and  O_48
REMARK   16  A    between atoms: C_40  and  O_47
REMARK   17  A    between atoms: C_42  and  C_44
REMARK   18  A    between atoms: C_44  and  O_46
REMARK                            x       y       z     vdW  Elec       q    Type
REMARK                         _______ _______ _______ _____ _____    ______ ____
ROOT
ATOM      1  C   UNL     1       7.076   0.796  24.535  0.00  0.00    +0.181 A 
ATOM      2  O   UNL     1       6.337  -0.367  24.498  0.00  0.00    -0.451 OA
ATOM      3  C   UNL     1       6.964  -1.576  24.399  0.00  0.00    +0.147 A 
ATOM      4  C   UNL     1       8.326  -1.709  24.216  0.00  0.00    +0.109 A 
ATOM      5  C   UNL     1       8.859  -3.005  24.108  0.00  0.00    +0.135 A 
ATOM      6  C   UNL     1       8.048  -4.148  24.292  0.00  0.00    +0.092 A 
ATOM      7  C   UNL     1       6.690  -3.999  24.584  0.00  0.00    +0.131 A 
ATOM      8  C   UNL     1       9.136  -0.461  24.205  0.00  0.00    +0.238 A 
ATOM      9  O   UNL     1      10.348  -0.512  24.048  0.00  0.00    -0.283 OA
ATOM     10  C   UNL     1       6.148  -2.706  24.558  0.00  0.00    +0.093 A 
ATOM     11  C   UNL     1       8.423   0.845  24.450  0.00  0.00    +0.214 A 
ENDROOT
BRANCH   1  13
ATOM     12  C   UNL     1       6.393   2.797  25.957  0.00  0.00    +0.015 A 
ATOM     13  C   UNL     1       6.219   1.981  24.829  0.00  0.00    +0.025 A 
ATOM     14  C   UNL     1       5.097   2.238  24.027  0.00  0.00    +0.060 A 
ATOM     15  C   UNL     1       4.108   3.103  24.469  0.00  0.00    +0.159 A 
ATOM     16  C   UNL     1       4.203   3.715  25.712  0.00  0.00    +0.158 A 
ATOM     17  C   UNL     1       5.368   3.610  26.446  0.00  0.00    +0.050 A 
BRANCH  16  18
ATOM     18  O   UNL     1       3.122   4.400  26.182  0.00  0.00    -0.503 OA
ATOM     19  H   UNL     1       2.579   3.776  26.697  0.00  0.00    +0.292 HD
ENDBRANCH  16  18
BRANCH  15  20
ATOM     20  O   UNL     1       3.006   3.305  23.694  0.00  0.00    -0.503 OA
ATOM     21  H   UNL     1       2.293   3.507  24.331  0.00  0.00    +0.292 HD
ENDBRANCH  15  20
ENDBRANCH   1  13
BRANCH   5  22
ATOM     22  O   UNL     1      10.181  -3.250  23.856  0.00  0.00    -0.506 OA
ATOM     23  H   UNL     1      10.722  -2.558  24.300  0.00  0.00    +0.292 HD
ENDBRANCH   5  22
BRANCH  11  24
ATOM     24  O   UNL     1       9.092   2.052  24.328  0.00  0.00    -0.453 OA
BRANCH  24  25
ATOM     25  C   UNL     1       9.628   2.552  23.088  0.00  0.00    +0.340 C 
ATOM     26  O   UNL     1      10.937   3.170  23.248  0.00  0.00    -0.322 OA
ATOM     27  C   UNL     1      11.021   4.422  23.989  0.00  0.00    +0.261 C 
ATOM     28  C   UNL     1       9.812   5.374  23.951  0.00  0.00    +0.185 C 
ATOM     29  C   UNL     1       8.498   4.630  23.743  0.00  0.00    +0.180 C 
ATOM     30  C   UNL     1       8.698   3.655  22.559  0.00  0.00    +0.214 C 
BRANCH  30  31
ATOM     31  O   UNL     1       7.457   3.213  22.030  0.00  0.00    -0.383 OA
ATOM     32  H   UNL     1       7.180   2.384  22.476  0.00  0.00    +0.210 HD
ENDBRANCH  30  31
BRANCH  29  33
ATOM     33  O   UNL     1       7.466   5.593  23.507  0.00  0.00    -0.386 OA
ATOM     34  H   UNL     1       6.648   5.084  23.358  0.00  0.00    +0.210 HD
ENDBRANCH  29  33
BRANCH  28  35
ATOM     35  O   UNL     1       9.909   6.319  22.873  0.00  0.00    -0.386 OA
ATOM     36  H   UNL     1      10.219   5.792  22.103  0.00  0.00    +0.210 HD
ENDBRANCH  28  35
BRANCH  27  37
ATOM     37  C   UNL     1      12.272   5.192  23.529  0.00  0.00    +0.337 C 
ATOM     38  O   UNL     1      12.789   5.083  22.428  0.00  0.00    -0.248 OA
BRANCH  37  39
ATOM     39  O   UNL     1      12.737   6.051  24.473  0.00  0.00    -0.479 OA
ATOM     40  H   UNL     1      13.195   6.797  24.030  0.00  0.00    +0.295 HD
ENDBRANCH  37  39
ENDBRANCH  27  37
ENDBRANCH  24  25
ENDBRANCH  11  24
BRANCH   7  41
ATOM     41  O   UNL     1       5.985  -5.140  24.938  0.00  0.00    -0.461 OA
BRANCH  41  42
ATOM     42  C   UNL     1       4.563  -5.052  24.684  0.00  0.00    +0.340 C 
ATOM     43  O   UNL     1       3.974  -4.056  25.540  0.00  0.00    -0.322 OA
ATOM     44  C   UNL     1       3.831  -4.539  26.887  0.00  0.00    +0.261 C 
ATOM     45  C   UNL     1       2.740  -5.612  26.914  0.00  0.00    +0.185 C 
ATOM     46  C   UNL     1       3.274  -6.815  26.130  0.00  0.00    +0.180 C 
ATOM     47  C   UNL     1       3.794  -6.408  24.738  0.00  0.00    +0.214 C 
BRANCH  47  48
ATOM     48  O   UNL     1       4.526  -7.475  24.130  0.00  0.00    -0.383 OA
ATOM     49  H   UNL     1       4.347  -7.451  23.170  0.00  0.00    +0.210 HD
ENDBRANCH  47  48
BRANCH  46  50
ATOM     50  O   UNL     1       4.285  -7.521  26.863  0.00  0.00    -0.386 OA
ATOM     51  H   UNL     1       4.249  -7.261  27.800  0.00  0.00    +0.210 HD
ENDBRANCH  46  50
BRANCH  45  52
ATOM     52  O   UNL     1       1.580  -5.101  26.234  0.00  0.00    -0.386 OA
ATOM     53  H   UNL     1       1.721  -5.206  25.278  0.00  0.00    +0.210 HD
ENDBRANCH  45  52
BRANCH  44  54
ATOM     54  C   UNL     1       3.484  -3.387  27.820  0.00  0.00    +0.337 C 
ATOM     55  O   UNL     1       4.152  -3.043  28.781  0.00  0.00    -0.248 OA
BRANCH  54  56
ATOM     56  O   UNL     1       2.369  -2.729  27.414  0.00  0.00    -0.479 OA
ATOM     57  H   UNL     1       1.898  -2.412  28.219  0.00  0.00    +0.295 HD
ENDBRANCH  54  56
ENDBRANCH  44  54
ENDBRANCH  41  42
ENDBRANCH   7  41
TORSDOF 18
ENDMDL
