MODEL 1
REMARK VINA RESULT:      -7.0      0.000      0.000
REMARK  Name = 
REMARK  24 active torsions:
REMARK  status: ('A' for Active; 'I' for Inactive)
REMARK    1  A    between atoms: C_1  and  O_2
REMARK    2  A    between atoms: O_2  and  C_3
REMARK    3  A    between atoms: C_4  and  O_67
REMARK    4  A    between atoms: C_7  and  C_9
REMARK    5  A    between atoms: C_10  and  C_11
REMARK    6  A    between atoms: C_11  and  O_13
REMARK    7  A    between atoms: O_13  and  C_14
REMARK    8  A    between atoms: C_14  and  C_15
REMARK    9  A    between atoms: C_17  and  O_66
REMARK   10  A    between atoms: C_19  and  O_65
REMARK   11  A    between atoms: C_21  and  O_64
REMARK   12  A    between atoms: C_23  and  O_26
REMARK   13  A    between atoms: O_26  and  C_27
REMARK   14  A    between atoms: C_29  and  O_63
REMARK   15  A    between atoms: C_31  and  O_62
REMARK   16  A    between atoms: C_33  and  C_60
REMARK   17  A    between atoms: C_36  and  O_38
REMARK   18  A    between atoms: O_38  and  C_39
REMARK   19  A    between atoms: C_40  and  C_52
REMARK   20  A    between atoms: C_44  and  O_51
REMARK   21  A    between atoms: C_46  and  O_50
REMARK   22  A    between atoms: C_54  and  O_59
REMARK   23  A    between atoms: C_55  and  O_58
REMARK   24  A    between atoms: C_60  and  O_61
REMARK                            x       y       z     vdW  Elec       q    Type
REMARK                         _______ _______ _______ _____ _____    ______ ____
ROOT
ATOM      1  C   UNL     1       5.448   1.622  25.602  0.00  0.00    +0.221 C 
ATOM      2  C   UNL     1       6.497   2.780  25.671  0.00  0.00    +0.340 C 
ATOM      3  O   UNL     1       6.048   3.939  26.384  0.00  0.00    -0.331 OA
ATOM      4  C   UNL     1       4.822   4.535  25.965  0.00  0.00    +0.179 C 
ATOM      5  C   UNL     1       3.740   3.475  25.719  0.00  0.00    +0.177 C 
ATOM      6  C   UNL     1       4.200   2.229  24.931  0.00  0.00    +0.180 C 
ENDROOT
BRANCH   6   7
ATOM      7  O   UNL     1       4.414   2.403  23.529  0.00  0.00    -0.386 OA
ATOM      8  H   UNL     1       5.277   2.810  23.371  0.00  0.00    +0.210 HD
ENDBRANCH   6   7
BRANCH   5   9
ATOM      9  O   UNL     1       2.584   4.049  25.118  0.00  0.00    -0.386 OA
ATOM     10  H   UNL     1       1.820   3.523  25.410  0.00  0.00    +0.210 HD
ENDBRANCH   5   9
BRANCH   4  11
ATOM     11  C   UNL     1       4.894   5.603  24.851  0.00  0.00    +0.190 C 
BRANCH  11  12
ATOM     12  O   UNL     1       5.044   5.036  23.552  0.00  0.00    -0.392 OA
ATOM     13  H   UNL     1       5.710   4.329  23.627  0.00  0.00    +0.210 HD
ENDBRANCH  11  12
ENDBRANCH   4  11
BRANCH   2  14
ATOM     14  O   UNL     1       6.867   3.195  24.332  0.00  0.00    -0.453 OA
BRANCH  14  15
ATOM     15  C   UNL     1       8.204   3.322  24.009  0.00  0.00    +0.214 A 
ATOM     16  C   UNL     1       8.780   4.674  23.872  0.00  0.00    +0.238 A 
ATOM     17  O   UNL     1       8.107   5.656  23.605  0.00  0.00    -0.283 OA
ATOM     18  C   UNL     1      10.233   4.809  23.900  0.00  0.00    +0.109 A 
ATOM     19  C   UNL     1      10.893   3.718  23.391  0.00  0.00    +0.147 A 
ATOM     20  C   UNL     1      12.211   3.905  23.015  0.00  0.00    +0.092 A 
ATOM     21  C   UNL     1      12.909   5.067  23.322  0.00  0.00    +0.124 A 
ATOM     22  C   UNL     1      12.269   6.110  23.967  0.00  0.00    +0.091 A 
ATOM     23  O   UNL     1      10.319   2.478  23.222  0.00  0.00    -0.451 OA
ATOM     24  C   UNL     1      10.908   5.994  24.216  0.00  0.00    +0.135 A 
ATOM     25  C   UNL     1       9.001   2.285  23.665  0.00  0.00    +0.181 A 
BRANCH  25  26
ATOM     26  C   UNL     1       8.569   0.842  23.606  0.00  0.00    +0.025 A 
ATOM     27  C   UNL     1       7.548   0.450  22.721  0.00  0.00    +0.015 A 
ATOM     28  C   UNL     1       7.114  -0.882  22.616  0.00  0.00    +0.050 A 
ATOM     29  C   UNL     1       7.740  -1.860  23.360  0.00  0.00    +0.158 A 
ATOM     30  C   UNL     1       8.787  -1.527  24.210  0.00  0.00    +0.159 A 
ATOM     31  C   UNL     1       9.197  -0.188  24.349  0.00  0.00    +0.060 A 
BRANCH  30  32
ATOM     32  O   UNL     1       9.393  -2.563  24.870  0.00  0.00    -0.503 OA
ATOM     33  H   UNL     1       8.891  -2.744  25.682  0.00  0.00    +0.292 HD
ENDBRANCH  30  32
BRANCH  29  34
ATOM     34  O   UNL     1       7.340  -3.163  23.225  0.00  0.00    -0.503 OA
ATOM     35  H   UNL     1       8.119  -3.697  23.479  0.00  0.00    +0.292 HD
ENDBRANCH  29  34
ENDBRANCH  25  26
BRANCH  24  36
ATOM     36  O   UNL     1      10.264   7.054  24.781  0.00  0.00    -0.506 OA
ATOM     37  H   UNL     1       9.720   6.714  25.511  0.00  0.00    +0.292 HD
ENDBRANCH  24  36
BRANCH  21  38
ATOM     38  O   UNL     1      14.222   5.275  23.057  0.00  0.00    -0.507 OA
ATOM     39  H   UNL     1      14.405   6.243  23.036  0.00  0.00    +0.292 HD
ENDBRANCH  21  38
ENDBRANCH  14  15
ENDBRANCH   2  14
BRANCH   1  40
ATOM     40  O   UNL     1       5.169   0.940  26.881  0.00  0.00    -0.337 OA
BRANCH  40  43
ATOM     41  C   UNL     1       4.745  -2.309  26.785  0.00  0.00    +0.190 C 
ATOM     42  O   UNL     1       4.351  -1.145  26.063  0.00  0.00    -0.339 OA
ATOM     43  C   UNL     1       4.031   0.056  26.754  0.00  0.00    +0.282 C 
ATOM     44  C   UNL     1       3.086  -0.109  27.967  0.00  0.00    +0.201 C 
ATOM     45  C   UNL     1       3.471  -1.272  28.882  0.00  0.00    +0.179 C 
ATOM     46  C   UNL     1       3.970  -2.526  28.132  0.00  0.00    +0.178 C 
BRANCH  46  47
ATOM     47  O   UNL     1       2.764  -3.282  27.858  0.00  0.00    -0.386 OA
ATOM     48  H   UNL     1       2.839  -4.154  28.284  0.00  0.00    +0.210 HD
ENDBRANCH  46  47
BRANCH  45  49
ATOM     49  O   UNL     1       4.383  -0.891  29.913  0.00  0.00    -0.386 OA
ATOM     50  H   UNL     1       4.035  -1.158  30.780  0.00  0.00    +0.210 HD
ENDBRANCH  45  49
BRANCH  44  51
ATOM     51  O   UNL     1       1.751  -0.309  27.425  0.00  0.00    -0.384 OA
ATOM     52  H   UNL     1       1.343  -1.098  27.821  0.00  0.00    +0.210 HD
ENDBRANCH  44  51
BRANCH  41  53
ATOM     53  C   UNL     1       6.296  -2.534  26.849  0.00  0.00    +0.266 C 
BRANCH  53  54
ATOM     54  O   UNL     1       6.801  -3.762  26.171  0.00  0.00    -0.459 OA
BRANCH  54  55
ATOM     55  C   UNL     1       6.704  -4.990  26.787  0.00  0.00    +0.332 C 
ATOM     56  O   UNL     1       7.490  -5.405  27.628  0.00  0.00    -0.246 OA
BRANCH  55  58
ATOM     57  C   UNL     1       4.778  -5.518  25.180  0.00  0.00    +0.015 C 
ATOM     58  C   UNL     1       5.516  -5.806  26.291  0.00  0.00    +0.092 C 
BRANCH  57  61
ATOM     59  C   UNL     1       2.304  -8.411  24.462  0.00  0.00    +0.162 A 
ATOM     60  C   UNL     1       3.149  -7.529  25.169  0.00  0.00    +0.057 A 
ATOM     61  C   UNL     1       3.640  -6.323  24.593  0.00  0.00    -0.021 A 
ATOM     62  C   UNL     1       2.993  -5.884  23.432  0.00  0.00    +0.012 A 
ATOM     63  C   UNL     1       2.044  -6.690  22.779  0.00  0.00    +0.050 A 
ATOM     64  C   UNL     1       1.783  -7.968  23.248  0.00  0.00    +0.158 A 
BRANCH  64  65
ATOM     65  O   UNL     1       1.004  -8.803  22.488  0.00  0.00    -0.503 OA
ATOM     66  H   UNL     1       0.987  -9.653  22.968  0.00  0.00    +0.292 HD
ENDBRANCH  64  65
BRANCH  59  68
ATOM     67  C   UNL     1       0.898 -10.082  25.611  0.00  0.00    +0.277 C 
ATOM     68  O   UNL     1       1.942  -9.707  24.730  0.00  0.00    -0.491 OA
ENDBRANCH  59  68
ENDBRANCH  57  61
ENDBRANCH  55  58
ENDBRANCH  54  55
ENDBRANCH  53  54
ENDBRANCH  41  53
ENDBRANCH  40  43
ENDBRANCH   1  40
TORSDOF 23
ENDMDL
MODEL 2
REMARK VINA RESULT:      -6.4      2.616      5.579
REMARK  Name = 
REMARK  24 active torsions:
REMARK  status: ('A' for Active; 'I' for Inactive)
REMARK    1  A    between atoms: C_1  and  O_2
REMARK    2  A    between atoms: O_2  and  C_3
REMARK    3  A    between atoms: C_4  and  O_67
REMARK    4  A    between atoms: C_7  and  C_9
REMARK    5  A    between atoms: C_10  and  C_11
REMARK    6  A    between atoms: C_11  and  O_13
REMARK    7  A    between atoms: O_13  and  C_14
REMARK    8  A    between atoms: C_14  and  C_15
REMARK    9  A    between atoms: C_17  and  O_66
REMARK   10  A    between atoms: C_19  and  O_65
REMARK   11  A    between atoms: C_21  and  O_64
REMARK   12  A    between atoms: C_23  and  O_26
REMARK   13  A    between atoms: O_26  and  C_27
REMARK   14  A    between atoms: C_29  and  O_63
REMARK   15  A    between atoms: C_31  and  O_62
REMARK   16  A    between atoms: C_33  and  C_60
REMARK   17  A    between atoms: C_36  and  O_38
REMARK   18  A    between atoms: O_38  and  C_39
REMARK   19  A    between atoms: C_40  and  C_52
REMARK   20  A    between atoms: C_44  and  O_51
REMARK   21  A    between atoms: C_46  and  O_50
REMARK   22  A    between atoms: C_54  and  O_59
REMARK   23  A    between atoms: C_55  and  O_58
REMARK   24  A    between atoms: C_60  and  O_61
REMARK                            x       y       z     vdW  Elec       q    Type
REMARK                         _______ _______ _______ _____ _____    ______ ____
ROOT
ATOM      1  C   UNL     1       3.618  -2.418  26.430  0.00  0.00    +0.221 C 
ATOM      2  C   UNL     1       5.031  -1.816  26.132  0.00  0.00    +0.340 C 
ATOM      3  O   UNL     1       5.781  -1.468  27.303  0.00  0.00    -0.331 OA
ATOM      4  C   UNL     1       5.163  -0.592  28.243  0.00  0.00    +0.179 C 
ATOM      5  C   UNL     1       3.707  -0.996  28.511  0.00  0.00    +0.177 C 
ATOM      6  C   UNL     1       2.876  -1.352  27.258  0.00  0.00    +0.180 C 
ENDROOT
BRANCH   6   7
ATOM      7  O   UNL     1       2.470  -0.261  26.431  0.00  0.00    -0.386 OA
ATOM      8  H   UNL     1       2.437  -0.538  25.504  0.00  0.00    +0.210 HD
ENDBRANCH   6   7
BRANCH   5   9
ATOM      9  O   UNL     1       3.036  -0.014  29.294  0.00  0.00    -0.386 OA
ATOM     10  H   UNL     1       3.558   0.804  29.233  0.00  0.00    +0.210 HD
ENDBRANCH   5   9
BRANCH   4  11
ATOM     11  C   UNL     1       5.344   0.927  28.027  0.00  0.00    +0.190 C 
BRANCH  11  12
ATOM     12  O   UNL     1       4.284   1.508  27.271  0.00  0.00    -0.392 OA
ATOM     13  H   UNL     1       3.953   0.815  26.670  0.00  0.00    +0.210 HD
ENDBRANCH  11  12
ENDBRANCH   4  11
BRANCH   2  14
ATOM     14  O   UNL     1       4.901  -0.626  25.315  0.00  0.00    -0.453 OA
BRANCH  14  15
ATOM     15  C   UNL     1       5.954  -0.242  24.507  0.00  0.00    +0.214 A 
ATOM     16  C   UNL     1       6.419   1.158  24.557  0.00  0.00    +0.238 A 
ATOM     17  O   UNL     1       5.705   2.080  24.918  0.00  0.00    -0.283 OA
ATOM     18  C   UNL     1       7.733   1.467  24.001  0.00  0.00    +0.109 A 
ATOM     19  C   UNL     1       8.087   0.654  22.953  0.00  0.00    +0.147 A 
ATOM     20  C   UNL     1       9.100   1.107  22.126  0.00  0.00    +0.092 A 
ATOM     21  C   UNL     1       9.870   2.219  22.444  0.00  0.00    +0.124 A 
ATOM     22  C   UNL     1       9.595   2.951  23.585  0.00  0.00    +0.091 A 
ATOM     23  O   UNL     1       7.488  -0.554  22.676  0.00  0.00    -0.451 OA
ATOM     24  C   UNL     1       8.487   2.595  24.344  0.00  0.00    +0.135 A 
ATOM     25  C   UNL     1       6.505  -1.031  23.557  0.00  0.00    +0.181 A 
BRANCH  25  26
ATOM     26  C   UNL     1       6.080  -2.445  23.250  0.00  0.00    +0.025 A 
ATOM     27  C   UNL     1       5.840  -2.833  21.919  0.00  0.00    +0.015 A 
ATOM     28  C   UNL     1       5.453  -4.139  21.576  0.00  0.00    +0.050 A 
ATOM     29  C   UNL     1       5.357  -5.099  22.560  0.00  0.00    +0.158 A 
ATOM     30  C   UNL     1       5.633  -4.774  23.882  0.00  0.00    +0.159 A 
ATOM     31  C   UNL     1       5.980  -3.456  24.237  0.00  0.00    +0.060 A 
BRANCH  30  32
ATOM     32  O   UNL     1       5.570  -5.797  24.791  0.00  0.00    -0.503 OA
ATOM     33  H   UNL     1       6.411  -6.283  24.762  0.00  0.00    +0.292 HD
ENDBRANCH  30  32
BRANCH  29  34
ATOM     34  O   UNL     1       5.019  -6.381  22.215  0.00  0.00    -0.503 OA
ATOM     35  H   UNL     1       5.838  -6.902  22.333  0.00  0.00    +0.292 HD
ENDBRANCH  29  34
ENDBRANCH  25  26
BRANCH  24  36
ATOM     36  O   UNL     1       8.172   3.365  25.423  0.00  0.00    -0.506 OA
ATOM     37  H   UNL     1       7.359   3.003  25.816  0.00  0.00    +0.292 HD
ENDBRANCH  24  36
BRANCH  21  38
ATOM     38  O   UNL     1      10.929   2.661  21.720  0.00  0.00    -0.507 OA
ATOM     39  H   UNL     1      11.120   3.598  21.954  0.00  0.00    +0.292 HD
ENDBRANCH  21  38
ENDBRANCH  14  15
ENDBRANCH   2  14
BRANCH   1  40
ATOM     40  O   UNL     1       3.616  -3.762  27.041  0.00  0.00    -0.337 OA
BRANCH  40  43
ATOM     41  C   UNL     1       2.711  -6.898  27.347  0.00  0.00    +0.190 C 
ATOM     42  O   UNL     1       3.246  -6.018  26.362  0.00  0.00    -0.339 OA
ATOM     43  C   UNL     1       2.793  -4.672  26.276  0.00  0.00    +0.282 C 
ATOM     44  C   UNL     1       1.257  -4.488  26.313  0.00  0.00    +0.201 C 
ATOM     45  C   UNL     1       0.574  -5.308  27.407  0.00  0.00    +0.179 C 
ATOM     46  C   UNL     1       1.174  -6.716  27.606  0.00  0.00    +0.178 C 
BRANCH  46  47
ATOM     47  O   UNL     1       0.443  -7.552  26.674  0.00  0.00    -0.386 OA
ATOM     48  H   UNL     1       0.923  -8.391  26.563  0.00  0.00    +0.210 HD
ENDBRANCH  46  47
BRANCH  45  49
ATOM     49  O   UNL     1       0.476  -4.609  28.649  0.00  0.00    -0.386 OA
ATOM     50  H   UNL     1       1.163  -4.922  29.260  0.00  0.00    +0.210 HD
ENDBRANCH  45  49
BRANCH  44  51
ATOM     51  O   UNL     1       0.764  -4.877  25.001  0.00  0.00    -0.384 OA
ATOM     52  H   UNL     1       0.141  -5.619  25.084  0.00  0.00    +0.210 HD
ENDBRANCH  44  51
BRANCH  41  53
ATOM     53  C   UNL     1       3.604  -7.051  28.627  0.00  0.00    +0.266 C 
BRANCH  53  54
ATOM     54  O   UNL     1       5.056  -7.281  28.379  0.00  0.00    -0.459 OA
BRANCH  54  55
ATOM     55  C   UNL     1       6.006  -6.588  29.097  0.00  0.00    +0.332 C 
ATOM     56  O   UNL     1       6.227  -6.752  30.289  0.00  0.00    -0.246 OA
BRANCH  55  58
ATOM     57  C   UNL     1       7.770  -5.842  27.393  0.00  0.00    +0.015 C 
ATOM     58  C   UNL     1       6.748  -5.560  28.251  0.00  0.00    +0.092 C 
BRANCH  57  61
ATOM     59  C   UNL     1       9.088  -2.577  25.778  0.00  0.00    +0.162 A 
ATOM     60  C   UNL     1       8.679  -3.504  26.762  0.00  0.00    +0.057 A 
ATOM     61  C   UNL     1       8.496  -4.885  26.474  0.00  0.00    -0.021 A 
ATOM     62  C   UNL     1       9.050  -5.346  25.273  0.00  0.00    +0.012 A 
ATOM     63  C   UNL     1       9.588  -4.453  24.330  0.00  0.00    +0.050 A 
ATOM     64  C   UNL     1       9.517  -3.087  24.554  0.00  0.00    +0.158 A 
BRANCH  64  65
ATOM     65  O   UNL     1       9.869  -2.233  23.539  0.00  0.00    -0.503 OA
ATOM     66  H   UNL     1       9.426  -2.580  22.742  0.00  0.00    +0.292 HD
ENDBRANCH  64  65
BRANCH  59  68
ATOM     67  C   UNL     1       8.941  -0.408  26.946  0.00  0.00    +0.277 C 
ATOM     68  O   UNL     1       9.074  -1.206  25.783  0.00  0.00    -0.491 OA
ENDBRANCH  59  68
ENDBRANCH  57  61
ENDBRANCH  55  58
ENDBRANCH  54  55
ENDBRANCH  53  54
ENDBRANCH  41  53
ENDBRANCH  40  43
ENDBRANCH   1  40
TORSDOF 23
ENDMDL
MODEL 3
REMARK VINA RESULT:      -6.1      2.403     10.119
REMARK  Name = 
REMARK  24 active torsions:
REMARK  status: ('A' for Active; 'I' for Inactive)
REMARK    1  A    between atoms: C_1  and  O_2
REMARK    2  A    between atoms: O_2  and  C_3
REMARK    3  A    between atoms: C_4  and  O_67
REMARK    4  A    between atoms: C_7  and  C_9
REMARK    5  A    between atoms: C_10  and  C_11
REMARK    6  A    between atoms: C_11  and  O_13
REMARK    7  A    between atoms: O_13  and  C_14
REMARK    8  A    between atoms: C_14  and  C_15
REMARK    9  A    between atoms: C_17  and  O_66
REMARK   10  A    between atoms: C_19  and  O_65
REMARK   11  A    between atoms: C_21  and  O_64
REMARK   12  A    between atoms: C_23  and  O_26
REMARK   13  A    between atoms: O_26  and  C_27
REMARK   14  A    between atoms: C_29  and  O_63
REMARK   15  A    between atoms: C_31  and  O_62
REMARK   16  A    between atoms: C_33  and  C_60
REMARK   17  A    between atoms: C_36  and  O_38
REMARK   18  A    between atoms: O_38  and  C_39
REMARK   19  A    between atoms: C_40  and  C_52
REMARK   20  A    between atoms: C_44  and  O_51
REMARK   21  A    between atoms: C_46  and  O_50
REMARK   22  A    between atoms: C_54  and  O_59
REMARK   23  A    between atoms: C_55  and  O_58
REMARK   24  A    between atoms: C_60  and  O_61
REMARK                            x       y       z     vdW  Elec       q    Type
REMARK                         _______ _______ _______ _____ _____    ______ ____
ROOT
ATOM      1  C   UNL     1       6.696   1.687  23.120  0.00  0.00    +0.221 C 
ATOM      2  C   UNL     1       7.210   1.309  24.549  0.00  0.00    +0.340 C 
ATOM      3  O   UNL     1       8.272   2.141  25.031  0.00  0.00    -0.331 OA
ATOM      4  C   UNL     1       9.431   2.270  24.211  0.00  0.00    +0.179 C 
ATOM      5  C   UNL     1       9.054   2.501  22.742  0.00  0.00    +0.177 C 
ATOM      6  C   UNL     1       7.926   1.596  22.197  0.00  0.00    +0.180 C 
ENDROOT
BRANCH   6   7
ATOM      7  O   UNL     1       8.268   0.233  21.943  0.00  0.00    -0.386 OA
ATOM      8  H   UNL     1       8.343   0.079  20.990  0.00  0.00    +0.210 HD
ENDBRANCH   6   7
BRANCH   5   9
ATOM      9  O   UNL     1      10.200   2.435  21.899  0.00  0.00    -0.386 OA
ATOM     10  H   UNL     1      10.898   1.985  22.404  0.00  0.00    +0.210 HD
ENDBRANCH   5   9
BRANCH   4  11
ATOM     11  C   UNL     1      10.553   1.225  24.395  0.00  0.00    +0.190 C 
BRANCH  11  12
ATOM     12  O   UNL     1      10.165   0.139  25.233  0.00  0.00    -0.392 OA
ATOM     13  H   UNL     1       9.221  -0.028  25.060  0.00  0.00    +0.210 HD
ENDBRANCH  11  12
ENDBRANCH   4  11
BRANCH   2  14
ATOM     14  O   UNL     1       7.677  -0.063  24.560  0.00  0.00    -0.453 OA
BRANCH  14  15
ATOM     15  C   UNL     1       6.796  -1.075  24.893  0.00  0.00    +0.214 A 
ATOM     16  C   UNL     1       6.413  -2.056  23.860  0.00  0.00    +0.238 A 
ATOM     17  O   UNL     1       6.465  -1.813  22.665  0.00  0.00    -0.283 OA
ATOM     18  C   UNL     1       5.796  -3.306  24.293  0.00  0.00    +0.109 A 
ATOM     19  C   UNL     1       5.055  -3.181  25.442  0.00  0.00    +0.147 A 
ATOM     20  C   UNL     1       4.135  -4.180  25.703  0.00  0.00    +0.092 A 
ATOM     21  C   UNL     1       4.097  -5.359  24.969  0.00  0.00    +0.124 A 
ATOM     22  C   UNL     1       4.953  -5.536  23.896  0.00  0.00    +0.091 A 
ATOM     23  O   UNL     1       5.162  -2.125  26.318  0.00  0.00    -0.451 OA
ATOM     24  C   UNL     1       5.777  -4.480  23.531  0.00  0.00    +0.135 A 
ATOM     25  C   UNL     1       6.142  -1.149  26.074  0.00  0.00    +0.181 A 
BRANCH  25  26
ATOM     26  C   UNL     1       6.286  -0.168  27.209  0.00  0.00    +0.025 A 
ATOM     27  C   UNL     1       5.168   0.561  27.655  0.00  0.00    +0.015 A 
ATOM     28  C   UNL     1       5.244   1.480  28.715  0.00  0.00    +0.050 A 
ATOM     29  C   UNL     1       6.435   1.641  29.389  0.00  0.00    +0.158 A 
ATOM     30  C   UNL     1       7.553   0.906  29.016  0.00  0.00    +0.159 A 
ATOM     31  C   UNL     1       7.493   0.015  27.928  0.00  0.00    +0.060 A 
BRANCH  30  32
ATOM     32  O   UNL     1       8.683   1.083  29.773  0.00  0.00    -0.503 OA
ATOM     33  H   UNL     1       9.453   1.049  29.182  0.00  0.00    +0.292 HD
ENDBRANCH  30  32
BRANCH  29  34
ATOM     34  O   UNL     1       6.493   2.509  30.448  0.00  0.00    -0.503 OA
ATOM     35  H   UNL     1       6.613   1.942  31.236  0.00  0.00    +0.292 HD
ENDBRANCH  29  34
ENDBRANCH  25  26
BRANCH  24  36
ATOM     36  O   UNL     1       6.562  -4.629  22.427  0.00  0.00    -0.506 OA
ATOM     37  H   UNL     1       6.029  -4.384  21.651  0.00  0.00    +0.292 HD
ENDBRANCH  24  36
BRANCH  21  38
ATOM     38  O   UNL     1       3.279  -6.409  25.230  0.00  0.00    -0.507 OA
ATOM     39  H   UNL     1       3.611  -7.210  24.762  0.00  0.00    +0.292 HD
ENDBRANCH  21  38
ENDBRANCH  14  15
ENDBRANCH   2  14
BRANCH   1  40
ATOM     40  O   UNL     1       5.967   2.968  23.026  0.00  0.00    -0.337 OA
BRANCH  40  43
ATOM     41  C   UNL     1       3.219   3.212  24.796  0.00  0.00    +0.190 C 
ATOM     42  O   UNL     1       3.870   2.284  23.932  0.00  0.00    -0.339 OA
ATOM     43  C   UNL     1       4.561   2.740  22.775  0.00  0.00    +0.282 C 
ATOM     44  C   UNL     1       3.792   3.761  21.905  0.00  0.00    +0.201 C 
ATOM     45  C   UNL     1       3.131   4.875  22.717  0.00  0.00    +0.179 C 
ATOM     46  C   UNL     1       2.518   4.402  24.053  0.00  0.00    +0.178 C 
BRANCH  46  47
ATOM     47  O   UNL     1       1.168   4.003  23.705  0.00  0.00    -0.386 OA
ATOM     48  H   UNL     1       1.193   3.103  23.338  0.00  0.00    +0.210 HD
ENDBRANCH  46  47
BRANCH  45  49
ATOM     49  O   UNL     1       3.985   6.004  22.913  0.00  0.00    -0.386 OA
ATOM     50  H   UNL     1       3.458   6.820  22.922  0.00  0.00    +0.210 HD
ENDBRANCH  45  49
BRANCH  44  51
ATOM     51  O   UNL     1       2.791   3.004  21.170  0.00  0.00    -0.384 OA
ATOM     52  H   UNL     1       3.184   2.621  20.366  0.00  0.00    +0.210 HD
ENDBRANCH  44  51
BRANCH  41  53
ATOM     53  C   UNL     1       4.050   3.600  26.069  0.00  0.00    +0.266 C 
BRANCH  53  54
ATOM     54  O   UNL     1       4.752   4.914  26.009  0.00  0.00    -0.459 OA
BRANCH  54  55
ATOM     55  C   UNL     1       5.271   5.482  27.151  0.00  0.00    +0.332 C 
ATOM     56  O   UNL     1       4.647   5.634  28.192  0.00  0.00    -0.246 OA
BRANCH  55  58
ATOM     57  C   UNL     1       7.507   5.641  25.907  0.00  0.00    +0.015 C 
ATOM     58  C   UNL     1       6.716   5.934  26.980  0.00  0.00    +0.092 C 
BRANCH  57  61
ATOM     59  C   UNL     1      10.976   6.132  24.255  0.00  0.00    +0.162 A 
ATOM     60  C   UNL     1       9.582   5.954  24.394  0.00  0.00    +0.057 A 
ATOM     61  C   UNL     1       8.918   6.118  25.641  0.00  0.00    -0.021 A 
ATOM     62  C   UNL     1       9.637   6.780  26.644  0.00  0.00    +0.012 A 
ATOM     63  C   UNL     1      10.998   7.091  26.478  0.00  0.00    +0.050 A 
ATOM     64  C   UNL     1      11.664   6.685  25.332  0.00  0.00    +0.158 A 
BRANCH  64  65
ATOM     65  O   UNL     1      13.028   6.826  25.278  0.00  0.00    -0.503 OA
ATOM     66  H   UNL     1      13.190   7.789  25.264  0.00  0.00    +0.292 HD
ENDBRANCH  64  65
BRANCH  59  68
ATOM     67  C   UNL     1      12.369   4.488  23.053  0.00  0.00    +0.277 C 
ATOM     68  O   UNL     1      11.823   5.782  23.234  0.00  0.00    -0.491 OA
ENDBRANCH  59  68
ENDBRANCH  57  61
ENDBRANCH  55  58
ENDBRANCH  54  55
ENDBRANCH  53  54
ENDBRANCH  41  53
ENDBRANCH  40  43
ENDBRANCH   1  40
TORSDOF 23
ENDMDL
MODEL 4
REMARK VINA RESULT:      -6.0      2.310      6.823
REMARK  Name = 
REMARK  24 active torsions:
REMARK  status: ('A' for Active; 'I' for Inactive)
REMARK    1  A    between atoms: C_1  and  O_2
REMARK    2  A    between atoms: O_2  and  C_3
REMARK    3  A    between atoms: C_4  and  O_67
REMARK    4  A    between atoms: C_7  and  C_9
REMARK    5  A    between atoms: C_10  and  C_11
REMARK    6  A    between atoms: C_11  and  O_13
REMARK    7  A    between atoms: O_13  and  C_14
REMARK    8  A    between atoms: C_14  and  C_15
REMARK    9  A    between atoms: C_17  and  O_66
REMARK   10  A    between atoms: C_19  and  O_65
REMARK   11  A    between atoms: C_21  and  O_64
REMARK   12  A    between atoms: C_23  and  O_26
REMARK   13  A    between atoms: O_26  and  C_27
REMARK   14  A    between atoms: C_29  and  O_63
REMARK   15  A    between atoms: C_31  and  O_62
REMARK   16  A    between atoms: C_33  and  C_60
REMARK   17  A    between atoms: C_36  and  O_38
REMARK   18  A    between atoms: O_38  and  C_39
REMARK   19  A    between atoms: C_40  and  C_52
REMARK   20  A    between atoms: C_44  and  O_51
REMARK   21  A    between atoms: C_46  and  O_50
REMARK   22  A    between atoms: C_54  and  O_59
REMARK   23  A    between atoms: C_55  and  O_58
REMARK   24  A    between atoms: C_60  and  O_61
REMARK                            x       y       z     vdW  Elec       q    Type
REMARK                         _______ _______ _______ _____ _____    ______ ____
ROOT
ATOM      1  C   UNL     1       7.879   3.324  23.908  0.00  0.00    +0.221 C 
ATOM      2  C   UNL     1       6.549   3.781  23.223  0.00  0.00    +0.340 C 
ATOM      3  O   UNL     1       6.734   4.683  22.124  0.00  0.00    -0.331 OA
ATOM      4  C   UNL     1       7.487   5.870  22.366  0.00  0.00    +0.179 C 
ATOM      5  C   UNL     1       8.760   5.570  23.169  0.00  0.00    +0.177 C 
ATOM      6  C   UNL     1       8.576   4.618  24.372  0.00  0.00    +0.180 C 
ENDROOT
BRANCH   6   7
ATOM      7  O   UNL     1       7.923   5.160  25.521  0.00  0.00    -0.386 OA
ATOM      8  H   UNL     1       7.643   6.070  25.348  0.00  0.00    +0.210 HD
ENDBRANCH   6   7
BRANCH   5   9
ATOM      9  O   UNL     1       9.407   6.771  23.576  0.00  0.00    -0.386 OA
ATOM     10  H   UNL     1      10.326   6.720  23.261  0.00  0.00    +0.210 HD
ENDBRANCH   5   9
BRANCH   4  11
ATOM     11  C   UNL     1       6.720   7.108  22.880  0.00  0.00    +0.190 C 
BRANCH  11  12
ATOM     12  O   UNL     1       6.498   7.076  24.287  0.00  0.00    -0.392 OA
ATOM     13  H   UNL     1       7.024   7.800  24.673  0.00  0.00    +0.210 HD
ENDBRANCH  11  12
ENDBRANCH   4  11
BRANCH   2  14
ATOM     14  O   UNL     1       5.689   4.430  24.193  0.00  0.00    -0.453 OA
BRANCH  14  15
ATOM     15  C   UNL     1       4.736   3.681  24.858  0.00  0.00    +0.214 A 
ATOM     16  C   UNL     1       5.113   2.996  26.109  0.00  0.00    +0.238 A 
ATOM     17  O   UNL     1       6.264   2.687  26.374  0.00  0.00    -0.283 OA
ATOM     18  C   UNL     1       4.044   2.528  26.986  0.00  0.00    +0.109 A 
ATOM     19  C   UNL     1       2.903   2.168  26.313  0.00  0.00    +0.147 A 
ATOM     20  C   UNL     1       2.006   1.361  26.990  0.00  0.00    +0.092 A 
ATOM     21  C   UNL     1       2.134   1.093  28.348  0.00  0.00    +0.124 A 
ATOM     22  C   UNL     1       3.219   1.584  29.053  0.00  0.00    +0.091 A 
ATOM     23  O   UNL     1       2.619   2.544  25.019  0.00  0.00    -0.451 OA
ATOM     24  C   UNL     1       4.203   2.269  28.352  0.00  0.00    +0.135 A 
ATOM     25  C   UNL     1       3.506   3.413  24.365  0.00  0.00    +0.181 A 
BRANCH  25  26
ATOM     26  C   UNL     1       2.977   3.902  23.041  0.00  0.00    +0.025 A 
ATOM     27  C   UNL     1       3.053   5.269  22.715  0.00  0.00    +0.015 A 
ATOM     28  C   UNL     1       2.586   5.777  21.492  0.00  0.00    +0.050 A 
ATOM     29  C   UNL     1       2.084   4.910  20.544  0.00  0.00    +0.158 A 
ATOM     30  C   UNL     1       2.036   3.546  20.802  0.00  0.00    +0.159 A 
ATOM     31  C   UNL     1       2.464   3.037  22.042  0.00  0.00    +0.060 A 
BRANCH  30  32
ATOM     32  O   UNL     1       1.578   2.746  19.788  0.00  0.00    -0.503 OA
ATOM     33  H   UNL     1       2.330   2.516  19.217  0.00  0.00    +0.292 HD
ENDBRANCH  30  32
BRANCH  29  34
ATOM     34  O   UNL     1       1.667   5.406  19.336  0.00  0.00    -0.503 OA
ATOM     35  H   UNL     1       0.928   4.827  19.065  0.00  0.00    +0.292 HD
ENDBRANCH  29  34
ENDBRANCH  25  26
BRANCH  24  36
ATOM     36  O   UNL     1       5.308   2.683  29.035  0.00  0.00    -0.506 OA
ATOM     37  H   UNL     1       5.022   3.353  29.680  0.00  0.00    +0.292 HD
ENDBRANCH  24  36
BRANCH  21  38
ATOM     38  O   UNL     1       1.245   0.383  29.085  0.00  0.00    -0.507 OA
ATOM     39  H   UNL     1       0.329   0.674  28.868  0.00  0.00    +0.292 HD
ENDBRANCH  21  38
ENDBRANCH  14  15
ENDBRANCH   2  14
BRANCH   1  40
ATOM     40  O   UNL     1       8.738   2.436  23.099  0.00  0.00    -0.337 OA
BRANCH  40  43
ATOM     41  C   UNL     1       7.910  -0.461  24.391  0.00  0.00    +0.190 C 
ATOM     42  O   UNL     1       8.491   0.777  24.794  0.00  0.00    -0.339 OA
ATOM     43  C   UNL     1       9.398   1.459  23.937  0.00  0.00    +0.282 C 
ATOM     44  C   UNL     1      10.507   0.580  23.312  0.00  0.00    +0.201 C 
ATOM     45  C   UNL     1       9.987  -0.741  22.746  0.00  0.00    +0.179 C 
ATOM     46  C   UNL     1       8.885  -1.402  23.601  0.00  0.00    +0.178 C 
BRANCH  46  47
ATOM     47  O   UNL     1       9.612  -2.222  24.550  0.00  0.00    -0.386 OA
ATOM     48  H   UNL     1      10.039  -2.952  24.070  0.00  0.00    +0.210 HD
ENDBRANCH  46  47
BRANCH  45  49
ATOM     49  O   UNL     1       9.588  -0.642  21.377  0.00  0.00    -0.386 OA
ATOM     50  H   UNL     1      10.324  -0.305  20.841  0.00  0.00    +0.210 HD
ENDBRANCH  45  49
BRANCH  44  51
ATOM     51  O   UNL     1      11.480   0.335  24.365  0.00  0.00    -0.384 OA
ATOM     52  H   UNL     1      11.026   0.098  25.193  0.00  0.00    +0.210 HD
ENDBRANCH  44  51
BRANCH  41  53
ATOM     53  C   UNL     1       6.462  -0.331  23.802  0.00  0.00    +0.266 C 
BRANCH  53  54
ATOM     54  O   UNL     1       5.361  -0.242  24.805  0.00  0.00    -0.459 OA
BRANCH  54  55
ATOM     55  C   UNL     1       5.421  -0.968  25.974  0.00  0.00    +0.332 C 
ATOM     56  O   UNL     1       5.810  -0.522  27.044  0.00  0.00    -0.246 OA
BRANCH  55  58
ATOM     57  C   UNL     1       4.800  -3.035  24.591  0.00  0.00    +0.015 C 
ATOM     58  C   UNL     1       4.974  -2.414  25.793  0.00  0.00    +0.092 C 
BRANCH  57  61
ATOM     59  C   UNL     1       2.979  -6.200  23.297  0.00  0.00    +0.162 A 
ATOM     60  C   UNL     1       3.534  -4.902  23.323  0.00  0.00    +0.057 A 
ATOM     61  C   UNL     1       4.432  -4.481  24.344  0.00  0.00    -0.021 A 
ATOM     62  C   UNL     1       4.998  -5.495  25.128  0.00  0.00    +0.012 A 
ATOM     63  C   UNL     1       4.555  -6.825  25.026  0.00  0.00    +0.050 A 
ATOM     64  C   UNL     1       3.499  -7.140  24.184  0.00  0.00    +0.158 A 
BRANCH  64  65
ATOM     65  O   UNL     1       2.959  -8.400  24.247  0.00  0.00    -0.503 OA
ATOM     66  H   UNL     1       3.172  -8.731  25.140  0.00  0.00    +0.292 HD
ENDBRANCH  64  65
BRANCH  59  68
ATOM     67  C   UNL     1       0.673  -6.071  22.429  0.00  0.00    +0.277 C 
ATOM     68  O   UNL     1       1.930  -6.707  22.574  0.00  0.00    -0.491 OA
ENDBRANCH  59  68
ENDBRANCH  57  61
ENDBRANCH  55  58
ENDBRANCH  54  55
ENDBRANCH  53  54
ENDBRANCH  41  53
ENDBRANCH  40  43
ENDBRANCH   1  40
TORSDOF 23
ENDMDL
MODEL 5
REMARK VINA RESULT:      -5.9      2.186      6.763
REMARK  Name = 
REMARK  24 active torsions:
REMARK  status: ('A' for Active; 'I' for Inactive)
REMARK    1  A    between atoms: C_1  and  O_2
REMARK    2  A    between atoms: O_2  and  C_3
REMARK    3  A    between atoms: C_4  and  O_67
REMARK    4  A    between atoms: C_7  and  C_9
REMARK    5  A    between atoms: C_10  and  C_11
REMARK    6  A    between atoms: C_11  and  O_13
REMARK    7  A    between atoms: O_13  and  C_14
REMARK    8  A    between atoms: C_14  and  C_15
REMARK    9  A    between atoms: C_17  and  O_66
REMARK   10  A    between atoms: C_19  and  O_65
REMARK   11  A    between atoms: C_21  and  O_64
REMARK   12  A    between atoms: C_23  and  O_26
REMARK   13  A    between atoms: O_26  and  C_27
REMARK   14  A    between atoms: C_29  and  O_63
REMARK   15  A    between atoms: C_31  and  O_62
REMARK   16  A    between atoms: C_33  and  C_60
REMARK   17  A    between atoms: C_36  and  O_38
REMARK   18  A    between atoms: O_38  and  C_39
REMARK   19  A    between atoms: C_40  and  C_52
REMARK   20  A    between atoms: C_44  and  O_51
REMARK   21  A    between atoms: C_46  and  O_50
REMARK   22  A    between atoms: C_54  and  O_59
REMARK   23  A    between atoms: C_55  and  O_58
REMARK   24  A    between atoms: C_60  and  O_61
REMARK                            x       y       z     vdW  Elec       q    Type
REMARK                         _______ _______ _______ _____ _____    ______ ____
ROOT
ATOM      1  C   UNL     1       7.203   1.122  23.736  0.00  0.00    +0.221 C 
ATOM      2  C   UNL     1       6.069   2.138  23.377  0.00  0.00    +0.340 C 
ATOM      3  O   UNL     1       6.370   2.986  22.262  0.00  0.00    -0.331 OA
ATOM      4  C   UNL     1       7.580   3.739  22.315  0.00  0.00    +0.179 C 
ATOM      5  C   UNL     1       8.753   2.878  22.800  0.00  0.00    +0.177 C 
ATOM      6  C   UNL     1       8.455   1.975  24.017  0.00  0.00    +0.180 C 
ENDROOT
BRANCH   6   7
ATOM      7  O   UNL     1       8.348   2.626  25.285  0.00  0.00    -0.386 OA
ATOM      8  H   UNL     1       7.423   2.837  25.475  0.00  0.00    +0.210 HD
ENDBRANCH   6   7
BRANCH   5   9
ATOM      9  O   UNL     1       9.911   3.673  23.039  0.00  0.00    -0.386 OA
ATOM     10  H   UNL     1      10.486   3.578  22.261  0.00  0.00    +0.210 HD
ENDBRANCH   5   9
BRANCH   4  11
ATOM     11  C   UNL     1       7.524   5.129  22.988  0.00  0.00    +0.190 C 
BRANCH  11  12
ATOM     12  O   UNL     1       8.443   6.057  22.417  0.00  0.00    -0.392 OA
ATOM     13  H   UNL     1       8.976   5.562  21.768  0.00  0.00    +0.210 HD
ENDBRANCH  11  12
ENDBRANCH   4  11
BRANCH   2  14
ATOM     14  O   UNL     1       5.784   2.985  24.518  0.00  0.00    -0.453 OA
BRANCH  14  15
ATOM     15  C   UNL     1       4.660   2.736  25.282  0.00  0.00    +0.214 A 
ATOM     16  C   UNL     1       4.807   1.989  26.546  0.00  0.00    +0.238 A 
ATOM     17  O   UNL     1       5.733   1.224  26.759  0.00  0.00    -0.283 OA
ATOM     18  C   UNL     1       3.713   2.048  27.512  0.00  0.00    +0.109 A 
ATOM     19  C   UNL     1       2.478   2.195  26.930  0.00  0.00    +0.147 A 
ATOM     20  C   UNL     1       1.380   1.869  27.706  0.00  0.00    +0.092 A 
ATOM     21  C   UNL     1       1.489   1.609  29.066  0.00  0.00    +0.124 A 
ATOM     22  C   UNL     1       2.732   1.606  29.675  0.00  0.00    +0.091 A 
ATOM     23  O   UNL     1       2.280   2.622  25.636  0.00  0.00    -0.451 OA
ATOM     24  C   UNL     1       3.855   1.783  28.878  0.00  0.00    +0.135 A 
ATOM     25  C   UNL     1       3.398   3.008  24.880  0.00  0.00    +0.181 A 
BRANCH  25  26
ATOM     26  C   UNL     1       3.024   3.641  23.564  0.00  0.00    +0.025 A 
ATOM     27  C   UNL     1       2.049   3.040  22.747  0.00  0.00    +0.015 A 
ATOM     28  C   UNL     1       1.654   3.592  21.517  0.00  0.00    +0.050 A 
ATOM     29  C   UNL     1       2.191   4.794  21.110  0.00  0.00    +0.158 A 
ATOM     30  C   UNL     1       3.121   5.449  21.907  0.00  0.00    +0.159 A 
ATOM     31  C   UNL     1       3.550   4.879  23.121  0.00  0.00    +0.060 A 
BRANCH  30  32
ATOM     32  O   UNL     1       3.564   6.666  21.459  0.00  0.00    -0.503 OA
ATOM     33  H   UNL     1       3.149   7.360  21.998  0.00  0.00    +0.292 HD
ENDBRANCH  30  32
BRANCH  29  34
ATOM     34  O   UNL     1       1.773   5.349  19.928  0.00  0.00    -0.503 OA
ATOM     35  H   UNL     1       2.558   5.327  19.345  0.00  0.00    +0.292 HD
ENDBRANCH  29  34
ENDBRANCH  25  26
BRANCH  24  36
ATOM     36  O   UNL     1       5.081   1.702  29.468  0.00  0.00    -0.506 OA
ATOM     37  H   UNL     1       5.110   0.872  29.973  0.00  0.00    +0.292 HD
ENDBRANCH  24  36
BRANCH  21  38
ATOM     38  O   UNL     1       0.443   1.369  29.896  0.00  0.00    -0.507 OA
ATOM     39  H   UNL     1       0.198   2.198  30.367  0.00  0.00    +0.292 HD
ENDBRANCH  21  38
ENDBRANCH  14  15
ENDBRANCH   2  14
BRANCH   1  40
ATOM     40  O   UNL     1       7.422   0.042  22.752  0.00  0.00    -0.337 OA
BRANCH  40  43
ATOM     41  C   UNL     1       8.418  -2.092  25.032  0.00  0.00    +0.190 C 
ATOM     42  O   UNL     1       8.853  -0.880  24.422  0.00  0.00    -0.339 OA
ATOM     43  C   UNL     1       8.654  -0.663  23.031  0.00  0.00    +0.282 C 
ATOM     44  C   UNL     1       9.053  -1.842  22.113  0.00  0.00    +0.201 C 
ATOM     45  C   UNL     1       8.550  -3.196  22.612  0.00  0.00    +0.179 C 
ATOM     46  C   UNL     1       8.620  -3.369  24.144  0.00  0.00    +0.178 C 
BRANCH  46  47
ATOM     47  O   UNL     1       9.949  -3.897  24.384  0.00  0.00    -0.386 OA
ATOM     48  H   UNL     1       9.886  -4.617  25.036  0.00  0.00    +0.210 HD
ENDBRANCH  46  47
BRANCH  45  49
ATOM     49  O   UNL     1       7.251  -3.526  22.115  0.00  0.00    -0.386 OA
ATOM     50  H   UNL     1       7.078  -3.040  21.292  0.00  0.00    +0.210 HD
ENDBRANCH  45  49
BRANCH  44  51
ATOM     51  O   UNL     1      10.506  -1.834  22.041  0.00  0.00    -0.384 OA
ATOM     52  H   UNL     1      10.795  -1.780  21.113  0.00  0.00    +0.210 HD
ENDBRANCH  44  51
BRANCH  41  53
ATOM     53  C   UNL     1       7.036  -1.985  25.765  0.00  0.00    +0.266 C 
BRANCH  53  54
ATOM     54  O   UNL     1       6.013  -2.996  25.372  0.00  0.00    -0.459 OA
BRANCH  54  55
ATOM     55  C   UNL     1       4.697  -2.629  25.200  0.00  0.00    +0.332 C 
ATOM     56  O   UNL     1       4.218  -1.574  25.591  0.00  0.00    -0.246 OA
BRANCH  55  58
ATOM     57  C   UNL     1       3.539  -4.909  25.017  0.00  0.00    +0.015 C 
ATOM     58  C   UNL     1       3.875  -3.697  24.488  0.00  0.00    +0.092 C 
BRANCH  57  61
ATOM     59  C   UNL     1       1.908  -8.336  24.242  0.00  0.00    +0.162 A 
ATOM     60  C   UNL     1       2.471  -7.265  24.970  0.00  0.00    +0.057 A 
ATOM     61  C   UNL     1       2.668  -5.978  24.396  0.00  0.00    -0.021 A 
ATOM     62  C   UNL     1       1.984  -5.722  23.201  0.00  0.00    +0.012 A 
ATOM     63  C   UNL     1       1.299  -6.744  22.522  0.00  0.00    +0.050 A 
ATOM     64  C   UNL     1       1.347  -8.045  23.001  0.00  0.00    +0.158 A 
BRANCH  64  65
ATOM     65  O   UNL     1       0.839  -9.054  22.222  0.00  0.00    -0.503 OA
ATOM     66  H   UNL     1      -0.107  -9.114  22.457  0.00  0.00    +0.292 HD
ENDBRANCH  64  65
BRANCH  59  68
ATOM     67  C   UNL     1       1.052 -10.276  25.505  0.00  0.00    +0.277 C 
ATOM     68  O   UNL     1       1.872  -9.680  24.516  0.00  0.00    -0.491 OA
ENDBRANCH  59  68
ENDBRANCH  57  61
ENDBRANCH  55  58
ENDBRANCH  54  55
ENDBRANCH  53  54
ENDBRANCH  41  53
ENDBRANCH  40  43
ENDBRANCH   1  40
TORSDOF 23
ENDMDL
MODEL 6
REMARK VINA RESULT:      -5.9      2.961      5.326
REMARK  Name = 
REMARK  24 active torsions:
REMARK  status: ('A' for Active; 'I' for Inactive)
REMARK    1  A    between atoms: C_1  and  O_2
REMARK    2  A    between atoms: O_2  and  C_3
REMARK    3  A    between atoms: C_4  and  O_67
REMARK    4  A    between atoms: C_7  and  C_9
REMARK    5  A    between atoms: C_10  and  C_11
REMARK    6  A    between atoms: C_11  and  O_13
REMARK    7  A    between atoms: O_13  and  C_14
REMARK    8  A    between atoms: C_14  and  C_15
REMARK    9  A    between atoms: C_17  and  O_66
REMARK   10  A    between atoms: C_19  and  O_65
REMARK   11  A    between atoms: C_21  and  O_64
REMARK   12  A    between atoms: C_23  and  O_26
REMARK   13  A    between atoms: O_26  and  C_27
REMARK   14  A    between atoms: C_29  and  O_63
REMARK   15  A    between atoms: C_31  and  O_62
REMARK   16  A    between atoms: C_33  and  C_60
REMARK   17  A    between atoms: C_36  and  O_38
REMARK   18  A    between atoms: O_38  and  C_39
REMARK   19  A    between atoms: C_40  and  C_52
REMARK   20  A    between atoms: C_44  and  O_51
REMARK   21  A    between atoms: C_46  and  O_50
REMARK   22  A    between atoms: C_54  and  O_59
REMARK   23  A    between atoms: C_55  and  O_58
REMARK   24  A    between atoms: C_60  and  O_61
REMARK                            x       y       z     vdW  Elec       q    Type
REMARK                         _______ _______ _______ _____ _____    ______ ____
ROOT
ATOM      1  C   UNL     1       4.898   0.194  27.938  0.00  0.00    +0.221 C 
ATOM      2  C   UNL     1       6.350   0.586  28.369  0.00  0.00    +0.340 C 
ATOM      3  O   UNL     1       6.453   1.074  29.713  0.00  0.00    -0.331 OA
ATOM      4  C   UNL     1       5.618   2.169  30.081  0.00  0.00    +0.179 C 
ATOM      5  C   UNL     1       4.181   1.970  29.581  0.00  0.00    +0.177 C 
ATOM      6  C   UNL     1       4.049   1.467  28.127  0.00  0.00    +0.180 C 
ENDROOT
BRANCH   6   7
ATOM      7  O   UNL     1       4.325   2.416  27.095  0.00  0.00    -0.386 OA
ATOM      8  H   UNL     1       3.525   2.917  26.879  0.00  0.00    +0.210 HD
ENDBRANCH   6   7
BRANCH   5   9
ATOM      9  O   UNL     1       3.400   3.144  29.778  0.00  0.00    -0.386 OA
ATOM     10  H   UNL     1       3.950   3.772  30.276  0.00  0.00    +0.210 HD
ENDBRANCH   5   9
BRANCH   4  11
ATOM     11  C   UNL     1       6.159   3.594  29.828  0.00  0.00    +0.190 C 
BRANCH  11  12
ATOM     12  O   UNL     1       7.556   3.612  29.544  0.00  0.00    -0.392 OA
ATOM     13  H   UNL     1       7.868   4.518  29.721  0.00  0.00    +0.210 HD
ENDBRANCH  11  12
ENDBRANCH   4  11
BRANCH   2  14
ATOM     14  O   UNL     1       6.872   1.607  27.482  0.00  0.00    -0.453 OA
BRANCH  14  15
ATOM     15  C   UNL     1       7.606   1.228  26.374  0.00  0.00    +0.214 A 
ATOM     16  C   UNL     1       8.386  -0.023  26.429  0.00  0.00    +0.238 A 
ATOM     17  O   UNL     1       8.772  -0.518  27.475  0.00  0.00    -0.283 OA
ATOM     18  C   UNL     1       8.848  -0.601  25.170  0.00  0.00    +0.109 A 
ATOM     19  C   UNL     1       9.104   0.336  24.200  0.00  0.00    +0.147 A 
ATOM     20  C   UNL     1       9.901  -0.063  23.141  0.00  0.00    +0.092 A 
ATOM     21  C   UNL     1      10.258  -1.391  22.945  0.00  0.00    +0.124 A 
ATOM     22  C   UNL     1       9.870  -2.356  23.859  0.00  0.00    +0.091 A 
ATOM     23  O   UNL     1       8.635   1.630  24.234  0.00  0.00    -0.451 OA
ATOM     24  C   UNL     1       9.198  -1.946  25.003  0.00  0.00    +0.135 A 
ATOM     25  C   UNL     1       7.778   2.004  25.280  0.00  0.00    +0.181 A 
BRANCH  25  26
ATOM     26  C   UNL     1       7.181   3.375  25.086  0.00  0.00    +0.025 A 
ATOM     27  C   UNL     1       6.068   3.544  24.243  0.00  0.00    +0.015 A 
ATOM     28  C   UNL     1       5.465   4.796  24.035  0.00  0.00    +0.050 A 
ATOM     29  C   UNL     1       5.936   5.897  24.719  0.00  0.00    +0.158 A 
ATOM     30  C   UNL     1       7.002   5.768  25.600  0.00  0.00    +0.159 A 
ATOM     31  C   UNL     1       7.635   4.524  25.779  0.00  0.00    +0.060 A 
BRANCH  30  32
ATOM     32  O   UNL     1       7.373   6.897  26.282  0.00  0.00    -0.503 OA
ATOM     33  H   UNL     1       7.615   7.580  25.634  0.00  0.00    +0.292 HD
ENDBRANCH  30  32
BRANCH  29  34
ATOM     34  O   UNL     1       5.319   7.108  24.543  0.00  0.00    -0.503 OA
ATOM     35  H   UNL     1       4.398   6.971  24.840  0.00  0.00    +0.292 HD
ENDBRANCH  29  34
ENDBRANCH  25  26
BRANCH  24  36
ATOM     36  O   UNL     1       8.886  -2.888  25.938  0.00  0.00    -0.506 OA
ATOM     37  H   UNL     1       8.474  -2.430  26.691  0.00  0.00    +0.292 HD
ENDBRANCH  24  36
BRANCH  21  38
ATOM     38  O   UNL     1      10.962  -1.856  21.884  0.00  0.00    -0.507 OA
ATOM     39  H   UNL     1      10.379  -1.896  21.092  0.00  0.00    +0.292 HD
ENDBRANCH  21  38
ENDBRANCH  14  15
ENDBRANCH   2  14
BRANCH   1  40
ATOM     40  O   UNL     1       4.340  -1.003  28.599  0.00  0.00    -0.337 OA
BRANCH  40  43
ATOM     41  C   UNL     1       3.556  -4.172  28.311  0.00  0.00    +0.190 C 
ATOM     42  O   UNL     1       4.066  -3.107  27.513  0.00  0.00    -0.339 OA
ATOM     43  C   UNL     1       3.561  -1.787  27.667  0.00  0.00    +0.282 C 
ATOM     44  C   UNL     1       2.019  -1.669  27.712  0.00  0.00    +0.201 C 
ATOM     45  C   UNL     1       1.358  -2.701  28.626  0.00  0.00    +0.179 C 
ATOM     46  C   UNL     1       2.011  -4.099  28.574  0.00  0.00    +0.178 C 
BRANCH  46  47
ATOM     47  O   UNL     1       1.323  -4.776  27.492  0.00  0.00    -0.386 OA
ATOM     48  H   UNL     1       1.926  -4.844  26.732  0.00  0.00    +0.210 HD
ENDBRANCH  46  47
BRANCH  45  49
ATOM     49  O   UNL     1       1.221  -2.246  29.973  0.00  0.00    -0.386 OA
ATOM     50  H   UNL     1       0.400  -1.736  30.069  0.00  0.00    +0.210 HD
ENDBRANCH  45  49
BRANCH  44  51
ATOM     51  O   UNL     1       1.554  -1.829  26.343  0.00  0.00    -0.384 OA
ATOM     52  H   UNL     1       0.612  -2.074  26.335  0.00  0.00    +0.210 HD
ENDBRANCH  44  51
BRANCH  41  53
ATOM     53  C   UNL     1       4.442  -4.525  29.556  0.00  0.00    +0.266 C 
BRANCH  53  54
ATOM     54  O   UNL     1       5.859  -4.888  29.261  0.00  0.00    -0.459 OA
BRANCH  54  55
ATOM     55  C   UNL     1       6.152  -6.003  28.509  0.00  0.00    +0.332 C 
ATOM     56  O   UNL     1       6.189  -7.144  28.950  0.00  0.00    -0.246 OA
BRANCH  55  58
ATOM     57  C   UNL     1       5.646  -5.963  25.996  0.00  0.00    +0.015 C 
ATOM     58  C   UNL     1       6.457  -5.669  27.054  0.00  0.00    +0.092 C 
BRANCH  57  61
ATOM     59  C   UNL     1       6.543  -3.973  22.795  0.00  0.00    +0.162 A 
ATOM     60  C   UNL     1       6.607  -4.465  24.117  0.00  0.00    +0.057 A 
ATOM     61  C   UNL     1       5.854  -5.594  24.544  0.00  0.00    -0.021 A 
ATOM     62  C   UNL     1       5.308  -6.393  23.531  0.00  0.00    +0.012 A 
ATOM     63  C   UNL     1       5.349  -5.990  22.185  0.00  0.00    +0.050 A 
ATOM     64  C   UNL     1       5.881  -4.753  21.850  0.00  0.00    +0.158 A 
BRANCH  64  65
ATOM     65  O   UNL     1       5.735  -4.299  20.564  0.00  0.00    -0.503 OA
ATOM     66  H   UNL     1       5.347  -3.407  20.645  0.00  0.00    +0.292 HD
ENDBRANCH  64  65
BRANCH  59  68
ATOM     67  C   UNL     1       6.455  -1.513  22.616  0.00  0.00    +0.277 C 
ATOM     68  O   UNL     1       6.973  -2.784  22.264  0.00  0.00    -0.491 OA
ENDBRANCH  59  68
ENDBRANCH  57  61
ENDBRANCH  55  58
ENDBRANCH  54  55
ENDBRANCH  53  54
ENDBRANCH  41  53
ENDBRANCH  40  43
ENDBRANCH   1  40
TORSDOF 23
ENDMDL
MODEL 7
REMARK VINA RESULT:      -5.8      2.169      6.163
REMARK  Name = 
REMARK  24 active torsions:
REMARK  status: ('A' for Active; 'I' for Inactive)
REMARK    1  A    between atoms: C_1  and  O_2
REMARK    2  A    between atoms: O_2  and  C_3
REMARK    3  A    between atoms: C_4  and  O_67
REMARK    4  A    between atoms: C_7  and  C_9
REMARK    5  A    between atoms: C_10  and  C_11
REMARK    6  A    between atoms: C_11  and  O_13
REMARK    7  A    between atoms: O_13  and  C_14
REMARK    8  A    between atoms: C_14  and  C_15
REMARK    9  A    between atoms: C_17  and  O_66
REMARK   10  A    between atoms: C_19  and  O_65
REMARK   11  A    between atoms: C_21  and  O_64
REMARK   12  A    between atoms: C_23  and  O_26
REMARK   13  A    between atoms: O_26  and  C_27
REMARK   14  A    between atoms: C_29  and  O_63
REMARK   15  A    between atoms: C_31  and  O_62
REMARK   16  A    between atoms: C_33  and  C_60
REMARK   17  A    between atoms: C_36  and  O_38
REMARK   18  A    between atoms: O_38  and  C_39
REMARK   19  A    between atoms: C_40  and  C_52
REMARK   20  A    between atoms: C_44  and  O_51
REMARK   21  A    between atoms: C_46  and  O_50
REMARK   22  A    between atoms: C_54  and  O_59
REMARK   23  A    between atoms: C_55  and  O_58
REMARK   24  A    between atoms: C_60  and  O_61
REMARK                            x       y       z     vdW  Elec       q    Type
REMARK                         _______ _______ _______ _____ _____    ______ ____
ROOT
ATOM      1  C   UNL     1       5.154  -2.183  26.443  0.00  0.00    +0.221 C 
ATOM      2  C   UNL     1       6.125  -0.964  26.579  0.00  0.00    +0.340 C 
ATOM      3  O   UNL     1       6.394  -0.574  27.932  0.00  0.00    -0.331 OA
ATOM      4  C   UNL     1       5.276  -0.289  28.770  0.00  0.00    +0.179 C 
ATOM      5  C   UNL     1       4.177  -1.350  28.615  0.00  0.00    +0.177 C 
ATOM      6  C   UNL     1       3.856  -1.765  27.162  0.00  0.00    +0.180 C 
ENDROOT
BRANCH   6   7
ATOM      7  O   UNL     1       3.123  -0.824  26.376  0.00  0.00    -0.386 OA
ATOM      8  H   UNL     1       3.439  -0.835  25.461  0.00  0.00    +0.210 HD
ENDBRANCH   6   7
BRANCH   5   9
ATOM      9  O   UNL     1       2.989  -0.964  29.299  0.00  0.00    -0.386 OA
ATOM     10  H   UNL     1       2.475  -1.774  29.456  0.00  0.00    +0.210 HD
ENDBRANCH   5   9
BRANCH   4  11
ATOM     11  C   UNL     1       4.732   1.156  28.765  0.00  0.00    +0.190 C 
BRANCH  11  12
ATOM     12  O   UNL     1       5.726   2.119  28.421  0.00  0.00    -0.392 OA
ATOM     13  H   UNL     1       5.765   2.149  27.447  0.00  0.00    +0.210 HD
ENDBRANCH  11  12
ENDBRANCH   4  11
BRANCH   2  14
ATOM     14  O   UNL     1       5.579   0.185  25.884  0.00  0.00    -0.453 OA
BRANCH  14  15
ATOM     15  C   UNL     1       6.441   1.099  25.307  0.00  0.00    +0.214 A 
ATOM     16  C   UNL     1       7.890   0.961  25.545  0.00  0.00    +0.238 A 
ATOM     17  O   UNL     1       8.351   0.388  26.520  0.00  0.00    -0.283 OA
ATOM     18  C   UNL     1       8.804   1.677  24.659  0.00  0.00    +0.109 A 
ATOM     19  C   UNL     1       8.288   2.854  24.178  0.00  0.00    +0.147 A 
ATOM     20  C   UNL     1       9.191   3.772  23.671  0.00  0.00    +0.092 A 
ATOM     21  C   UNL     1      10.526   3.453  23.459  0.00  0.00    +0.124 A 
ATOM     22  C   UNL     1      11.007   2.205  23.816  0.00  0.00    +0.091 A 
ATOM     23  O   UNL     1       6.948   3.171  24.190  0.00  0.00    -0.451 OA
ATOM     24  C   UNL     1      10.145   1.329  24.463  0.00  0.00    +0.135 A 
ATOM     25  C   UNL     1       6.036   2.208  24.648  0.00  0.00    +0.181 A 
BRANCH  25  26
ATOM     26  C   UNL     1       4.600   2.605  24.419  0.00  0.00    +0.025 A 
ATOM     27  C   UNL     1       3.715   2.700  25.509  0.00  0.00    +0.015 A 
ATOM     28  C   UNL     1       2.370   3.077  25.355  0.00  0.00    +0.050 A 
ATOM     29  C   UNL     1       1.902   3.423  24.105  0.00  0.00    +0.158 A 
ATOM     30  C   UNL     1       2.752   3.392  23.008  0.00  0.00    +0.159 A 
ATOM     31  C   UNL     1       4.089   2.975  23.150  0.00  0.00    +0.060 A 
BRANCH  30  32
ATOM     32  O   UNL     1       2.225   3.804  21.812  0.00  0.00    -0.503 OA
ATOM     33  H   UNL     1       2.959   4.029  21.216  0.00  0.00    +0.292 HD
ENDBRANCH  30  32
BRANCH  29  34
ATOM     34  O   UNL     1       0.600   3.828  23.966  0.00  0.00    -0.503 OA
ATOM     35  H   UNL     1       0.572   4.729  24.344  0.00  0.00    +0.292 HD
ENDBRANCH  29  34
ENDBRANCH  25  26
BRANCH  24  36
ATOM     36  O   UNL     1      10.642   0.131  24.884  0.00  0.00    -0.506 OA
ATOM     37  H   UNL     1       9.897  -0.395  25.221  0.00  0.00    +0.292 HD
ENDBRANCH  24  36
BRANCH  21  38
ATOM     38  O   UNL     1      11.439   4.277  22.888  0.00  0.00    -0.507 OA
ATOM     39  H   UNL     1      11.059   4.674  22.071  0.00  0.00    +0.292 HD
ENDBRANCH  21  38
ENDBRANCH  14  15
ENDBRANCH   2  14
BRANCH   1  40
ATOM     40  O   UNL     1       5.697  -3.481  26.891  0.00  0.00    -0.337 OA
BRANCH  40  43
ATOM     41  C   UNL     1       4.121  -6.354  26.904  0.00  0.00    +0.190 C 
ATOM     42  O   UNL     1       3.846  -4.969  27.097  0.00  0.00    -0.339 OA
ATOM     43  C   UNL     1       4.774  -4.141  27.787  0.00  0.00    +0.282 C 
ATOM     44  C   UNL     1       5.319  -4.721  29.114  0.00  0.00    +0.201 C 
ATOM     45  C   UNL     1       5.748  -6.183  29.005  0.00  0.00    +0.179 C 
ATOM     46  C   UNL     1       4.823  -7.048  28.123  0.00  0.00    +0.178 C 
BRANCH  46  47
ATOM     47  O   UNL     1       3.804  -7.528  29.035  0.00  0.00    -0.386 OA
ATOM     48  H   UNL     1       3.287  -8.221  28.590  0.00  0.00    +0.210 HD
ENDBRANCH  46  47
BRANCH  45  49
ATOM     49  O   UNL     1       7.116  -6.336  28.622  0.00  0.00    -0.386 OA
ATOM     50  H   UNL     1       7.481  -7.149  29.009  0.00  0.00    +0.210 HD
ENDBRANCH  45  49
BRANCH  44  51
ATOM     51  O   UNL     1       4.255  -4.573  30.095  0.00  0.00    -0.384 OA
ATOM     52  H   UNL     1       4.315  -3.702  30.526  0.00  0.00    +0.210 HD
ENDBRANCH  44  51
BRANCH  41  53
ATOM     53  C   UNL     1       4.706  -6.704  25.491  0.00  0.00    +0.266 C 
BRANCH  53  54
ATOM     54  O   UNL     1       3.745  -6.622  24.353  0.00  0.00    -0.459 OA
BRANCH  54  55
ATOM     55  C   UNL     1       3.836  -5.601  23.434  0.00  0.00    +0.332 C 
ATOM     56  O   UNL     1       2.901  -5.195  22.758  0.00  0.00    -0.246 OA
BRANCH  55  58
ATOM     57  C   UNL     1       5.560  -3.707  23.325  0.00  0.00    +0.015 C 
ATOM     58  C   UNL     1       5.247  -5.035  23.320  0.00  0.00    +0.092 C 
BRANCH  57  61
ATOM     59  C   UNL     1       8.608  -1.572  22.248  0.00  0.00    +0.162 A 
ATOM     60  C   UNL     1       7.270  -1.952  22.494  0.00  0.00    +0.057 A 
ATOM     61  C   UNL     1       6.938  -3.083  23.291  0.00  0.00    -0.021 A 
ATOM     62  C   UNL     1       7.966  -3.604  24.087  0.00  0.00    +0.012 A 
ATOM     63  C   UNL     1       9.288  -3.147  23.957  0.00  0.00    +0.050 A 
ATOM     64  C   UNL     1       9.603  -2.210  22.984  0.00  0.00    +0.158 A 
BRANCH  64  65
ATOM     65  O   UNL     1      10.924  -1.925  22.745  0.00  0.00    -0.503 OA
ATOM     66  H   UNL     1      11.343  -2.783  22.540  0.00  0.00    +0.292 HD
ENDBRANCH  64  65
BRANCH  59  68
ATOM     67  C   UNL     1       8.763   0.662  21.211  0.00  0.00    +0.277 C 
ATOM     68  O   UNL     1       9.133  -0.700  21.328  0.00  0.00    -0.491 OA
ENDBRANCH  59  68
ENDBRANCH  57  61
ENDBRANCH  55  58
ENDBRANCH  54  55
ENDBRANCH  53  54
ENDBRANCH  41  53
ENDBRANCH  40  43
ENDBRANCH   1  40
TORSDOF 23
ENDMDL
MODEL 8
REMARK VINA RESULT:      -5.8      2.816      6.415
REMARK  Name = 
REMARK  24 active torsions:
REMARK  status: ('A' for Active; 'I' for Inactive)
REMARK    1  A    between atoms: C_1  and  O_2
REMARK    2  A    between atoms: O_2  and  C_3
REMARK    3  A    between atoms: C_4  and  O_67
REMARK    4  A    between atoms: C_7  and  C_9
REMARK    5  A    between atoms: C_10  and  C_11
REMARK    6  A    between atoms: C_11  and  O_13
REMARK    7  A    between atoms: O_13  and  C_14
REMARK    8  A    between atoms: C_14  and  C_15
REMARK    9  A    between atoms: C_17  and  O_66
REMARK   10  A    between atoms: C_19  and  O_65
REMARK   11  A    between atoms: C_21  and  O_64
REMARK   12  A    between atoms: C_23  and  O_26
REMARK   13  A    between atoms: O_26  and  C_27
REMARK   14  A    between atoms: C_29  and  O_63
REMARK   15  A    between atoms: C_31  and  O_62
REMARK   16  A    between atoms: C_33  and  C_60
REMARK   17  A    between atoms: C_36  and  O_38
REMARK   18  A    between atoms: O_38  and  C_39
REMARK   19  A    between atoms: C_40  and  C_52
REMARK   20  A    between atoms: C_44  and  O_51
REMARK   21  A    between atoms: C_46  and  O_50
REMARK   22  A    between atoms: C_54  and  O_59
REMARK   23  A    between atoms: C_55  and  O_58
REMARK   24  A    between atoms: C_60  and  O_61
REMARK                            x       y       z     vdW  Elec       q    Type
REMARK                         _______ _______ _______ _____ _____    ______ ____
ROOT
ATOM      1  C   UNL     1       4.755   0.621  26.908  0.00  0.00    +0.221 C 
ATOM      2  C   UNL     1       5.824   1.494  26.171  0.00  0.00    +0.340 C 
ATOM      3  O   UNL     1       7.052   1.654  26.892  0.00  0.00    -0.331 OA
ATOM      4  C   UNL     1       6.972   2.161  28.223  0.00  0.00    +0.179 C 
ATOM      5  C   UNL     1       5.849   1.477  29.014  0.00  0.00    +0.177 C 
ATOM      6  C   UNL     1       4.510   1.317  28.261  0.00  0.00    +0.180 C 
ENDROOT
BRANCH   6   7
ATOM      7  O   UNL     1       3.729   2.501  28.086  0.00  0.00    -0.386 OA
ATOM      8  H   UNL     1       4.116   3.057  27.395  0.00  0.00    +0.210 HD
ENDBRANCH   6   7
BRANCH   5   9
ATOM      9  O   UNL     1       5.643   2.115  30.271  0.00  0.00    -0.386 OA
ATOM     10  H   UNL     1       6.487   2.074  30.752  0.00  0.00    +0.210 HD
ENDBRANCH   5   9
BRANCH   4  11
ATOM     11  C   UNL     1       7.000   3.694  28.405  0.00  0.00    +0.190 C 
BRANCH  11  12
ATOM     12  O   UNL     1       7.562   4.093  29.652  0.00  0.00    -0.392 OA
ATOM     13  H   UNL     1       7.574   5.068  29.658  0.00  0.00    +0.210 HD
ENDBRANCH  11  12
ENDBRANCH   4  11
BRANCH   2  14
ATOM     14  O   UNL     1       5.287   2.814  25.904  0.00  0.00    -0.453 OA
BRANCH  14  15
ATOM     15  C   UNL     1       4.685   3.065  24.685  0.00  0.00    +0.214 A 
ATOM     16  C   UNL     1       3.219   2.936  24.574  0.00  0.00    +0.238 A 
ATOM     17  O   UNL     1       2.557   2.235  25.323  0.00  0.00    -0.283 OA
ATOM     18  C   UNL     1       2.560   3.547  23.424  0.00  0.00    +0.109 A 
ATOM     19  C   UNL     1       3.343   3.574  22.297  0.00  0.00    +0.147 A 
ATOM     20  C   UNL     1       2.693   3.759  21.089  0.00  0.00    +0.092 A 
ATOM     21  C   UNL     1       1.351   4.111  21.020  0.00  0.00    +0.124 A 
ATOM     22  C   UNL     1       0.602   4.223  22.178  0.00  0.00    +0.091 A 
ATOM     23  O   UNL     1       4.710   3.411  22.302  0.00  0.00    -0.451 OA
ATOM     24  C   UNL     1       1.204   3.894  23.385  0.00  0.00    +0.135 A 
ATOM     25  C   UNL     1       5.364   3.286  23.537  0.00  0.00    +0.181 A 
BRANCH  25  26
ATOM     26  C   UNL     1       6.866   3.317  23.410  0.00  0.00    +0.025 A 
ATOM     27  C   UNL     1       7.635   4.029  24.349  0.00  0.00    +0.015 A 
ATOM     28  C   UNL     1       9.038   4.083  24.285  0.00  0.00    +0.050 A 
ATOM     29  C   UNL     1       9.700   3.372  23.307  0.00  0.00    +0.158 A 
ATOM     30  C   UNL     1       8.984   2.615  22.389  0.00  0.00    +0.159 A 
ATOM     31  C   UNL     1       7.577   2.591  22.423  0.00  0.00    +0.060 A 
BRANCH  30  32
ATOM     32  O   UNL     1       9.719   1.893  21.485  0.00  0.00    -0.503 OA
ATOM     33  H   UNL     1       9.121   1.583  20.784  0.00  0.00    +0.292 HD
ENDBRANCH  30  32
BRANCH  29  34
ATOM     34  O   UNL     1      11.070   3.395  23.274  0.00  0.00    -0.503 OA
ATOM     35  H   UNL     1      11.301   4.263  22.887  0.00  0.00    +0.292 HD
ENDBRANCH  29  34
ENDBRANCH  25  26
BRANCH  24  36
ATOM     36  O   UNL     1       0.443   3.930  24.515  0.00  0.00    -0.506 OA
ATOM     37  H   UNL     1       1.046   3.999  25.275  0.00  0.00    +0.292 HD
ENDBRANCH  24  36
BRANCH  21  38
ATOM     38  O   UNL     1       0.680   4.389  19.874  0.00  0.00    -0.507 OA
ATOM     39  H   UNL     1       1.079   5.180  19.443  0.00  0.00    +0.292 HD
ENDBRANCH  21  38
ENDBRANCH  14  15
ENDBRANCH   2  14
BRANCH   1  40
ATOM     40  O   UNL     1       5.077  -0.815  27.021  0.00  0.00    -0.337 OA
BRANCH  40  43
ATOM     41  C   UNL     1       4.126  -3.895  27.619  0.00  0.00    +0.190 C 
ATOM     42  O   UNL     1       4.270  -3.002  26.518  0.00  0.00    -0.339 OA
ATOM     43  C   UNL     1       3.936  -1.626  26.657  0.00  0.00    +0.282 C 
ATOM     44  C   UNL     1       2.579  -1.341  27.342  0.00  0.00    +0.201 C 
ATOM     45  C   UNL     1       2.352  -2.171  28.606  0.00  0.00    +0.179 C 
ATOM     46  C   UNL     1       2.861  -3.625  28.506  0.00  0.00    +0.178 C 
BRANCH  46  47
ATOM     47  O   UNL     1       1.740  -4.359  27.953  0.00  0.00    -0.386 OA
ATOM     48  H   UNL     1       1.715  -5.243  28.359  0.00  0.00    +0.210 HD
ENDBRANCH  46  47
BRANCH  45  49
ATOM     49  O   UNL     1       2.842  -1.533  29.787  0.00  0.00    -0.386 OA
ATOM     50  H   UNL     1       3.624  -2.004  30.118  0.00  0.00    +0.210 HD
ENDBRANCH  45  49
BRANCH  44  51
ATOM     51  O   UNL     1       1.551  -1.627  26.354  0.00  0.00    -0.384 OA
ATOM     52  H   UNL     1       1.943  -2.070  25.581  0.00  0.00    +0.210 HD
ENDBRANCH  44  51
BRANCH  41  53
ATOM     53  C   UNL     1       5.458  -4.175  28.400  0.00  0.00    +0.266 C 
BRANCH  53  54
ATOM     54  O   UNL     1       6.203  -5.400  27.990  0.00  0.00    -0.459 OA
BRANCH  54  55
ATOM     55  C   UNL     1       6.095  -5.887  26.706  0.00  0.00    +0.332 C 
ATOM     56  O   UNL     1       5.319  -6.769  26.365  0.00  0.00    -0.246 OA
BRANCH  55  58
ATOM     57  C   UNL     1       6.804  -4.118  24.992  0.00  0.00    +0.015 C 
ATOM     58  C   UNL     1       7.072  -5.226  25.741  0.00  0.00    +0.092 C 
BRANCH  57  61
ATOM     59  C   UNL     1       9.509  -1.663  23.704  0.00  0.00    +0.162 A 
ATOM     60  C   UNL     1       8.832  -2.576  24.541  0.00  0.00    +0.057 A 
ATOM     61  C   UNL     1       7.748  -3.372  24.075  0.00  0.00    -0.021 A 
ATOM     62  C   UNL     1       7.595  -3.458  22.686  0.00  0.00    +0.012 A 
ATOM     63  C   UNL     1       8.355  -2.653  21.820  0.00  0.00    +0.050 A 
ATOM     64  C   UNL     1       9.228  -1.710  22.340  0.00  0.00    +0.158 A 
BRANCH  64  65
ATOM     65  O   UNL     1       9.810  -0.808  21.486  0.00  0.00    -0.503 OA
ATOM     66  H   UNL     1      10.711  -0.663  21.833  0.00  0.00    +0.292 HD
ENDBRANCH  64  65
BRANCH  59  68
ATOM     67  C   UNL     1      10.197   0.274  25.071  0.00  0.00    +0.277 C 
ATOM     68  O   UNL     1      10.379  -0.647  24.010  0.00  0.00    -0.491 OA
ENDBRANCH  59  68
ENDBRANCH  57  61
ENDBRANCH  55  58
ENDBRANCH  54  55
ENDBRANCH  53  54
ENDBRANCH  41  53
ENDBRANCH  40  43
ENDBRANCH   1  40
TORSDOF 23
ENDMDL
MODEL 9
REMARK VINA RESULT:      -5.8      2.606      7.568
REMARK  Name = 
REMARK  24 active torsions:
REMARK  status: ('A' for Active; 'I' for Inactive)
REMARK    1  A    between atoms: C_1  and  O_2
REMARK    2  A    between atoms: O_2  and  C_3
REMARK    3  A    between atoms: C_4  and  O_67
REMARK    4  A    between atoms: C_7  and  C_9
REMARK    5  A    between atoms: C_10  and  C_11
REMARK    6  A    between atoms: C_11  and  O_13
REMARK    7  A    between atoms: O_13  and  C_14
REMARK    8  A    between atoms: C_14  and  C_15
REMARK    9  A    between atoms: C_17  and  O_66
REMARK   10  A    between atoms: C_19  and  O_65
REMARK   11  A    between atoms: C_21  and  O_64
REMARK   12  A    between atoms: C_23  and  O_26
REMARK   13  A    between atoms: O_26  and  C_27
REMARK   14  A    between atoms: C_29  and  O_63
REMARK   15  A    between atoms: C_31  and  O_62
REMARK   16  A    between atoms: C_33  and  C_60
REMARK   17  A    between atoms: C_36  and  O_38
REMARK   18  A    between atoms: O_38  and  C_39
REMARK   19  A    between atoms: C_40  and  C_52
REMARK   20  A    between atoms: C_44  and  O_51
REMARK   21  A    between atoms: C_46  and  O_50
REMARK   22  A    between atoms: C_54  and  O_59
REMARK   23  A    between atoms: C_55  and  O_58
REMARK   24  A    between atoms: C_60  and  O_61
REMARK                            x       y       z     vdW  Elec       q    Type
REMARK                         _______ _______ _______ _____ _____    ______ ____
ROOT
ATOM      1  C   UNL     1       6.729   1.738  22.989  0.00  0.00    +0.221 C 
ATOM      2  C   UNL     1       7.252   0.633  23.965  0.00  0.00    +0.340 C 
ATOM      3  O   UNL     1       8.459   0.981  24.655  0.00  0.00    -0.331 OA
ATOM      4  C   UNL     1       9.578   1.379  23.864  0.00  0.00    +0.179 C 
ATOM      5  C   UNL     1       9.162   2.364  22.764  0.00  0.00    +0.177 C 
ATOM      6  C   UNL     1       7.876   1.993  21.993  0.00  0.00    +0.180 C 
ENDROOT
BRANCH   6   7
ATOM      7  O   UNL     1       7.980   0.919  21.056  0.00  0.00    -0.386 OA
ATOM      8  H   UNL     1       7.104   0.682  20.720  0.00  0.00    +0.210 HD
ENDBRANCH   6   7
BRANCH   5   9
ATOM      9  O   UNL     1      10.235   2.608  21.860  0.00  0.00    -0.386 OA
ATOM     10  H   UNL     1      11.046   2.282  22.286  0.00  0.00    +0.210 HD
ENDBRANCH   5   9
BRANCH   4  11
ATOM     11  C   UNL     1      10.526   0.268  23.362  0.00  0.00    +0.190 C 
BRANCH  11  12
ATOM     12  O   UNL     1      10.052  -0.369  22.178  0.00  0.00    -0.392 OA
ATOM     13  H   UNL     1       9.730   0.336  21.587  0.00  0.00    +0.210 HD
ENDBRANCH  11  12
ENDBRANCH   4  11
BRANCH   2  14
ATOM     14  O   UNL     1       7.493  -0.597  23.236  0.00  0.00    -0.453 OA
BRANCH  14  15
ATOM     15  C   UNL     1       6.853  -1.756  23.635  0.00  0.00    +0.214 A 
ATOM     16  C   UNL     1       6.257  -2.631  22.607  0.00  0.00    +0.238 A 
ATOM     17  O   UNL     1       5.914  -2.225  21.509  0.00  0.00    -0.283 OA
ATOM     18  C   UNL     1       5.920  -4.001  22.982  0.00  0.00    +0.109 A 
ATOM     19  C   UNL     1       5.563  -4.135  24.301  0.00  0.00    +0.147 A 
ATOM     20  C   UNL     1       4.863  -5.277  24.646  0.00  0.00    +0.092 A 
ATOM     21  C   UNL     1       4.704  -6.340  23.765  0.00  0.00    +0.124 A 
ATOM     22  C   UNL     1       5.198  -6.252  22.475  0.00  0.00    +0.091 A 
ATOM     23  O   UNL     1       5.843  -3.202  25.274  0.00  0.00    -0.451 OA
ATOM     24  C   UNL     1       5.770  -5.053  22.070  0.00  0.00    +0.135 A 
ATOM     25  C   UNL     1       6.607  -2.078  24.925  0.00  0.00    +0.181 A 
BRANCH  25  26
ATOM     26  C   UNL     1       7.008  -1.248  26.118  0.00  0.00    +0.025 A 
ATOM     27  C   UNL     1       8.341  -1.265  26.568  0.00  0.00    +0.015 A 
ATOM     28  C   UNL     1       8.772  -0.503  27.667  0.00  0.00    +0.050 A 
ATOM     29  C   UNL     1       7.883   0.337  28.301  0.00  0.00    +0.158 A 
ATOM     30  C   UNL     1       6.568   0.423  27.860  0.00  0.00    +0.159 A 
ATOM     31  C   UNL     1       6.121  -0.369  26.786  0.00  0.00    +0.060 A 
BRANCH  30  32
ATOM     32  O   UNL     1       5.762   1.324  28.507  0.00  0.00    -0.503 OA
ATOM     33  H   UNL     1       6.291   1.773  29.186  0.00  0.00    +0.292 HD
ENDBRANCH  30  32
BRANCH  29  34
ATOM     34  O   UNL     1       8.318   1.108  29.347  0.00  0.00    -0.503 OA
ATOM     35  H   UNL     1       7.932   0.697  30.145  0.00  0.00    +0.292 HD
ENDBRANCH  29  34
ENDBRANCH  25  26
BRANCH  24  36
ATOM     36  O   UNL     1       6.184  -4.942  20.777  0.00  0.00    -0.506 OA
ATOM     37  H   UNL     1       6.736  -4.144  20.711  0.00  0.00    +0.292 HD
ENDBRANCH  24  36
BRANCH  21  38
ATOM     38  O   UNL     1       4.105  -7.517  24.071  0.00  0.00    -0.507 OA
ATOM     39  H   UNL     1       4.076  -8.090  23.270  0.00  0.00    +0.292 HD
ENDBRANCH  21  38
ENDBRANCH  14  15
ENDBRANCH   2  14
BRANCH   1  40
ATOM     40  O   UNL     1       6.211   2.961  23.635  0.00  0.00    -0.337 OA
BRANCH  40  43
ATOM     41  C   UNL     1       3.134   3.136  24.751  0.00  0.00    +0.190 C 
ATOM     42  O   UNL     1       3.853   2.609  23.639  0.00  0.00    -0.339 OA
ATOM     43  C   UNL     1       4.934   3.338  23.070  0.00  0.00    +0.282 C 
ATOM     44  C   UNL     1       4.656   4.836  22.807  0.00  0.00    +0.201 C 
ATOM     45  C   UNL     1       3.976   5.542  23.980  0.00  0.00    +0.179 C 
ATOM     46  C   UNL     1       2.909   4.687  24.697  0.00  0.00    +0.178 C 
BRANCH  46  47
ATOM     47  O   UNL     1       1.686   4.955  23.967  0.00  0.00    -0.386 OA
ATOM     48  H   UNL     1       1.914   5.362  23.114  0.00  0.00    +0.210 HD
ENDBRANCH  46  47
BRANCH  45  49
ATOM     49  O   UNL     1       4.906   6.096  24.912  0.00  0.00    -0.386 OA
ATOM     50  H   UNL     1       4.849   5.622  25.758  0.00  0.00    +0.210 HD
ENDBRANCH  45  49
BRANCH  44  51
ATOM     51  O   UNL     1       3.817   4.897  21.620  0.00  0.00    -0.384 OA
ATOM     52  H   UNL     1       2.903   4.649  21.843  0.00  0.00    +0.210 HD
ENDBRANCH  44  51
BRANCH  41  53
ATOM     53  C   UNL     1       3.585   2.561  26.139  0.00  0.00    +0.266 C 
BRANCH  53  54
ATOM     54  O   UNL     1       3.312   1.111  26.359  0.00  0.00    -0.459 OA
BRANCH  54  55
ATOM     55  C   UNL     1       2.464   0.705  27.365  0.00  0.00    +0.332 C 
ATOM     56  O   UNL     1       1.521   1.363  27.782  0.00  0.00    -0.246 OA
BRANCH  55  58
ATOM     57  C   UNL     1       2.864  -1.824  27.231  0.00  0.00    +0.015 C 
ATOM     58  C   UNL     1       2.839  -0.657  27.938  0.00  0.00    +0.092 C 
BRANCH  57  61
ATOM     59  C   UNL     1       5.075  -4.808  28.332  0.00  0.00    +0.162 A 
ATOM     60  C   UNL     1       4.614  -3.484  28.167  0.00  0.00    +0.057 A 
ATOM     61  C   UNL     1       3.297  -3.189  27.717  0.00  0.00    -0.021 A 
ATOM     62  C   UNL     1       2.377  -4.244  27.761  0.00  0.00    +0.012 A 
ATOM     63  C   UNL     1       2.788  -5.556  28.056  0.00  0.00    +0.050 A 
ATOM     64  C   UNL     1       4.133  -5.832  28.246  0.00  0.00    +0.158 A 
BRANCH  64  65
ATOM     65  O   UNL     1       4.531  -7.142  28.338  0.00  0.00    -0.503 OA
ATOM     66  H   UNL     1       5.017  -7.208  29.182  0.00  0.00    +0.292 HD
ENDBRANCH  64  65
BRANCH  59  68
ATOM     67  C   UNL     1       7.332  -5.335  27.485  0.00  0.00    +0.277 C 
ATOM     68  O   UNL     1       6.345  -5.297  28.501  0.00  0.00    -0.491 OA
ENDBRANCH  59  68
ENDBRANCH  57  61
ENDBRANCH  55  58
ENDBRANCH  54  55
ENDBRANCH  53  54
ENDBRANCH  41  53
ENDBRANCH  40  43
ENDBRANCH   1  40
TORSDOF 23
ENDMDL
