MODEL 1
REMARK VINA RESULT:      -8.0      0.000      0.000
REMARK  Name = 
REMARK  18 active torsions:
REMARK  status: ('A' for Active; 'I' for Inactive)
REMARK    1  A    between atoms: C_1  and  C_2
REMARK    2  A    between atoms: C_3  and  O_44
REMARK    3  A    between atoms: C_5  and  O_43
REMARK    4  A    between atoms: C_6  and  O_33
REMARK    5  A    between atoms: C_8  and  O_11
REMARK    6  A    between atoms: O_11  and  C_12
REMARK    7  A    between atoms: C_13  and  C_25
REMARK    8  A    between atoms: C_17  and  O_24
REMARK    9  A    between atoms: C_19  and  O_23
REMARK   10  A    between atoms: C_27  and  O_32
REMARK   11  A    between atoms: C_28  and  O_31
REMARK   12  A    between atoms: O_33  and  C_34
REMARK   13  A    between atoms: C_34  and  C_36
REMARK   14  A    between atoms: C_39  and  O_42
REMARK   15  A    between atoms: O_44  and  C_45
REMARK   16  A    between atoms: C_45  and  C_47
REMARK   17  A    between atoms: C_48  and  C_49
REMARK   18  A    between atoms: C_52  and  O_55
REMARK                            x       y       z     vdW  Elec       q    Type
REMARK                         _______ _______ _______ _____ _____    ______ ____
ROOT
ATOM      1  C   UNL     1       2.537   1.176  27.495  0.00  0.00    +0.042 C 
ATOM      2  C   UNL     1       3.789   1.763  26.837  0.00  0.00    +0.163 C 
ATOM      3  O   UNL     1       4.254   0.936  25.749  0.00  0.00    -0.332 OA
ATOM      4  C   UNL     1       4.843  -0.324  26.153  0.00  0.00    +0.352 C 
ATOM      5  C   UNL     1       6.040  -0.072  27.095  0.00  0.00    +0.277 C 
ATOM      6  C   UNL     1       5.580   0.761  28.292  0.00  0.00    +0.204 C 
ATOM      7  C   UNL     1       4.909   2.071  27.849  0.00  0.00    +0.237 C 
ENDROOT
BRANCH   6   8
ATOM      8  O   UNL     1       6.679   1.025  29.170  0.00  0.00    -0.384 OA
ATOM      9  H   UNL     1       7.120   0.173  29.338  0.00  0.00    +0.210 HD
ENDBRANCH   6   8
BRANCH   5  10
ATOM     10  O   UNL     1       7.019   0.688  26.341  0.00  0.00    -0.449 OA
BRANCH  10  11
ATOM     11  C   UNL     1       8.233   0.156  26.114  0.00  0.00    +0.340 C 
ATOM     12  O   UNL     1       8.779  -0.710  26.775  0.00  0.00    -0.245 OA
BRANCH  11  13
ATOM     13  C   UNL     1       8.828   0.836  24.934  0.00  0.00    +0.059 A 
ATOM     14  C   UNL     1      10.217   0.943  24.763  0.00  0.00    +0.018 A 
ATOM     15  C   UNL     1      10.740   1.456  23.578  0.00  0.00    +0.046 A 
ATOM     16  C   UNL     1       9.873   1.878  22.581  0.00  0.00    +0.117 A 
ATOM     17  C   UNL     1       8.494   1.873  22.774  0.00  0.00    +0.046 A 
ATOM     18  C   UNL     1       7.969   1.352  23.958  0.00  0.00    +0.018 A 
BRANCH  16  19
ATOM     19  O   UNL     1      10.419   2.270  21.396  0.00  0.00    -0.507 OA
ATOM     20  H   UNL     1      11.384   2.310  21.508  0.00  0.00    +0.292 HD
ENDBRANCH  16  19
ENDBRANCH  11  13
ENDBRANCH  10  11
ENDBRANCH   5  10
BRANCH   7  21
ATOM     21  O   UNL     1       5.884   2.907  27.166  0.00  0.00    -0.453 OA
BRANCH  21  22
ATOM     22  C   UNL     1       5.823   4.247  27.335  0.00  0.00    +0.332 C 
ATOM     23  O   UNL     1       4.863   4.896  27.707  0.00  0.00    -0.246 OA
BRANCH  22  24
ATOM     24  C   UNL     1       7.138   4.804  26.964  0.00  0.00    +0.092 C 
ATOM     25  C   UNL     1       7.499   4.957  25.683  0.00  0.00    +0.015 C 
BRANCH  25  26
ATOM     26  C   UNL     1       8.823   5.477  25.337  0.00  0.00    -0.025 A 
ATOM     27  C   UNL     1       9.429   6.472  26.114  0.00  0.00    +0.011 A 
ATOM     28  C   UNL     1      10.709   6.933  25.790  0.00  0.00    +0.046 A 
ATOM     29  C   UNL     1      11.381   6.395  24.700  0.00  0.00    +0.117 A 
ATOM     30  C   UNL     1      10.790   5.412  23.912  0.00  0.00    +0.046 A 
ATOM     31  C   UNL     1       9.510   4.952  24.235  0.00  0.00    +0.011 A 
BRANCH  29  32
ATOM     32  O   UNL     1      12.633   6.865  24.426  0.00  0.00    -0.507 OA
ATOM     33  H   UNL     1      12.681   7.077  23.479  0.00  0.00    +0.292 HD
ENDBRANCH  29  32
ENDBRANCH  25  26
ENDBRANCH  22  24
ENDBRANCH  21  22
ENDBRANCH   7  21
BRANCH   4  34
ATOM     34  O   UNL     1       5.267  -1.027  24.966  0.00  0.00    -0.452 OA
BRANCH  34  35
ATOM     35  C   UNL     1       5.001  -2.391  24.868  0.00  0.00    +0.214 A 
ATOM     36  C   UNL     1       3.733  -2.970  25.429  0.00  0.00    +0.238 A 
ATOM     37  O   UNL     1       2.871  -2.251  25.921  0.00  0.00    -0.283 OA
ATOM     38  C   UNL     1       3.571  -4.432  25.411  0.00  0.00    +0.109 A 
ATOM     39  C   UNL     1       4.542  -5.176  24.754  0.00  0.00    +0.147 A 
ATOM     40  C   UNL     1       4.434  -6.567  24.669  0.00  0.00    +0.092 A 
ATOM     41  C   UNL     1       3.343  -7.204  25.259  0.00  0.00    +0.124 A 
ATOM     42  C   UNL     1       2.373  -6.476  25.937  0.00  0.00    +0.091 A 
ATOM     43  O   UNL     1       5.646  -4.615  24.173  0.00  0.00    -0.451 OA
ATOM     44  C   UNL     1       2.489  -5.089  26.017  0.00  0.00    +0.135 A 
ATOM     45  C   UNL     1       5.886  -3.248  24.304  0.00  0.00    +0.181 A 
BRANCH  45  46
ATOM     46  C   UNL     1       7.256  -2.883  23.808  0.00  0.00    +0.025 A 
ATOM     47  C   UNL     1       8.380  -3.277  24.572  0.00  0.00    +0.015 A 
ATOM     48  C   UNL     1       9.689  -2.963  24.186  0.00  0.00    +0.050 A 
ATOM     49  C   UNL     1       9.892  -2.240  23.027  0.00  0.00    +0.158 A 
ATOM     50  C   UNL     1       8.813  -1.852  22.247  0.00  0.00    +0.159 A 
ATOM     51  C   UNL     1       7.505  -2.172  22.619  0.00  0.00    +0.060 A 
BRANCH  50  52
ATOM     52  O   UNL     1       9.091  -1.146  21.103  0.00  0.00    -0.503 OA
ATOM     53  H   UNL     1       8.422  -1.378  20.435  0.00  0.00    +0.292 HD
ENDBRANCH  50  52
BRANCH  49  54
ATOM     54  O   UNL     1      11.165  -1.908  22.664  0.00  0.00    -0.503 OA
ATOM     55  H   UNL     1      11.662  -1.871  23.507  0.00  0.00    +0.292 HD
ENDBRANCH  49  54
ENDBRANCH  45  46
BRANCH  44  56
ATOM     56  O   UNL     1       1.535  -4.393  26.704  0.00  0.00    -0.506 OA
ATOM     57  H   UNL     1       1.472  -3.484  26.367  0.00  0.00    +0.292 HD
ENDBRANCH  44  56
BRANCH  41  58
ATOM     58  O   UNL     1       3.183  -8.553  25.201  0.00  0.00    -0.507 OA
ATOM     59  H   UNL     1       2.875  -8.880  26.065  0.00  0.00    +0.292 HD
ENDBRANCH  41  58
ENDBRANCH  34  35
ENDBRANCH   4  34
TORSDOF 17
ENDMDL
MODEL 2
REMARK VINA RESULT:      -7.6      1.856      2.166
REMARK  Name = 
REMARK  18 active torsions:
REMARK  status: ('A' for Active; 'I' for Inactive)
REMARK    1  A    between atoms: C_1  and  C_2
REMARK    2  A    between atoms: C_3  and  O_44
REMARK    3  A    between atoms: C_5  and  O_43
REMARK    4  A    between atoms: C_6  and  O_33
REMARK    5  A    between atoms: C_8  and  O_11
REMARK    6  A    between atoms: O_11  and  C_12
REMARK    7  A    between atoms: C_13  and  C_25
REMARK    8  A    between atoms: C_17  and  O_24
REMARK    9  A    between atoms: C_19  and  O_23
REMARK   10  A    between atoms: C_27  and  O_32
REMARK   11  A    between atoms: C_28  and  O_31
REMARK   12  A    between atoms: O_33  and  C_34
REMARK   13  A    between atoms: C_34  and  C_36
REMARK   14  A    between atoms: C_39  and  O_42
REMARK   15  A    between atoms: O_44  and  C_45
REMARK   16  A    between atoms: C_45  and  C_47
REMARK   17  A    between atoms: C_48  and  C_49
REMARK   18  A    between atoms: C_52  and  O_55
REMARK                            x       y       z     vdW  Elec       q    Type
REMARK                         _______ _______ _______ _____ _____    ______ ____
ROOT
ATOM      1  C   UNL     1       2.099   1.791  27.337  0.00  0.00    +0.042 C 
ATOM      2  C   UNL     1       3.335   2.188  26.525  0.00  0.00    +0.163 C 
ATOM      3  O   UNL     1       3.849   1.076  25.762  0.00  0.00    -0.332 OA
ATOM      4  C   UNL     1       4.484   0.040  26.550  0.00  0.00    +0.352 C 
ATOM      5  C   UNL     1       5.656   0.634  27.361  0.00  0.00    +0.277 C 
ATOM      6  C   UNL     1       5.145   1.787  28.225  0.00  0.00    +0.204 C 
ATOM      7  C   UNL     1       4.428   2.854  27.383  0.00  0.00    +0.237 C 
ENDROOT
BRANCH   6   8
ATOM      8  O   UNL     1       6.220   2.368  28.972  0.00  0.00    -0.384 OA
ATOM      9  H   UNL     1       5.902   2.484  29.885  0.00  0.00    +0.210 HD
ENDBRANCH   6   8
BRANCH   5  10
ATOM     10  O   UNL     1       6.613   1.153  26.402  0.00  0.00    -0.449 OA
BRANCH  10  11
ATOM     11  C   UNL     1       7.816   0.561  26.287  0.00  0.00    +0.340 C 
ATOM     12  O   UNL     1       8.302  -0.247  27.057  0.00  0.00    -0.245 OA
BRANCH  11  13
ATOM     13  C   UNL     1       8.483   1.095  25.071  0.00  0.00    +0.059 A 
ATOM     14  C   UNL     1       9.868   0.972  24.871  0.00  0.00    +0.018 A 
ATOM     15  C   UNL     1      10.437   1.352  23.658  0.00  0.00    +0.046 A 
ATOM     16  C   UNL     1       9.626   1.871  22.660  0.00  0.00    +0.117 A 
ATOM     17  C   UNL     1       8.269   2.094  22.878  0.00  0.00    +0.046 A 
ATOM     18  C   UNL     1       7.695   1.706  24.090  0.00  0.00    +0.018 A 
BRANCH  16  19
ATOM     19  O   UNL     1      10.199   2.128  21.452  0.00  0.00    -0.507 OA
ATOM     20  H   UNL     1      10.311   3.090  21.370  0.00  0.00    +0.292 HD
ENDBRANCH  16  19
ENDBRANCH  11  13
ENDBRANCH  10  11
ENDBRANCH   5  10
BRANCH   7  21
ATOM     21  O   UNL     1       5.376   3.467  26.467  0.00  0.00    -0.453 OA
BRANCH  21  22
ATOM     22  C   UNL     1       5.436   4.817  26.401  0.00  0.00    +0.332 C 
ATOM     23  O   UNL     1       4.501   5.594  26.422  0.00  0.00    -0.246 OA
BRANCH  22  24
ATOM     24  C   UNL     1       6.858   5.193  26.274  0.00  0.00    +0.092 C 
ATOM     25  C   UNL     1       7.436   5.355  25.077  0.00  0.00    +0.015 C 
BRANCH  25  26
ATOM     26  C   UNL     1       8.857   5.693  24.973  0.00  0.00    -0.025 A 
ATOM     27  C   UNL     1       9.643   5.181  23.933  0.00  0.00    +0.011 A 
ATOM     28  C   UNL     1      10.991   5.541  23.830  0.00  0.00    +0.046 A 
ATOM     29  C   UNL     1      11.545   6.416  24.756  0.00  0.00    +0.117 A 
ATOM     30  C   UNL     1      10.780   6.927  25.800  0.00  0.00    +0.046 A 
ATOM     31  C   UNL     1       9.434   6.566  25.905  0.00  0.00    +0.011 A 
BRANCH  29  32
ATOM     32  O   UNL     1      12.860   6.750  24.611  0.00  0.00    -0.507 OA
ATOM     33  H   UNL     1      13.190   6.350  23.790  0.00  0.00    +0.292 HD
ENDBRANCH  29  32
ENDBRANCH  25  26
ENDBRANCH  22  24
ENDBRANCH  21  22
ENDBRANCH   7  21
BRANCH   4  34
ATOM     34  O   UNL     1       4.953  -0.988  25.653  0.00  0.00    -0.452 OA
BRANCH  34  35
ATOM     35  C   UNL     1       5.331  -2.218  26.188  0.00  0.00    +0.214 A 
ATOM     36  C   UNL     1       4.659  -2.762  27.417  0.00  0.00    +0.238 A 
ATOM     37  O   UNL     1       3.716  -2.175  27.936  0.00  0.00    -0.283 OA
ATOM     38  C   UNL     1       5.190  -4.000  28.007  0.00  0.00    +0.109 A 
ATOM     39  C   UNL     1       6.196  -4.660  27.314  0.00  0.00    +0.147 A 
ATOM     40  C   UNL     1       6.723  -5.860  27.800  0.00  0.00    +0.092 A 
ATOM     41  C   UNL     1       6.236  -6.385  28.996  0.00  0.00    +0.124 A 
ATOM     42  C   UNL     1       5.244  -5.727  29.712  0.00  0.00    +0.091 A 
ATOM     43  O   UNL     1       6.732  -4.188  26.147  0.00  0.00    -0.451 OA
ATOM     44  C   UNL     1       4.723  -4.532  29.220  0.00  0.00    +0.135 A 
ATOM     45  C   UNL     1       6.338  -2.947  25.650  0.00  0.00    +0.181 A 
BRANCH  45  46
ATOM     46  C   UNL     1       7.213  -2.513  24.509  0.00  0.00    +0.025 A 
ATOM     47  C   UNL     1       6.615  -1.852  23.409  0.00  0.00    +0.015 A 
ATOM     48  C   UNL     1       7.358  -1.429  22.301  0.00  0.00    +0.050 A 
ATOM     49  C   UNL     1       8.718  -1.671  22.273  0.00  0.00    +0.158 A 
ATOM     50  C   UNL     1       9.339  -2.303  23.340  0.00  0.00    +0.159 A 
ATOM     51  C   UNL     1       8.605  -2.717  24.456  0.00  0.00    +0.060 A 
BRANCH  50  52
ATOM     52  O   UNL     1      10.694  -2.500  23.249  0.00  0.00    -0.503 OA
ATOM     53  H   UNL     1      11.121  -1.629  23.169  0.00  0.00    +0.292 HD
ENDBRANCH  50  52
BRANCH  49  54
ATOM     54  O   UNL     1       9.440  -1.285  21.181  0.00  0.00    -0.503 OA
ATOM     55  H   UNL     1       8.903  -1.574  20.414  0.00  0.00    +0.292 HD
ENDBRANCH  49  54
ENDBRANCH  45  46
BRANCH  44  56
ATOM     56  O   UNL     1       3.761  -3.889  29.948  0.00  0.00    -0.506 OA
ATOM     57  H   UNL     1       4.026  -2.971  30.122  0.00  0.00    +0.292 HD
ENDBRANCH  44  56
BRANCH  41  58
ATOM     58  O   UNL     1       6.707  -7.552  29.511  0.00  0.00    -0.507 OA
ATOM     59  H   UNL     1       6.492  -8.284  28.905  0.00  0.00    +0.292 HD
ENDBRANCH  41  58
ENDBRANCH  34  35
ENDBRANCH   4  34
TORSDOF 17
ENDMDL
MODEL 3
REMARK VINA RESULT:      -7.4      2.933      9.041
REMARK  Name = 
REMARK  18 active torsions:
REMARK  status: ('A' for Active; 'I' for Inactive)
REMARK    1  A    between atoms: C_1  and  C_2
REMARK    2  A    between atoms: C_3  and  O_44
REMARK    3  A    between atoms: C_5  and  O_43
REMARK    4  A    between atoms: C_6  and  O_33
REMARK    5  A    between atoms: C_8  and  O_11
REMARK    6  A    between atoms: O_11  and  C_12
REMARK    7  A    between atoms: C_13  and  C_25
REMARK    8  A    between atoms: C_17  and  O_24
REMARK    9  A    between atoms: C_19  and  O_23
REMARK   10  A    between atoms: C_27  and  O_32
REMARK   11  A    between atoms: C_28  and  O_31
REMARK   12  A    between atoms: O_33  and  C_34
REMARK   13  A    between atoms: C_34  and  C_36
REMARK   14  A    between atoms: C_39  and  O_42
REMARK   15  A    between atoms: O_44  and  C_45
REMARK   16  A    between atoms: C_45  and  C_47
REMARK   17  A    between atoms: C_48  and  C_49
REMARK   18  A    between atoms: C_52  and  O_55
REMARK                            x       y       z     vdW  Elec       q    Type
REMARK                         _______ _______ _______ _____ _____    ______ ____
ROOT
ATOM      1  C   UNL     1       9.742   2.611  21.878  0.00  0.00    +0.042 C 
ATOM      2  C   UNL     1       8.897   1.415  22.328  0.00  0.00    +0.163 C 
ATOM      3  O   UNL     1       7.727   1.837  23.060  0.00  0.00    -0.332 OA
ATOM      4  C   UNL     1       7.996   2.368  24.381  0.00  0.00    +0.352 C 
ATOM      5  C   UNL     1       8.729   1.313  25.237  0.00  0.00    +0.277 C 
ATOM      6  C   UNL     1      10.006   0.873  24.520  0.00  0.00    +0.204 C 
ATOM      7  C   UNL     1       9.713   0.361  23.101  0.00  0.00    +0.237 C 
ENDROOT
BRANCH   6   8
ATOM      8  O   UNL     1      10.693  -0.121  25.287  0.00  0.00    -0.384 OA
ATOM      9  H   UNL     1      10.288  -0.128  26.173  0.00  0.00    +0.210 HD
ENDBRANCH   6   8
BRANCH   5  10
ATOM     10  O   UNL     1       7.840   0.174  25.356  0.00  0.00    -0.449 OA
BRANCH  10  11
ATOM     11  C   UNL     1       7.494  -0.266  26.581  0.00  0.00    +0.340 C 
ATOM     12  O   UNL     1       7.230   0.424  27.549  0.00  0.00    -0.245 OA
BRANCH  11  13
ATOM     13  C   UNL     1       7.529  -1.751  26.570  0.00  0.00    +0.059 A 
ATOM     14  C   UNL     1       8.729  -2.463  26.412  0.00  0.00    +0.018 A 
ATOM     15  C   UNL     1       8.745  -3.849  26.552  0.00  0.00    +0.046 A 
ATOM     16  C   UNL     1       7.562  -4.517  26.829  0.00  0.00    +0.117 A 
ATOM     17  C   UNL     1       6.347  -3.838  26.888  0.00  0.00    +0.046 A 
ATOM     18  C   UNL     1       6.330  -2.449  26.755  0.00  0.00    +0.018 A 
BRANCH  16  19
ATOM     19  O   UNL     1       7.635  -5.856  27.068  0.00  0.00    -0.507 OA
ATOM     20  H   UNL     1       8.439  -6.195  26.639  0.00  0.00    +0.292 HD
ENDBRANCH  16  19
ENDBRANCH  11  13
ENDBRANCH  10  11
ENDBRANCH   5  10
BRANCH   7  21
ATOM     21  O   UNL     1       8.897  -0.839  23.177  0.00  0.00    -0.453 OA
BRANCH  21  22
ATOM     22  C   UNL     1       9.486  -2.040  22.976  0.00  0.00    +0.332 C 
ATOM     23  O   UNL     1      10.671  -2.257  22.809  0.00  0.00    -0.246 OA
BRANCH  22  24
ATOM     24  C   UNL     1       8.421  -3.063  22.969  0.00  0.00    +0.092 C 
ATOM     25  C   UNL     1       7.125  -2.726  23.009  0.00  0.00    +0.015 C 
BRANCH  25  26
ATOM     26  C   UNL     1       6.087  -3.758  23.038  0.00  0.00    -0.025 A 
ATOM     27  C   UNL     1       4.817  -3.484  23.561  0.00  0.00    +0.011 A 
ATOM     28  C   UNL     1       3.826  -4.471  23.551  0.00  0.00    +0.046 A 
ATOM     29  C   UNL     1       4.101  -5.721  23.011  0.00  0.00    +0.117 A 
ATOM     30  C   UNL     1       5.360  -6.012  22.494  0.00  0.00    +0.046 A 
ATOM     31  C   UNL     1       6.351  -5.027  22.506  0.00  0.00    +0.011 A 
BRANCH  29  32
ATOM     32  O   UNL     1       3.102  -6.650  23.010  0.00  0.00    -0.507 OA
ATOM     33  H   UNL     1       2.407  -6.355  23.620  0.00  0.00    +0.292 HD
ENDBRANCH  29  32
ENDBRANCH  25  26
ENDBRANCH  22  24
ENDBRANCH  21  22
ENDBRANCH   7  21
BRANCH   4  34
ATOM     34  O   UNL     1       6.738   2.732  24.987  0.00  0.00    -0.452 OA
BRANCH  34  35
ATOM     35  C   UNL     1       5.920   3.648  24.327  0.00  0.00    +0.214 A 
ATOM     36  C   UNL     1       4.581   3.234  23.785  0.00  0.00    +0.238 A 
ATOM     37  O   UNL     1       4.143   2.104  23.973  0.00  0.00    -0.283 OA
ATOM     38  C   UNL     1       3.825   4.210  22.987  0.00  0.00    +0.109 A 
ATOM     39  C   UNL     1       4.336   5.497  22.895  0.00  0.00    +0.147 A 
ATOM     40  C   UNL     1       3.651   6.484  22.180  0.00  0.00    +0.092 A 
ATOM     41  C   UNL     1       2.451   6.161  21.549  0.00  0.00    +0.124 A 
ATOM     42  C   UNL     1       1.936   4.872  21.614  0.00  0.00    +0.091 A 
ATOM     43  O   UNL     1       5.517   5.873  23.473  0.00  0.00    -0.451 OA
ATOM     44  C   UNL     1       2.625   3.895  22.330  0.00  0.00    +0.135 A 
ATOM     45  C   UNL     1       6.314   4.926  24.113  0.00  0.00    +0.181 A 
BRANCH  45  46
ATOM     46  C   UNL     1       7.663   5.491  24.459  0.00  0.00    +0.025 A 
ATOM     47  C   UNL     1       8.597   5.700  23.417  0.00  0.00    +0.015 A 
ATOM     48  C   UNL     1       9.880   6.209  23.658  0.00  0.00    +0.050 A 
ATOM     49  C   UNL     1      10.250   6.508  24.955  0.00  0.00    +0.158 A 
ATOM     50  C   UNL     1       9.353   6.329  25.998  0.00  0.00    +0.159 A 
ATOM     51  C   UNL     1       8.067   5.834  25.763  0.00  0.00    +0.060 A 
BRANCH  50  52
ATOM     52  O   UNL     1       9.785   6.659  27.258  0.00  0.00    -0.503 OA
ATOM     53  H   UNL     1      10.533   7.275  27.170  0.00  0.00    +0.292 HD
ENDBRANCH  50  52
BRANCH  49  54
ATOM     54  O   UNL     1      11.509   6.977  25.196  0.00  0.00    -0.503 OA
ATOM     55  H   UNL     1      11.564   7.811  24.687  0.00  0.00    +0.292 HD
ENDBRANCH  49  54
ENDBRANCH  45  46
BRANCH  44  56
ATOM     56  O   UNL     1       2.111   2.628  22.366  0.00  0.00    -0.506 OA
ATOM     57  H   UNL     1       1.263   2.594  21.895  0.00  0.00    +0.292 HD
ENDBRANCH  44  56
BRANCH  41  58
ATOM     58  O   UNL     1       1.739   7.082  20.847  0.00  0.00    -0.507 OA
ATOM     59  H   UNL     1       1.119   7.537  21.445  0.00  0.00    +0.292 HD
ENDBRANCH  41  58
ENDBRANCH  34  35
ENDBRANCH   4  34
TORSDOF 17
ENDMDL
MODEL 4
REMARK VINA RESULT:      -7.0      2.009     10.164
REMARK  Name = 
REMARK  18 active torsions:
REMARK  status: ('A' for Active; 'I' for Inactive)
REMARK    1  A    between atoms: C_1  and  C_2
REMARK    2  A    between atoms: C_3  and  O_44
REMARK    3  A    between atoms: C_5  and  O_43
REMARK    4  A    between atoms: C_6  and  O_33
REMARK    5  A    between atoms: C_8  and  O_11
REMARK    6  A    between atoms: O_11  and  C_12
REMARK    7  A    between atoms: C_13  and  C_25
REMARK    8  A    between atoms: C_17  and  O_24
REMARK    9  A    between atoms: C_19  and  O_23
REMARK   10  A    between atoms: C_27  and  O_32
REMARK   11  A    between atoms: C_28  and  O_31
REMARK   12  A    between atoms: O_33  and  C_34
REMARK   13  A    between atoms: C_34  and  C_36
REMARK   14  A    between atoms: C_39  and  O_42
REMARK   15  A    between atoms: O_44  and  C_45
REMARK   16  A    between atoms: C_45  and  C_47
REMARK   17  A    between atoms: C_48  and  C_49
REMARK   18  A    between atoms: C_52  and  O_55
REMARK                            x       y       z     vdW  Elec       q    Type
REMARK                         _______ _______ _______ _____ _____    ______ ____
ROOT
ATOM      1  C   UNL     1       9.239  -1.660  21.609  0.00  0.00    +0.042 C 
ATOM      2  C   UNL     1       7.929  -2.013  22.319  0.00  0.00    +0.163 C 
ATOM      3  O   UNL     1       7.702  -1.168  23.467  0.00  0.00    -0.332 OA
ATOM      4  C   UNL     1       8.583  -1.419  24.590  0.00  0.00    +0.352 C 
ATOM      5  C   UNL     1       8.446  -2.885  25.053  0.00  0.00    +0.277 C 
ATOM      6  C   UNL     1       8.728  -3.820  23.877  0.00  0.00    +0.204 C 
ATOM      7  C   UNL     1       7.823  -3.509  22.674  0.00  0.00    +0.237 C 
ENDROOT
BRANCH   6   8
ATOM      8  O   UNL     1       8.587  -5.187  24.279  0.00  0.00    -0.384 OA
ATOM      9  H   UNL     1       9.358  -5.668  23.928  0.00  0.00    +0.210 HD
ENDBRANCH   6   8
BRANCH   5  10
ATOM     10  O   UNL     1       7.071  -3.067  25.480  0.00  0.00    -0.449 OA
BRANCH  10  11
ATOM     11  C   UNL     1       6.818  -3.741  26.616  0.00  0.00    +0.340 C 
ATOM     12  O   UNL     1       7.601  -4.443  27.230  0.00  0.00    -0.245 OA
BRANCH  11  13
ATOM     13  C   UNL     1       5.395  -3.522  26.982  0.00  0.00    +0.059 A 
ATOM     14  C   UNL     1       4.469  -2.991  26.070  0.00  0.00    +0.018 A 
ATOM     15  C   UNL     1       3.116  -2.935  26.398  0.00  0.00    +0.046 A 
ATOM     16  C   UNL     1       2.699  -3.388  27.640  0.00  0.00    +0.117 A 
ATOM     17  C   UNL     1       3.616  -3.822  28.594  0.00  0.00    +0.046 A 
ATOM     18  C   UNL     1       4.971  -3.887  28.265  0.00  0.00    +0.018 A 
BRANCH  16  19
ATOM     19  O   UNL     1       1.359  -3.419  27.883  0.00  0.00    -0.507 OA
ATOM     20  H   UNL     1       1.171  -4.199  28.432  0.00  0.00    +0.292 HD
ENDBRANCH  16  19
ENDBRANCH  11  13
ENDBRANCH  10  11
ENDBRANCH   5  10
BRANCH   7  21
ATOM     21  O   UNL     1       6.438  -3.767  23.030  0.00  0.00    -0.453 OA
BRANCH  21  22
ATOM     22  C   UNL     1       5.687  -4.535  22.208  0.00  0.00    +0.332 C 
ATOM     23  O   UNL     1       5.852  -4.711  21.016  0.00  0.00    -0.246 OA
BRANCH  22  24
ATOM     24  C   UNL     1       4.597  -5.118  23.015  0.00  0.00    +0.092 C 
ATOM     25  C   UNL     1       4.817  -6.129  23.866  0.00  0.00    +0.015 C 
BRANCH  25  26
ATOM     26  C   UNL     1       3.715  -6.717  24.629  0.00  0.00    -0.025 A 
ATOM     27  C   UNL     1       2.704  -7.444  23.987  0.00  0.00    +0.011 A 
ATOM     28  C   UNL     1       1.676  -8.027  24.734  0.00  0.00    +0.046 A 
ATOM     29  C   UNL     1       1.665  -7.892  26.117  0.00  0.00    +0.117 A 
ATOM     30  C   UNL     1       2.657  -7.166  26.770  0.00  0.00    +0.046 A 
ATOM     31  C   UNL     1       3.684  -6.581  26.022  0.00  0.00    +0.011 A 
BRANCH  29  32
ATOM     32  O   UNL     1       0.651  -8.487  26.809  0.00  0.00    -0.507 OA
ATOM     33  H   UNL     1      -0.100  -7.872  26.843  0.00  0.00    +0.292 HD
ENDBRANCH  29  32
ENDBRANCH  25  26
ENDBRANCH  22  24
ENDBRANCH  21  22
ENDBRANCH   7  21
BRANCH   4  34
ATOM     34  O   UNL     1       8.228  -0.511  25.654  0.00  0.00    -0.452 OA
BRANCH  34  35
ATOM     35  C   UNL     1       8.134   0.849  25.367  0.00  0.00    +0.214 A 
ATOM     36  C   UNL     1       9.229   1.556  24.618  0.00  0.00    +0.238 A 
ATOM     37  O   UNL     1      10.195   0.942  24.180  0.00  0.00    -0.283 OA
ATOM     38  C   UNL     1       9.130   3.015  24.461  0.00  0.00    +0.109 A 
ATOM     39  C   UNL     1       7.965   3.630  24.899  0.00  0.00    +0.147 A 
ATOM     40  C   UNL     1       7.790   5.009  24.749  0.00  0.00    +0.092 A 
ATOM     41  C   UNL     1       8.804   5.765  24.163  0.00  0.00    +0.124 A 
ATOM     42  C   UNL     1       9.985   5.168  23.738  0.00  0.00    +0.091 A 
ATOM     43  O   UNL     1       6.942   2.948  25.499  0.00  0.00    -0.451 OA
ATOM     44  C   UNL     1      10.150   3.793  23.891  0.00  0.00    +0.135 A 
ATOM     45  C   UNL     1       7.079   1.591  25.783  0.00  0.00    +0.181 A 
BRANCH  45  46
ATOM     46  C   UNL     1       5.957   1.098  26.651  0.00  0.00    +0.025 A 
ATOM     47  C   UNL     1       6.259   0.651  27.960  0.00  0.00    +0.015 A 
ATOM     48  C   UNL     1       5.272   0.163  28.826  0.00  0.00    +0.050 A 
ATOM     49  C   UNL     1       3.963   0.108  28.389  0.00  0.00    +0.158 A 
ATOM     50  C   UNL     1       3.630   0.552  27.118  0.00  0.00    +0.159 A 
ATOM     51  C   UNL     1       4.608   1.052  26.252  0.00  0.00    +0.060 A 
BRANCH  50  52
ATOM     52  O   UNL     1       2.309   0.479  26.755  0.00  0.00    -0.503 OA
ATOM     53  H   UNL     1       1.768   0.662  27.543  0.00  0.00    +0.292 HD
ENDBRANCH  50  52
BRANCH  49  54
ATOM     54  O   UNL     1       3.004  -0.393  29.221  0.00  0.00    -0.503 OA
ATOM     55  H   UNL     1       3.243  -0.053  30.107  0.00  0.00    +0.292 HD
ENDBRANCH  49  54
ENDBRANCH  45  46
BRANCH  44  56
ATOM     56  O   UNL     1      11.326   3.228  23.484  0.00  0.00    -0.506 OA
ATOM     57  H   UNL     1      11.492   3.429  22.548  0.00  0.00    +0.292 HD
ENDBRANCH  44  56
BRANCH  41  58
ATOM     58  O   UNL     1       8.686   7.108  23.986  0.00  0.00    -0.507 OA
ATOM     59  H   UNL     1       8.531   7.536  24.848  0.00  0.00    +0.292 HD
ENDBRANCH  41  58
ENDBRANCH  34  35
ENDBRANCH   4  34
TORSDOF 17
ENDMDL
MODEL 5
REMARK VINA RESULT:      -6.7      2.483      5.904
REMARK  Name = 
REMARK  18 active torsions:
REMARK  status: ('A' for Active; 'I' for Inactive)
REMARK    1  A    between atoms: C_1  and  C_2
REMARK    2  A    between atoms: C_3  and  O_44
REMARK    3  A    between atoms: C_5  and  O_43
REMARK    4  A    between atoms: C_6  and  O_33
REMARK    5  A    between atoms: C_8  and  O_11
REMARK    6  A    between atoms: O_11  and  C_12
REMARK    7  A    between atoms: C_13  and  C_25
REMARK    8  A    between atoms: C_17  and  O_24
REMARK    9  A    between atoms: C_19  and  O_23
REMARK   10  A    between atoms: C_27  and  O_32
REMARK   11  A    between atoms: C_28  and  O_31
REMARK   12  A    between atoms: O_33  and  C_34
REMARK   13  A    between atoms: C_34  and  C_36
REMARK   14  A    between atoms: C_39  and  O_42
REMARK   15  A    between atoms: O_44  and  C_45
REMARK   16  A    between atoms: C_45  and  C_47
REMARK   17  A    between atoms: C_48  and  C_49
REMARK   18  A    between atoms: C_52  and  O_55
REMARK                            x       y       z     vdW  Elec       q    Type
REMARK                         _______ _______ _______ _____ _____    ______ ____
ROOT
ATOM      1  C   UNL     1       8.822  -5.301  25.067  0.00  0.00    +0.042 C 
ATOM      2  C   UNL     1       9.105  -3.806  25.245  0.00  0.00    +0.163 C 
ATOM      3  O   UNL     1       8.397  -3.263  26.380  0.00  0.00    -0.332 OA
ATOM      4  C   UNL     1       6.964  -3.149  26.203  0.00  0.00    +0.352 C 
ATOM      5  C   UNL     1       6.649  -2.257  24.983  0.00  0.00    +0.277 C 
ATOM      6  C   UNL     1       7.340  -2.826  23.744  0.00  0.00    +0.204 C 
ATOM      7  C   UNL     1       8.853  -2.991  23.962  0.00  0.00    +0.237 C 
ENDROOT
BRANCH   6   8
ATOM      8  O   UNL     1       7.079  -2.003  22.602  0.00  0.00    -0.384 OA
ATOM      9  H   UNL     1       6.111  -1.956  22.502  0.00  0.00    +0.210 HD
ENDBRANCH   6   8
BRANCH   5  10
ATOM     10  O   UNL     1       7.196  -0.944  25.266  0.00  0.00    -0.449 OA
BRANCH  10  11
ATOM     11  C   UNL     1       6.428   0.144  25.078  0.00  0.00    +0.340 C 
ATOM     12  O   UNL     1       5.639   0.324  24.168  0.00  0.00    -0.245 OA
BRANCH  11  13
ATOM     13  C   UNL     1       6.735   1.123  26.153  0.00  0.00    +0.059 A 
ATOM     14  C   UNL     1       6.595   2.506  25.957  0.00  0.00    +0.018 A 
ATOM     15  C   UNL     1       6.751   3.385  27.026  0.00  0.00    +0.046 A 
ATOM     16  C   UNL     1       7.065   2.880  28.279  0.00  0.00    +0.117 A 
ATOM     17  C   UNL     1       7.307   1.522  28.469  0.00  0.00    +0.046 A 
ATOM     18  C   UNL     1       7.143   0.640  27.400  0.00  0.00    +0.018 A 
BRANCH  16  19
ATOM     19  O   UNL     1       7.100   3.757  29.321  0.00  0.00    -0.507 OA
ATOM     20  H   UNL     1       7.563   3.327  30.060  0.00  0.00    +0.292 HD
ENDBRANCH  16  19
ENDBRANCH  11  13
ENDBRANCH  10  11
ENDBRANCH   5  10
BRANCH   7  21
ATOM     21  O   UNL     1       9.459  -1.684  24.160  0.00  0.00    -0.453 OA
BRANCH  21  22
ATOM     22  C   UNL     1      10.009  -1.056  23.097  0.00  0.00    +0.332 C 
ATOM     23  O   UNL     1      10.580  -1.572  22.155  0.00  0.00    -0.246 OA
BRANCH  22  24
ATOM     24  C   UNL     1       9.815   0.395  23.287  0.00  0.00    +0.092 C 
ATOM     25  C   UNL     1       8.818   1.055  22.683  0.00  0.00    +0.015 C 
BRANCH  25  26
ATOM     26  C   UNL     1       8.667   2.501  22.857  0.00  0.00    -0.025 A 
ATOM     27  C   UNL     1       7.607   3.190  22.254  0.00  0.00    +0.011 A 
ATOM     28  C   UNL     1       7.457   4.565  22.458  0.00  0.00    +0.046 A 
ATOM     29  C   UNL     1       8.357   5.245  23.270  0.00  0.00    +0.117 A 
ATOM     30  C   UNL     1       9.420   4.577  23.870  0.00  0.00    +0.046 A 
ATOM     31  C   UNL     1       9.571   3.203  23.665  0.00  0.00    +0.011 A 
BRANCH  29  32
ATOM     32  O   UNL     1       8.167   6.583  23.452  0.00  0.00    -0.507 OA
ATOM     33  H   UNL     1       8.152   6.765  24.406  0.00  0.00    +0.292 HD
ENDBRANCH  29  32
ENDBRANCH  25  26
ENDBRANCH  22  24
ENDBRANCH  21  22
ENDBRANCH   7  21
BRANCH   4  34
ATOM     34  O   UNL     1       6.403  -2.584  27.407  0.00  0.00    -0.452 OA
BRANCH  34  35
ATOM     35  C   UNL     1       5.375  -3.271  28.050  0.00  0.00    +0.214 A 
ATOM     36  C   UNL     1       5.418  -4.767  28.189  0.00  0.00    +0.238 A 
ATOM     37  O   UNL     1       6.388  -5.411  27.807  0.00  0.00    -0.283 OA
ATOM     38  C   UNL     1       4.244  -5.443  28.760  0.00  0.00    +0.109 A 
ATOM     39  C   UNL     1       3.222  -4.645  29.258  0.00  0.00    +0.147 A 
ATOM     40  C   UNL     1       2.093  -5.222  29.845  0.00  0.00    +0.092 A 
ATOM     41  C   UNL     1       1.995  -6.610  29.918  0.00  0.00    +0.124 A 
ATOM     42  C   UNL     1       2.999  -7.424  29.407  0.00  0.00    +0.091 A 
ATOM     43  O   UNL     1       3.247  -3.279  29.198  0.00  0.00    -0.451 OA
ATOM     44  C   UNL     1       4.122  -6.840  28.824  0.00  0.00    +0.135 A 
ATOM     45  C   UNL     1       4.285  -2.627  28.535  0.00  0.00    +0.181 A 
BRANCH  45  46
ATOM     46  C   UNL     1       3.998  -1.162  28.376  0.00  0.00    +0.025 A 
ATOM     47  C   UNL     1       4.157  -0.314  29.498  0.00  0.00    +0.015 A 
ATOM     48  C   UNL     1       3.896   1.060  29.436  0.00  0.00    +0.050 A 
ATOM     49  C   UNL     1       3.461   1.607  28.244  0.00  0.00    +0.158 A 
ATOM     50  C   UNL     1       3.309   0.808  27.121  0.00  0.00    +0.159 A 
ATOM     51  C   UNL     1       3.580  -0.562  27.172  0.00  0.00    +0.060 A 
BRANCH  50  52
ATOM     52  O   UNL     1       2.885   1.422  25.969  0.00  0.00    -0.503 OA
ATOM     53  H   UNL     1       3.101   0.840  25.219  0.00  0.00    +0.292 HD
ENDBRANCH  50  52
BRANCH  49  54
ATOM     54  O   UNL     1       3.179   2.942  28.189  0.00  0.00    -0.503 OA
ATOM     55  H   UNL     1       4.052   3.382  28.237  0.00  0.00    +0.292 HD
ENDBRANCH  49  54
ENDBRANCH  45  46
BRANCH  44  56
ATOM     56  O   UNL     1       5.090  -7.658  28.311  0.00  0.00    -0.506 OA
ATOM     57  H   UNL     1       5.037  -7.676  27.341  0.00  0.00    +0.292 HD
ENDBRANCH  44  56
BRANCH  41  58
ATOM     58  O   UNL     1       0.923  -7.225  30.485  0.00  0.00    -0.507 OA
ATOM     59  H   UNL     1       0.274  -6.553  30.762  0.00  0.00    +0.292 HD
ENDBRANCH  41  58
ENDBRANCH  34  35
ENDBRANCH   4  34
TORSDOF 17
ENDMDL
MODEL 6
REMARK VINA RESULT:      -6.4      2.301      8.280
REMARK  Name = 
REMARK  18 active torsions:
REMARK  status: ('A' for Active; 'I' for Inactive)
REMARK    1  A    between atoms: C_1  and  C_2
REMARK    2  A    between atoms: C_3  and  O_44
REMARK    3  A    between atoms: C_5  and  O_43
REMARK    4  A    between atoms: C_6  and  O_33
REMARK    5  A    between atoms: C_8  and  O_11
REMARK    6  A    between atoms: O_11  and  C_12
REMARK    7  A    between atoms: C_13  and  C_25
REMARK    8  A    between atoms: C_17  and  O_24
REMARK    9  A    between atoms: C_19  and  O_23
REMARK   10  A    between atoms: C_27  and  O_32
REMARK   11  A    between atoms: C_28  and  O_31
REMARK   12  A    between atoms: O_33  and  C_34
REMARK   13  A    between atoms: C_34  and  C_36
REMARK   14  A    between atoms: C_39  and  O_42
REMARK   15  A    between atoms: O_44  and  C_45
REMARK   16  A    between atoms: C_45  and  C_47
REMARK   17  A    between atoms: C_48  and  C_49
REMARK   18  A    between atoms: C_52  and  O_55
REMARK                            x       y       z     vdW  Elec       q    Type
REMARK                         _______ _______ _______ _____ _____    ______ ____
ROOT
ATOM      1  C   UNL     1       7.568   0.736  29.016  0.00  0.00    +0.042 C 
ATOM      2  C   UNL     1       6.463   0.268  28.064  0.00  0.00    +0.163 C 
ATOM      3  O   UNL     1       6.804   0.529  26.686  0.00  0.00    -0.332 OA
ATOM      4  C   UNL     1       6.780   1.927  26.308  0.00  0.00    +0.352 C 
ATOM      5  C   UNL     1       5.378   2.521  26.564  0.00  0.00    +0.277 C 
ATOM      6  C   UNL     1       4.996   2.312  28.030  0.00  0.00    +0.204 C 
ATOM      7  C   UNL     1       5.076   0.830  28.432  0.00  0.00    +0.237 C 
ENDROOT
BRANCH   6   8
ATOM      8  O   UNL     1       3.689   2.837  28.286  0.00  0.00    -0.384 OA
ATOM      9  H   UNL     1       3.119   2.082  28.517  0.00  0.00    +0.210 HD
ENDBRANCH   6   8
BRANCH   5  10
ATOM     10  O   UNL     1       4.449   1.788  25.726  0.00  0.00    -0.449 OA
BRANCH  10  11
ATOM     11  C   UNL     1       3.425   2.443  25.149  0.00  0.00    +0.340 C 
ATOM     12  O   UNL     1       2.239   2.234  25.327  0.00  0.00    -0.245 OA
BRANCH  11  13
ATOM     13  C   UNL     1       3.986   3.451  24.211  0.00  0.00    +0.059 A 
ATOM     14  C   UNL     1       3.839   4.830  24.430  0.00  0.00    +0.018 A 
ATOM     15  C   UNL     1       4.500   5.744  23.613  0.00  0.00    +0.046 A 
ATOM     16  C   UNL     1       5.286   5.277  22.570  0.00  0.00    +0.117 A 
ATOM     17  C   UNL     1       5.362   3.918  22.277  0.00  0.00    +0.046 A 
ATOM     18  C   UNL     1       4.707   3.000  23.100  0.00  0.00    +0.018 A 
BRANCH  16  19
ATOM     19  O   UNL     1       6.003   6.194  21.863  0.00  0.00    -0.507 OA
ATOM     20  H   UNL     1       6.640   6.610  22.468  0.00  0.00    +0.292 HD
ENDBRANCH  16  19
ENDBRANCH  11  13
ENDBRANCH  10  11
ENDBRANCH   5  10
BRANCH   7  21
ATOM     21  O   UNL     1       4.093   0.069  27.679  0.00  0.00    -0.453 OA
BRANCH  21  22
ATOM     22  C   UNL     1       3.971  -1.255  27.921  0.00  0.00    +0.332 C 
ATOM     23  O   UNL     1       3.780  -1.789  28.998  0.00  0.00    -0.246 OA
BRANCH  22  24
ATOM     24  C   UNL     1       4.135  -1.961  26.636  0.00  0.00    +0.092 C 
ATOM     25  C   UNL     1       5.199  -2.740  26.393  0.00  0.00    +0.015 C 
BRANCH  25  26
ATOM     26  C   UNL     1       5.360  -3.401  25.098  0.00  0.00    -0.025 A 
ATOM     27  C   UNL     1       5.505  -4.792  25.014  0.00  0.00    +0.011 A 
ATOM     28  C   UNL     1       5.624  -5.411  23.766  0.00  0.00    +0.046 A 
ATOM     29  C   UNL     1       5.587  -4.645  22.608  0.00  0.00    +0.117 A 
ATOM     30  C   UNL     1       5.452  -3.261  22.673  0.00  0.00    +0.046 A 
ATOM     31  C   UNL     1       5.335  -2.642  23.921  0.00  0.00    +0.011 A 
BRANCH  29  32
ATOM     32  O   UNL     1       5.695  -5.290  21.411  0.00  0.00    -0.507 OA
ATOM     33  H   UNL     1       5.013  -5.982  21.372  0.00  0.00    +0.292 HD
ENDBRANCH  29  32
ENDBRANCH  25  26
ENDBRANCH  22  24
ENDBRANCH  21  22
ENDBRANCH   7  21
BRANCH   4  34
ATOM     34  O   UNL     1       7.128   2.025  24.911  0.00  0.00    -0.452 OA
BRANCH  34  35
ATOM     35  C   UNL     1       8.398   2.487  24.571  0.00  0.00    +0.214 A 
ATOM     36  C   UNL     1       8.688   3.960  24.505  0.00  0.00    +0.238 A 
ATOM     37  O   UNL     1       7.840   4.788  24.817  0.00  0.00    -0.283 OA
ATOM     38  C   UNL     1      10.008   4.385  24.015  0.00  0.00    +0.109 A 
ATOM     39  C   UNL     1      10.950   3.395  23.770  0.00  0.00    +0.147 A 
ATOM     40  C   UNL     1      12.236   3.730  23.335  0.00  0.00    +0.092 A 
ATOM     41  C   UNL     1      12.562   5.070  23.139  0.00  0.00    +0.124 A 
ATOM     42  C   UNL     1      11.625   6.072  23.359  0.00  0.00    +0.091 A 
ATOM     43  O   UNL     1      10.687   2.061  23.923  0.00  0.00    -0.451 OA
ATOM     44  C   UNL     1      10.346   5.729  23.794  0.00  0.00    +0.135 A 
ATOM     45  C   UNL     1       9.401   1.636  24.250  0.00  0.00    +0.181 A 
BRANCH  45  46
ATOM     46  C   UNL     1       9.272   0.144  24.131  0.00  0.00    +0.025 A 
ATOM     47  C   UNL     1       9.304  -0.438  22.841  0.00  0.00    +0.015 A 
ATOM     48  C   UNL     1       9.175  -1.819  22.644  0.00  0.00    +0.050 A 
ATOM     49  C   UNL     1       9.003  -2.640  23.741  0.00  0.00    +0.158 A 
ATOM     50  C   UNL     1       8.982  -2.104  25.020  0.00  0.00    +0.159 A 
ATOM     51  C   UNL     1       9.123  -0.729  25.226  0.00  0.00    +0.060 A 
BRANCH  50  52
ATOM     52  O   UNL     1       8.820  -2.981  26.064  0.00  0.00    -0.503 OA
ATOM     53  H   UNL     1       9.160  -3.849  25.785  0.00  0.00    +0.292 HD
ENDBRANCH  50  52
BRANCH  49  54
ATOM     54  O   UNL     1       8.849  -3.982  23.550  0.00  0.00    -0.503 OA
ATOM     55  H   UNL     1       9.689  -4.272  23.140  0.00  0.00    +0.292 HD
ENDBRANCH  49  54
ENDBRANCH  45  46
BRANCH  44  56
ATOM     56  O   UNL     1       9.433   6.728  23.987  0.00  0.00    -0.506 OA
ATOM     57  H   UNL     1       9.867   7.517  24.350  0.00  0.00    +0.292 HD
ENDBRANCH  44  56
BRANCH  41  58
ATOM     58  O   UNL     1      13.799   5.454  22.723  0.00  0.00    -0.507 OA
ATOM     59  H   UNL     1      14.475   4.987  23.246  0.00  0.00    +0.292 HD
ENDBRANCH  41  58
ENDBRANCH  34  35
ENDBRANCH   4  34
TORSDOF 17
ENDMDL
MODEL 7
REMARK VINA RESULT:      -6.3      2.848      7.690
REMARK  Name = 
REMARK  18 active torsions:
REMARK  status: ('A' for Active; 'I' for Inactive)
REMARK    1  A    between atoms: C_1  and  C_2
REMARK    2  A    between atoms: C_3  and  O_44
REMARK    3  A    between atoms: C_5  and  O_43
REMARK    4  A    between atoms: C_6  and  O_33
REMARK    5  A    between atoms: C_8  and  O_11
REMARK    6  A    between atoms: O_11  and  C_12
REMARK    7  A    between atoms: C_13  and  C_25
REMARK    8  A    between atoms: C_17  and  O_24
REMARK    9  A    between atoms: C_19  and  O_23
REMARK   10  A    between atoms: C_27  and  O_32
REMARK   11  A    between atoms: C_28  and  O_31
REMARK   12  A    between atoms: O_33  and  C_34
REMARK   13  A    between atoms: C_34  and  C_36
REMARK   14  A    between atoms: C_39  and  O_42
REMARK   15  A    between atoms: O_44  and  C_45
REMARK   16  A    between atoms: C_45  and  C_47
REMARK   17  A    between atoms: C_48  and  C_49
REMARK   18  A    between atoms: C_52  and  O_55
REMARK                            x       y       z     vdW  Elec       q    Type
REMARK                         _______ _______ _______ _____ _____    ______ ____
ROOT
ATOM      1  C   UNL     1       6.783  -5.861  21.559  0.00  0.00    +0.042 C 
ATOM      2  C   UNL     1       7.048  -5.192  22.911  0.00  0.00    +0.163 C 
ATOM      3  O   UNL     1       5.819  -4.836  23.578  0.00  0.00    -0.332 OA
ATOM      4  C   UNL     1       5.098  -3.734  22.976  0.00  0.00    +0.352 C 
ATOM      5  C   UNL     1       5.991  -2.475  22.937  0.00  0.00    +0.277 C 
ATOM      6  C   UNL     1       7.287  -2.793  22.193  0.00  0.00    +0.204 C 
ATOM      7  C   UNL     1       8.016  -3.997  22.809  0.00  0.00    +0.237 C 
ENDROOT
BRANCH   6   8
ATOM      8  O   UNL     1       8.141  -1.644  22.161  0.00  0.00    -0.384 OA
ATOM      9  H   UNL     1       7.925  -1.107  22.945  0.00  0.00    +0.210 HD
ENDBRANCH   6   8
BRANCH   5  10
ATOM     10  O   UNL     1       6.308  -2.139  24.312  0.00  0.00    -0.449 OA
BRANCH  10  11
ATOM     11  C   UNL     1       6.059  -0.894  24.759  0.00  0.00    +0.340 C 
ATOM     12  O   UNL     1       4.975  -0.446  25.087  0.00  0.00    -0.245 OA
BRANCH  11  13
ATOM     13  C   UNL     1       7.334  -0.131  24.749  0.00  0.00    +0.059 A 
ATOM     14  C   UNL     1       8.494  -0.618  25.371  0.00  0.00    +0.018 A 
ATOM     15  C   UNL     1       9.706   0.053  25.217  0.00  0.00    +0.046 A 
ATOM     16  C   UNL     1       9.747   1.215  24.462  0.00  0.00    +0.117 A 
ATOM     17  C   UNL     1       8.588   1.766  23.923  0.00  0.00    +0.046 A 
ATOM     18  C   UNL     1       7.374   1.092  24.069  0.00  0.00    +0.018 A 
BRANCH  16  19
ATOM     19  O   UNL     1      10.967   1.781  24.243  0.00  0.00    -0.507 OA
ATOM     20  H   UNL     1      11.104   1.838  23.282  0.00  0.00    +0.292 HD
ENDBRANCH  16  19
ENDBRANCH  11  13
ENDBRANCH  10  11
ENDBRANCH   5  10
BRANCH   7  21
ATOM     21  O   UNL     1       8.435  -3.669  24.162  0.00  0.00    -0.453 OA
BRANCH  21  22
ATOM     22  C   UNL     1       9.070  -4.614  24.893  0.00  0.00    +0.332 C 
ATOM     23  O   UNL     1      10.260  -4.867  24.887  0.00  0.00    -0.246 OA
BRANCH  22  24
ATOM     24  C   UNL     1       8.051  -5.314  25.699  0.00  0.00    +0.092 C 
ATOM     25  C   UNL     1       7.591  -4.802  26.848  0.00  0.00    +0.015 C 
BRANCH  25  26
ATOM     26  C   UNL     1       6.607  -5.531  27.650  0.00  0.00    -0.025 A 
ATOM     27  C   UNL     1       6.442  -5.252  29.012  0.00  0.00    +0.011 A 
ATOM     28  C   UNL     1       5.475  -5.935  29.756  0.00  0.00    +0.046 A 
ATOM     29  C   UNL     1       4.670  -6.883  29.137  0.00  0.00    +0.117 A 
ATOM     30  C   UNL     1       4.825  -7.177  27.786  0.00  0.00    +0.046 A 
ATOM     31  C   UNL     1       5.794  -6.497  27.043  0.00  0.00    +0.011 A 
BRANCH  29  32
ATOM     32  O   UNL     1       3.730  -7.516  29.897  0.00  0.00    -0.507 OA
ATOM     33  H   UNL     1       2.894  -7.531  29.403  0.00  0.00    +0.292 HD
ENDBRANCH  29  32
ENDBRANCH  25  26
ENDBRANCH  22  24
ENDBRANCH  21  22
ENDBRANCH   7  21
BRANCH   4  34
ATOM     34  O   UNL     1       3.907  -3.491  23.756  0.00  0.00    -0.452 OA
BRANCH  34  35
ATOM     35  C   UNL     1       3.354  -4.549  24.474  0.00  0.00    +0.214 A 
ATOM     36  C   UNL     1       3.015  -5.847  23.795  0.00  0.00    +0.238 A 
ATOM     37  O   UNL     1       3.281  -6.032  22.613  0.00  0.00    -0.283 OA
ATOM     38  C   UNL     1       2.315  -6.876  24.578  0.00  0.00    +0.109 A 
ATOM     39  C   UNL     1       2.130  -6.636  25.933  0.00  0.00    +0.147 A 
ATOM     40  C   UNL     1       1.503  -7.586  26.744  0.00  0.00    +0.092 A 
ATOM     41  C   UNL     1       1.053  -8.777  26.176  0.00  0.00    +0.124 A 
ATOM     42  C   UNL     1       1.212  -9.025  24.818  0.00  0.00    +0.091 A 
ATOM     43  O   UNL     1       2.529  -5.480  26.547  0.00  0.00    -0.451 OA
ATOM     44  C   UNL     1       1.839  -8.072  24.018  0.00  0.00    +0.135 A 
ATOM     45  C   UNL     1       3.066  -4.438  25.793  0.00  0.00    +0.181 A 
BRANCH  45  46
ATOM     46  C   UNL     1       3.208  -3.187  26.612  0.00  0.00    +0.025 A 
ATOM     47  C   UNL     1       4.409  -2.981  27.332  0.00  0.00    +0.015 A 
ATOM     48  C   UNL     1       4.614  -1.849  28.129  0.00  0.00    +0.050 A 
ATOM     49  C   UNL     1       3.610  -0.905  28.226  0.00  0.00    +0.158 A 
ATOM     50  C   UNL     1       2.426  -1.069  27.523  0.00  0.00    +0.159 A 
ATOM     51  C   UNL     1       2.219  -2.190  26.714  0.00  0.00    +0.060 A 
BRANCH  50  52
ATOM     52  O   UNL     1       1.477  -0.086  27.656  0.00  0.00    -0.503 OA
ATOM     53  H   UNL     1       0.902  -0.111  26.872  0.00  0.00    +0.292 HD
ENDBRANCH  50  52
BRANCH  49  54
ATOM     54  O   UNL     1       3.796   0.185  29.025  0.00  0.00    -0.503 OA
ATOM     55  H   UNL     1       4.206   0.855  28.440  0.00  0.00    +0.292 HD
ENDBRANCH  49  54
ENDBRANCH  45  46
BRANCH  44  56
ATOM     56  O   UNL     1       1.969  -8.326  22.681  0.00  0.00    -0.506 OA
ATOM     57  H   UNL     1       2.797  -7.947  22.344  0.00  0.00    +0.292 HD
ENDBRANCH  44  56
BRANCH  41  58
ATOM     58  O   UNL     1       0.443  -9.739  26.918  0.00  0.00    -0.507 OA
ATOM     59  H   UNL     1      -0.394  -9.996  26.491  0.00  0.00    +0.292 HD
ENDBRANCH  41  58
ENDBRANCH  34  35
ENDBRANCH   4  34
TORSDOF 17
ENDMDL
MODEL 8
REMARK VINA RESULT:      -6.3      2.890      7.474
REMARK  Name = 
REMARK  18 active torsions:
REMARK  status: ('A' for Active; 'I' for Inactive)
REMARK    1  A    between atoms: C_1  and  C_2
REMARK    2  A    between atoms: C_3  and  O_44
REMARK    3  A    between atoms: C_5  and  O_43
REMARK    4  A    between atoms: C_6  and  O_33
REMARK    5  A    between atoms: C_8  and  O_11
REMARK    6  A    between atoms: O_11  and  C_12
REMARK    7  A    between atoms: C_13  and  C_25
REMARK    8  A    between atoms: C_17  and  O_24
REMARK    9  A    between atoms: C_19  and  O_23
REMARK   10  A    between atoms: C_27  and  O_32
REMARK   11  A    between atoms: C_28  and  O_31
REMARK   12  A    between atoms: O_33  and  C_34
REMARK   13  A    between atoms: C_34  and  C_36
REMARK   14  A    between atoms: C_39  and  O_42
REMARK   15  A    between atoms: O_44  and  C_45
REMARK   16  A    between atoms: C_45  and  C_47
REMARK   17  A    between atoms: C_48  and  C_49
REMARK   18  A    between atoms: C_52  and  O_55
REMARK                            x       y       z     vdW  Elec       q    Type
REMARK                         _______ _______ _______ _____ _____    ______ ____
ROOT
ATOM      1  C   UNL     1       6.277  -5.725  22.346  0.00  0.00    +0.042 C 
ATOM      2  C   UNL     1       6.923  -4.961  23.505  0.00  0.00    +0.163 C 
ATOM      3  O   UNL     1       5.983  -4.071  24.144  0.00  0.00    -0.332 OA
ATOM      4  C   UNL     1       5.612  -2.913  23.357  0.00  0.00    +0.352 C 
ATOM      5  C   UNL     1       6.868  -2.090  23.000  0.00  0.00    +0.277 C 
ATOM      6  C   UNL     1       7.874  -2.984  22.274  0.00  0.00    +0.204 C 
ATOM      7  C   UNL     1       8.220  -4.235  23.097  0.00  0.00    +0.237 C 
ENDROOT
BRANCH   6   8
ATOM      8  O   UNL     1       9.057  -2.246  21.951  0.00  0.00    -0.384 OA
ATOM      9  H   UNL     1       8.983  -1.985  21.015  0.00  0.00    +0.210 HD
ENDBRANCH   6   8
BRANCH   5  10
ATOM     10  O   UNL     1       7.451  -1.645  24.251  0.00  0.00    -0.449 OA
BRANCH  10  11
ATOM     11  C   UNL     1       8.317  -0.615  24.244  0.00  0.00    +0.340 C 
ATOM     12  O   UNL     1       9.417  -0.590  24.766  0.00  0.00    -0.245 OA
BRANCH  11  13
ATOM     13  C   UNL     1       7.686   0.520  23.521  0.00  0.00    +0.059 A 
ATOM     14  C   UNL     1       6.425   1.020  23.884  0.00  0.00    +0.018 A 
ATOM     15  C   UNL     1       5.929   2.174  23.281  0.00  0.00    +0.046 A 
ATOM     16  C   UNL     1       6.684   2.809  22.307  0.00  0.00    +0.117 A 
ATOM     17  C   UNL     1       7.889   2.270  21.863  0.00  0.00    +0.046 A 
ATOM     18  C   UNL     1       8.391   1.119  22.472  0.00  0.00    +0.018 A 
BRANCH  16  19
ATOM     19  O   UNL     1       6.218   3.993  21.820  0.00  0.00    -0.507 OA
ATOM     20  H   UNL     1       5.251   3.998  21.916  0.00  0.00    +0.292 HD
ENDBRANCH  16  19
ENDBRANCH  11  13
ENDBRANCH  10  11
ENDBRANCH   5  10
BRANCH   7  21
ATOM     21  O   UNL     1       8.892  -3.838  24.324  0.00  0.00    -0.453 OA
BRANCH  21  22
ATOM     22  C   UNL     1       9.433  -4.797  25.108  0.00  0.00    +0.332 C 
ATOM     23  O   UNL     1      10.613  -5.062  25.234  0.00  0.00    -0.246 OA
BRANCH  22  24
ATOM     24  C   UNL     1       8.323  -5.498  25.784  0.00  0.00    +0.092 C 
ATOM     25  C   UNL     1       7.622  -4.918  26.768  0.00  0.00    +0.015 C 
BRANCH  25  26
ATOM     26  C   UNL     1       6.550  -5.645  27.449  0.00  0.00    -0.025 A 
ATOM     27  C   UNL     1       6.451  -5.636  28.846  0.00  0.00    +0.011 A 
ATOM     28  C   UNL     1       5.401  -6.308  29.480  0.00  0.00    +0.046 A 
ATOM     29  C   UNL     1       4.450  -6.976  28.719  0.00  0.00    +0.117 A 
ATOM     30  C   UNL     1       4.538  -7.002  27.330  0.00  0.00    +0.046 A 
ATOM     31  C   UNL     1       5.588  -6.332  26.697  0.00  0.00    +0.011 A 
BRANCH  29  32
ATOM     32  O   UNL     1       3.435  -7.609  29.377  0.00  0.00    -0.507 OA
ATOM     33  H   UNL     1       3.102  -7.016  30.070  0.00  0.00    +0.292 HD
ENDBRANCH  29  32
ENDBRANCH  25  26
ENDBRANCH  22  24
ENDBRANCH  21  22
ENDBRANCH   7  21
BRANCH   4  34
ATOM     34  O   UNL     1       4.684  -2.120  24.128  0.00  0.00    -0.452 OA
BRANCH  34  35
ATOM     35  C   UNL     1       4.054  -2.709  25.223  0.00  0.00    +0.214 A 
ATOM     36  C   UNL     1       3.073  -3.832  25.036  0.00  0.00    +0.238 A 
ATOM     37  O   UNL     1       2.856  -4.306  23.926  0.00  0.00    -0.283 OA
ATOM     38  C   UNL     1       2.346  -4.321  26.217  0.00  0.00    +0.109 A 
ATOM     39  C   UNL     1       2.710  -3.804  27.453  0.00  0.00    +0.147 A 
ATOM     40  C   UNL     1       2.084  -4.250  28.621  0.00  0.00    +0.092 A 
ATOM     41  C   UNL     1       1.081  -5.213  28.532  0.00  0.00    +0.124 A 
ATOM     42  C   UNL     1       0.691  -5.726  27.301  0.00  0.00    +0.091 A 
ATOM     43  O   UNL     1       3.672  -2.843  27.606  0.00  0.00    -0.451 OA
ATOM     44  C   UNL     1       1.321  -5.277  26.142  0.00  0.00    +0.135 A 
ATOM     45  C   UNL     1       4.269  -2.268  26.486  0.00  0.00    +0.181 A 
BRANCH  45  46
ATOM     46  C   UNL     1       5.107  -1.080  26.862  0.00  0.00    +0.025 A 
ATOM     47  C   UNL     1       4.487   0.191  26.933  0.00  0.00    +0.015 A 
ATOM     48  C   UNL     1       5.201   1.350  27.263  0.00  0.00    +0.050 A 
ATOM     49  C   UNL     1       6.555   1.254  27.519  0.00  0.00    +0.158 A 
ATOM     50  C   UNL     1       7.190   0.022  27.473  0.00  0.00    +0.159 A 
ATOM     51  C   UNL     1       6.482  -1.141  27.158  0.00  0.00    +0.060 A 
BRANCH  50  52
ATOM     52  O   UNL     1       8.534   0.001  27.751  0.00  0.00    -0.503 OA
ATOM     53  H   UNL     1       8.650  -0.335  28.657  0.00  0.00    +0.292 HD
ENDBRANCH  50  52
BRANCH  49  54
ATOM     54  O   UNL     1       7.258   2.386  27.812  0.00  0.00    -0.503 OA
ATOM     55  H   UNL     1       8.054   2.338  27.245  0.00  0.00    +0.292 HD
ENDBRANCH  49  54
ENDBRANCH  45  46
BRANCH  44  56
ATOM     56  O   UNL     1       0.910  -5.779  24.940  0.00  0.00    -0.506 OA
ATOM     57  H   UNL     1       0.523  -5.075  24.394  0.00  0.00    +0.292 HD
ENDBRANCH  44  56
BRANCH  41  58
ATOM     58  O   UNL     1       0.443  -5.687  29.636  0.00  0.00    -0.507 OA
ATOM     59  H   UNL     1       0.950  -5.445  30.432  0.00  0.00    +0.292 HD
ENDBRANCH  41  58
ENDBRANCH  34  35
ENDBRANCH   4  34
TORSDOF 17
ENDMDL
MODEL 9
REMARK VINA RESULT:      -6.2      1.919      4.473
REMARK  Name = 
REMARK  18 active torsions:
REMARK  status: ('A' for Active; 'I' for Inactive)
REMARK    1  A    between atoms: C_1  and  C_2
REMARK    2  A    between atoms: C_3  and  O_44
REMARK    3  A    between atoms: C_5  and  O_43
REMARK    4  A    between atoms: C_6  and  O_33
REMARK    5  A    between atoms: C_8  and  O_11
REMARK    6  A    between atoms: O_11  and  C_12
REMARK    7  A    between atoms: C_13  and  C_25
REMARK    8  A    between atoms: C_17  and  O_24
REMARK    9  A    between atoms: C_19  and  O_23
REMARK   10  A    between atoms: C_27  and  O_32
REMARK   11  A    between atoms: C_28  and  O_31
REMARK   12  A    between atoms: O_33  and  C_34
REMARK   13  A    between atoms: C_34  and  C_36
REMARK   14  A    between atoms: C_39  and  O_42
REMARK   15  A    between atoms: O_44  and  C_45
REMARK   16  A    between atoms: C_45  and  C_47
REMARK   17  A    between atoms: C_48  and  C_49
REMARK   18  A    between atoms: C_52  and  O_55
REMARK                            x       y       z     vdW  Elec       q    Type
REMARK                         _______ _______ _______ _____ _____    ______ ____
ROOT
ATOM      1  C   UNL     1       6.185   3.389  22.606  0.00  0.00    +0.042 C 
ATOM      2  C   UNL     1       6.346   3.534  24.122  0.00  0.00    +0.163 C 
ATOM      3  O   UNL     1       6.630   2.265  24.749  0.00  0.00    -0.332 OA
ATOM      4  C   UNL     1       5.517   1.339  24.780  0.00  0.00    +0.352 C 
ATOM      5  C   UNL     1       4.321   1.972  25.523  0.00  0.00    +0.277 C 
ATOM      6  C   UNL     1       3.951   3.298  24.858  0.00  0.00    +0.204 C 
ATOM      7  C   UNL     1       5.154   4.252  24.785  0.00  0.00    +0.237 C 
ENDROOT
BRANCH   6   8
ATOM      8  O   UNL     1       2.856   3.914  25.543  0.00  0.00    -0.384 OA
ATOM      9  H   UNL     1       2.715   4.785  25.130  0.00  0.00    +0.210 HD
ENDBRANCH   6   8
BRANCH   5  10
ATOM     10  O   UNL     1       4.757   2.232  26.881  0.00  0.00    -0.449 OA
BRANCH  10  11
ATOM     11  C   UNL     1       3.864   2.158  27.885  0.00  0.00    +0.340 C 
ATOM     12  O   UNL     1       3.422   3.090  28.531  0.00  0.00    -0.245 OA
BRANCH  11  13
ATOM     13  C   UNL     1       3.532   0.726  28.109  0.00  0.00    +0.059 A 
ATOM     14  C   UNL     1       4.490  -0.193  28.565  0.00  0.00    +0.018 A 
ATOM     15  C   UNL     1       4.111  -1.491  28.902  0.00  0.00    +0.046 A 
ATOM     16  C   UNL     1       2.784  -1.868  28.762  0.00  0.00    +0.117 A 
ATOM     17  C   UNL     1       1.842  -1.001  28.215  0.00  0.00    +0.046 A 
ATOM     18  C   UNL     1       2.218   0.302  27.885  0.00  0.00    +0.018 A 
BRANCH  16  19
ATOM     19  O   UNL     1       2.431  -3.107  29.204  0.00  0.00    -0.507 OA
ATOM     20  H   UNL     1       2.909  -3.764  28.671  0.00  0.00    +0.292 HD
ENDBRANCH  16  19
ENDBRANCH  11  13
ENDBRANCH  10  11
ENDBRANCH   5  10
BRANCH   7  21
ATOM     21  O   UNL     1       5.569   4.613  26.131  0.00  0.00    -0.453 OA
BRANCH  21  22
ATOM     22  C   UNL     1       6.205   5.792  26.321  0.00  0.00    +0.332 C 
ATOM     23  O   UNL     1       5.725   6.822  26.755  0.00  0.00    -0.246 OA
BRANCH  22  24
ATOM     24  C   UNL     1       7.604   5.619  25.884  0.00  0.00    +0.092 C 
ATOM     25  C   UNL     1       8.288   6.618  25.310  0.00  0.00    +0.015 C 
BRANCH  25  26
ATOM     26  C   UNL     1       9.663   6.413  24.851  0.00  0.00    -0.025 A 
ATOM     27  C   UNL     1      10.744   6.957  25.555  0.00  0.00    +0.011 A 
ATOM     28  C   UNL     1      12.053   6.724  25.121  0.00  0.00    +0.046 A 
ATOM     29  C   UNL     1      12.279   5.942  23.995  0.00  0.00    +0.117 A 
ATOM     30  C   UNL     1      11.215   5.401  23.279  0.00  0.00    +0.046 A 
ATOM     31  C   UNL     1       9.907   5.636  23.711  0.00  0.00    +0.011 A 
BRANCH  29  32
ATOM     32  O   UNL     1      13.571   5.730  23.614  0.00  0.00    -0.507 OA
ATOM     33  H   UNL     1      13.645   4.827  23.264  0.00  0.00    +0.292 HD
ENDBRANCH  29  32
ENDBRANCH  25  26
ENDBRANCH  22  24
ENDBRANCH  21  22
ENDBRANCH   7  21
BRANCH   4  34
ATOM     34  O   UNL     1       5.950   0.133  25.443  0.00  0.00    -0.452 OA
BRANCH  34  35
ATOM     35  C   UNL     1       6.100  -1.027  24.685  0.00  0.00    +0.214 A 
ATOM     36  C   UNL     1       5.089  -2.136  24.765  0.00  0.00    +0.238 A 
ATOM     37  O   UNL     1       4.073  -2.020  25.441  0.00  0.00    -0.283 OA
ATOM     38  C   UNL     1       5.373  -3.385  24.042  0.00  0.00    +0.109 A 
ATOM     39  C   UNL     1       6.493  -3.412  23.223  0.00  0.00    +0.147 A 
ATOM     40  C   UNL     1       6.802  -4.555  22.480  0.00  0.00    +0.092 A 
ATOM     41  C   UNL     1       5.979  -5.676  22.578  0.00  0.00    +0.124 A 
ATOM     42  C   UNL     1       4.865  -5.672  23.409  0.00  0.00    +0.091 A 
ATOM     43  O   UNL     1       7.352  -2.354  23.099  0.00  0.00    -0.451 OA
ATOM     44  C   UNL     1       4.564  -4.528  24.145  0.00  0.00    +0.135 A 
ATOM     45  C   UNL     1       7.176  -1.216  23.884  0.00  0.00    +0.181 A 
BRANCH  45  46
ATOM     46  C   UNL     1       8.352  -0.288  23.771  0.00  0.00    +0.025 A 
ATOM     47  C   UNL     1       9.241  -0.184  24.867  0.00  0.00    +0.015 A 
ATOM     48  C   UNL     1      10.351   0.668  24.847  0.00  0.00    +0.050 A 
ATOM     49  C   UNL     1      10.584   1.441  23.726  0.00  0.00    +0.158 A 
ATOM     50  C   UNL     1       9.741   1.353  22.628  0.00  0.00    +0.159 A 
ATOM     51  C   UNL     1       8.638   0.494  22.636  0.00  0.00    +0.060 A 
BRANCH  50  52
ATOM     52  O   UNL     1      10.039   2.140  21.544  0.00  0.00    -0.503 OA
ATOM     53  H   UNL     1       9.405   2.878  21.523  0.00  0.00    +0.292 HD
ENDBRANCH  50  52
BRANCH  49  54
ATOM     54  O   UNL     1      11.649   2.294  23.715  0.00  0.00    -0.503 OA
ATOM     55  H   UNL     1      11.540   2.816  22.894  0.00  0.00    +0.292 HD
ENDBRANCH  49  54
ENDBRANCH  45  46
BRANCH  44  56
ATOM     56  O   UNL     1       3.475  -4.551  24.971  0.00  0.00    -0.506 OA
ATOM     57  H   UNL     1       3.412  -5.409  25.422  0.00  0.00    +0.292 HD
ENDBRANCH  44  56
BRANCH  41  58
ATOM     58  O   UNL     1       6.228  -6.812  21.873  0.00  0.00    -0.507 OA
ATOM     59  H   UNL     1       6.765  -7.418  22.415  0.00  0.00    +0.292 HD
ENDBRANCH  41  58
ENDBRANCH  34  35
ENDBRANCH   4  34
TORSDOF 17
ENDMDL
