MODEL 1
REMARK VINA RESULT:      -8.4      0.000      0.000
REMARK  Name = 
REMARK  16 active torsions:
REMARK  status: ('A' for Active; 'I' for Inactive)
REMARK    1  A    between atoms: C_1  and  C_2
REMARK    2  A    between atoms: C_3  and  O_48
REMARK    3  A    between atoms: C_5  and  O_47
REMARK    4  A    between atoms: C_7  and  O_46
REMARK    5  A    between atoms: C_8  and  O_11
REMARK    6  A    between atoms: O_11  and  C_12
REMARK    7  A    between atoms: C_14  and  O_45
REMARK    8  A    between atoms: C_19  and  C_25
REMARK    9  A    between atoms: C_20  and  O_23
REMARK   10  A    between atoms: O_23  and  C_24
REMARK   11  A    between atoms: C_27  and  O_32
REMARK   12  A    between atoms: C_28  and  O_31
REMARK   13  A    between atoms: O_32  and  C_33
REMARK   14  A    between atoms: C_35  and  O_44
REMARK   15  A    between atoms: C_36  and  O_43
REMARK   16  A    between atoms: C_38  and  O_42
REMARK                            x       y       z     vdW  Elec       q    Type
REMARK                         _______ _______ _______ _____ _____    ______ ____
ROOT
ATOM      1  C   UNL     1       7.230   1.207  23.916  0.00  0.00    +0.131 A 
ATOM      2  C   UNL     1       6.489   0.026  23.856  0.00  0.00    +0.093 A 
ATOM      3  C   UNL     1       7.144  -1.218  23.889  0.00  0.00    +0.147 A 
ATOM      4  O   UNL     1       6.348  -2.338  23.889  0.00  0.00    -0.451 OA
ATOM      5  C   UNL     1       6.949  -3.582  24.002  0.00  0.00    +0.181 A 
ATOM      6  C   UNL     1       8.280  -3.810  23.991  0.00  0.00    +0.211 A 
ATOM      7  C   UNL     1       9.181  -2.613  23.879  0.00  0.00    +0.238 A 
ATOM      8  O   UNL     1      10.386  -2.724  23.719  0.00  0.00    -0.283 OA
ATOM      9  C   UNL     1       8.536  -1.283  23.932  0.00  0.00    +0.109 A 
ATOM     10  C   UNL     1       9.272  -0.090  23.993  0.00  0.00    +0.135 A 
ATOM     11  C   UNL     1       8.622   1.143  23.976  0.00  0.00    +0.092 A 
ENDROOT
BRANCH   5  12
ATOM     12  C   UNL     1       5.986  -4.699  24.078  0.00  0.00    +0.025 A 
ATOM     13  C   UNL     1       5.195  -5.007  22.967  0.00  0.00    +0.015 A 
ATOM     14  C   UNL     1       4.328  -6.099  23.003  0.00  0.00    +0.050 A 
ATOM     15  C   UNL     1       4.221  -6.881  24.150  0.00  0.00    +0.159 A 
ATOM     16  C   UNL     1       4.985  -6.596  25.288  0.00  0.00    +0.166 A 
ATOM     17  C   UNL     1       5.863  -5.495  25.233  0.00  0.00    +0.061 A 
BRANCH  15  18
ATOM     18  O   UNL     1       3.294  -7.877  24.068  0.00  0.00    -0.503 OA
ATOM     19  H   UNL     1       3.770  -8.677  23.780  0.00  0.00    +0.292 HD
ENDBRANCH  15  18
BRANCH  16  20
ATOM     20  O   UNL     1       4.944  -7.219  26.504  0.00  0.00    -0.457 OA
BRANCH  20  21
ATOM     21  C   UNL     1       5.107  -6.474  27.720  0.00  0.00    +0.339 C 
ATOM     22  O   UNL     1       5.797  -7.252  28.723  0.00  0.00    -0.337 OA
ATOM     23  C   UNL     1       6.133  -6.458  29.886  0.00  0.00    +0.198 C 
ATOM     24  C   UNL     1       4.932  -5.649  30.398  0.00  0.00    +0.171 C 
ATOM     25  C   UNL     1       3.649  -6.238  29.808  0.00  0.00    +0.180 C 
ATOM     26  C   UNL     1       3.689  -6.095  28.270  0.00  0.00    +0.214 C 
BRANCH  24  27
ATOM     27  O   UNL     1       5.077  -4.291  29.971  0.00  0.00    -0.387 OA
ATOM     28  H   UNL     1       5.999  -4.021  30.137  0.00  0.00    +0.210 HD
ENDBRANCH  24  27
BRANCH  25  29
ATOM     29  O   UNL     1       3.499  -7.618  30.186  0.00  0.00    -0.386 OA
ATOM     30  H   UNL     1       3.499  -8.153  29.358  0.00  0.00    +0.210 HD
ENDBRANCH  25  29
BRANCH  26  31
ATOM     31  O   UNL     1       2.618  -6.870  27.713  0.00  0.00    -0.383 OA
ATOM     32  H   UNL     1       1.811  -6.327  27.792  0.00  0.00    +0.210 HD
ENDBRANCH  26  31
ENDBRANCH  20  21
ENDBRANCH  16  20
ENDBRANCH   5  12
BRANCH   6  33
ATOM     33  O   UNL     1       8.753  -5.119  24.059  0.00  0.00    -0.488 OA
ATOM     34  C   UNL     1       9.437  -5.530  25.237  0.00  0.00    +0.277 C 
ENDBRANCH   6  33
BRANCH  10  35
ATOM     35  O   UNL     1      10.633  -0.105  24.098  0.00  0.00    -0.506 OA
ATOM     36  H   UNL     1      11.019  -0.770  23.507  0.00  0.00    +0.292 HD
ENDBRANCH  10  35
BRANCH   1  37
ATOM     37  O   UNL     1       6.725   2.479  23.894  0.00  0.00    -0.461 OA
BRANCH  37  41
ATOM     38  C   UNL     1      10.301   4.892  23.867  0.00  0.00    +0.041 C 
ATOM     39  C   UNL     1       8.928   5.367  24.336  0.00  0.00    +0.150 C 
ATOM     40  O   UNL     1       8.091   4.234  24.624  0.00  0.00    -0.334 OA
ATOM     41  C   UNL     1       7.611   3.525  23.477  0.00  0.00    +0.339 C 
ATOM     42  C   UNL     1       6.788   4.481  22.587  0.00  0.00    +0.214 C 
ATOM     43  C   UNL     1       7.713   5.615  22.124  0.00  0.00    +0.180 C 
ATOM     44  C   UNL     1       8.286   6.358  23.342  0.00  0.00    +0.174 C 
BRANCH  42  45
ATOM     45  O   UNL     1       5.686   5.027  23.352  0.00  0.00    -0.383 OA
ATOM     46  H   UNL     1       4.880   4.856  22.824  0.00  0.00    +0.210 HD
ENDBRANCH  42  45
BRANCH  43  47
ATOM     47  O   UNL     1       7.040   6.505  21.228  0.00  0.00    -0.386 OA
ATOM     48  H   UNL     1       6.144   6.660  21.584  0.00  0.00    +0.210 HD
ENDBRANCH  43  47
BRANCH  44  49
ATOM     49  O   UNL     1       7.247   7.107  23.993  0.00  0.00    -0.387 OA
ATOM     50  H   UNL     1       7.549   7.269  24.915  0.00  0.00    +0.210 HD
ENDBRANCH  44  49
ENDBRANCH  37  41
ENDBRANCH   1  37
TORSDOF 14
ENDMDL
MODEL 2
REMARK VINA RESULT:      -8.3      1.477      3.277
REMARK  Name = 
REMARK  16 active torsions:
REMARK  status: ('A' for Active; 'I' for Inactive)
REMARK    1  A    between atoms: C_1  and  C_2
REMARK    2  A    between atoms: C_3  and  O_48
REMARK    3  A    between atoms: C_5  and  O_47
REMARK    4  A    between atoms: C_7  and  O_46
REMARK    5  A    between atoms: C_8  and  O_11
REMARK    6  A    between atoms: O_11  and  C_12
REMARK    7  A    between atoms: C_14  and  O_45
REMARK    8  A    between atoms: C_19  and  C_25
REMARK    9  A    between atoms: C_20  and  O_23
REMARK   10  A    between atoms: O_23  and  C_24
REMARK   11  A    between atoms: C_27  and  O_32
REMARK   12  A    between atoms: C_28  and  O_31
REMARK   13  A    between atoms: O_32  and  C_33
REMARK   14  A    between atoms: C_35  and  O_44
REMARK   15  A    between atoms: C_36  and  O_43
REMARK   16  A    between atoms: C_38  and  O_42
REMARK                            x       y       z     vdW  Elec       q    Type
REMARK                         _______ _______ _______ _____ _____    ______ ____
ROOT
ATOM      1  C   UNL     1       7.165   1.248  23.407  0.00  0.00    +0.131 A 
ATOM      2  C   UNL     1       6.555   0.076  23.858  0.00  0.00    +0.093 A 
ATOM      3  C   UNL     1       7.298  -1.115  23.942  0.00  0.00    +0.147 A 
ATOM      4  O   UNL     1       6.650  -2.214  24.453  0.00  0.00    -0.451 OA
ATOM      5  C   UNL     1       7.367  -3.387  24.628  0.00  0.00    +0.181 A 
ATOM      6  C   UNL     1       8.638  -3.594  24.224  0.00  0.00    +0.211 A 
ATOM      7  C   UNL     1       9.342  -2.445  23.559  0.00  0.00    +0.238 A 
ATOM      8  O   UNL     1      10.436  -2.574  23.034  0.00  0.00    -0.283 OA
ATOM      9  C   UNL     1       8.629  -1.150  23.531  0.00  0.00    +0.109 A 
ATOM     10  C   UNL     1       9.233   0.034  23.080  0.00  0.00    +0.135 A 
ATOM     11  C   UNL     1       8.502   1.219  23.011  0.00  0.00    +0.092 A 
ENDROOT
BRANCH   5  12
ATOM     12  C   UNL     1       6.585  -4.468  25.263  0.00  0.00    +0.025 A 
ATOM     13  C   UNL     1       6.534  -4.557  26.658  0.00  0.00    +0.015 A 
ATOM     14  C   UNL     1       5.748  -5.532  27.271  0.00  0.00    +0.050 A 
ATOM     15  C   UNL     1       5.026  -6.444  26.507  0.00  0.00    +0.159 A 
ATOM     16  C   UNL     1       5.064  -6.399  25.108  0.00  0.00    +0.166 A 
ATOM     17  C   UNL     1       5.855  -5.401  24.502  0.00  0.00    +0.061 A 
BRANCH  15  18
ATOM     18  O   UNL     1       4.351  -7.379  27.234  0.00  0.00    -0.503 OA
ATOM     19  H   UNL     1       4.790  -8.233  27.065  0.00  0.00    +0.292 HD
ENDBRANCH  15  18
BRANCH  16  20
ATOM     20  O   UNL     1       4.472  -7.257  24.223  0.00  0.00    -0.457 OA
BRANCH  20  21
ATOM     21  C   UNL     1       3.187  -6.962  23.658  0.00  0.00    +0.339 C 
ATOM     22  O   UNL     1       2.683  -5.695  24.137  0.00  0.00    -0.337 OA
ATOM     23  C   UNL     1       1.480  -5.294  23.440  0.00  0.00    +0.198 C 
ATOM     24  C   UNL     1       0.445  -6.427  23.377  0.00  0.00    +0.171 C 
ATOM     25  C   UNL     1       0.803  -7.486  24.423  0.00  0.00    +0.180 C 
ATOM     26  C   UNL     1       2.182  -8.090  24.077  0.00  0.00    +0.214 C 
BRANCH  24  27
ATOM     27  O   UNL     1       0.482  -7.012  22.071  0.00  0.00    -0.387 OA
ATOM     28  H   UNL     1       1.196  -7.676  22.060  0.00  0.00    +0.210 HD
ENDBRANCH  24  27
BRANCH  25  29
ATOM     29  O   UNL     1       0.815  -6.915  25.744  0.00  0.00    -0.386 OA
ATOM     30  H   UNL     1       1.592  -6.310  25.797  0.00  0.00    +0.210 HD
ENDBRANCH  25  29
BRANCH  26  31
ATOM     31  O   UNL     1       2.623  -8.884  25.188  0.00  0.00    -0.383 OA
ATOM     32  H   UNL     1       3.391  -8.422  25.573  0.00  0.00    +0.210 HD
ENDBRANCH  26  31
ENDBRANCH  20  21
ENDBRANCH  16  20
ENDBRANCH   5  12
BRANCH   6  33
ATOM     33  O   UNL     1       9.226  -4.842  24.415  0.00  0.00    -0.488 OA
ATOM     34  C   UNL     1      10.047  -5.035  25.561  0.00  0.00    +0.277 C 
ENDBRANCH   6  33
BRANCH  10  35
ATOM     35  O   UNL     1      10.551   0.064  22.726  0.00  0.00    -0.506 OA
ATOM     36  H   UNL     1      10.877  -0.829  22.531  0.00  0.00    +0.292 HD
ENDBRANCH  10  35
BRANCH   1  37
ATOM     37  O   UNL     1       6.565   2.471  23.278  0.00  0.00    -0.461 OA
BRANCH  37  41
ATOM     38  C   UNL     1       9.907   5.066  24.122  0.00  0.00    +0.041 C 
ATOM     39  C   UNL     1       8.444   5.405  24.398  0.00  0.00    +0.150 C 
ATOM     40  O   UNL     1       7.658   4.201  24.415  0.00  0.00    -0.334 OA
ATOM     41  C   UNL     1       7.427   3.607  23.134  0.00  0.00    +0.339 C 
ATOM     42  C   UNL     1       6.691   4.615  22.223  0.00  0.00    +0.214 C 
ATOM     43  C   UNL     1       7.592   5.846  22.051  0.00  0.00    +0.180 C 
ATOM     44  C   UNL     1       7.901   6.469  23.422  0.00  0.00    +0.174 C 
BRANCH  42  45
ATOM     45  O   UNL     1       5.442   5.004  22.844  0.00  0.00    -0.383 OA
ATOM     46  H   UNL     1       5.011   4.172  23.127  0.00  0.00    +0.210 HD
ENDBRANCH  42  45
BRANCH  43  47
ATOM     47  O   UNL     1       7.010   6.796  21.154  0.00  0.00    -0.386 OA
ATOM     48  H   UNL     1       6.324   7.286  21.648  0.00  0.00    +0.210 HD
ENDBRANCH  43  47
BRANCH  44  49
ATOM     49  O   UNL     1       6.717   7.077  23.963  0.00  0.00    -0.387 OA
ATOM     50  H   UNL     1       5.966   6.483  23.740  0.00  0.00    +0.210 HD
ENDBRANCH  44  49
ENDBRANCH  37  41
ENDBRANCH   1  37
TORSDOF 14
ENDMDL
MODEL 3
REMARK VINA RESULT:      -7.8      2.493     10.354
REMARK  Name = 
REMARK  16 active torsions:
REMARK  status: ('A' for Active; 'I' for Inactive)
REMARK    1  A    between atoms: C_1  and  C_2
REMARK    2  A    between atoms: C_3  and  O_48
REMARK    3  A    between atoms: C_5  and  O_47
REMARK    4  A    between atoms: C_7  and  O_46
REMARK    5  A    between atoms: C_8  and  O_11
REMARK    6  A    between atoms: O_11  and  C_12
REMARK    7  A    between atoms: C_14  and  O_45
REMARK    8  A    between atoms: C_19  and  C_25
REMARK    9  A    between atoms: C_20  and  O_23
REMARK   10  A    between atoms: O_23  and  C_24
REMARK   11  A    between atoms: C_27  and  O_32
REMARK   12  A    between atoms: C_28  and  O_31
REMARK   13  A    between atoms: O_32  and  C_33
REMARK   14  A    between atoms: C_35  and  O_44
REMARK   15  A    between atoms: C_36  and  O_43
REMARK   16  A    between atoms: C_38  and  O_42
REMARK                            x       y       z     vdW  Elec       q    Type
REMARK                         _______ _______ _______ _____ _____    ______ ____
ROOT
ATOM      1  C   UNL     1       5.228  -4.888  22.767  0.00  0.00    +0.131 A 
ATOM      2  C   UNL     1       5.310  -3.494  22.741  0.00  0.00    +0.093 A 
ATOM      3  C   UNL     1       6.532  -2.857  23.023  0.00  0.00    +0.147 A 
ATOM      4  O   UNL     1       6.555  -1.487  22.918  0.00  0.00    -0.451 OA
ATOM      5  C   UNL     1       7.758  -0.825  23.108  0.00  0.00    +0.181 A 
ATOM      6  C   UNL     1       8.910  -1.400  23.513  0.00  0.00    +0.211 A 
ATOM      7  C   UNL     1       8.893  -2.883  23.746  0.00  0.00    +0.238 A 
ATOM      8  O   UNL     1       9.839  -3.471  24.246  0.00  0.00    -0.283 OA
ATOM      9  C   UNL     1       7.655  -3.604  23.376  0.00  0.00    +0.109 A 
ATOM     10  C   UNL     1       7.561  -5.004  23.398  0.00  0.00    +0.135 A 
ATOM     11  C   UNL     1       6.355  -5.637  23.104  0.00  0.00    +0.092 A 
ENDROOT
BRANCH   5  12
ATOM     12  C   UNL     1       7.672   0.633  22.885  0.00  0.00    +0.025 A 
ATOM     13  C   UNL     1       8.412   1.219  21.854  0.00  0.00    +0.015 A 
ATOM     14  C   UNL     1       8.291   2.583  21.590  0.00  0.00    +0.050 A 
ATOM     15  C   UNL     1       7.453   3.383  22.362  0.00  0.00    +0.159 A 
ATOM     16  C   UNL     1       6.707   2.836  23.413  0.00  0.00    +0.166 A 
ATOM     17  C   UNL     1       6.832   1.454  23.662  0.00  0.00    +0.061 A 
BRANCH  15  18
ATOM     18  O   UNL     1       7.476   4.705  22.034  0.00  0.00    -0.503 OA
ATOM     19  H   UNL     1       7.278   4.759  21.082  0.00  0.00    +0.292 HD
ENDBRANCH  15  18
BRANCH  16  20
ATOM     20  O   UNL     1       5.899   3.493  24.300  0.00  0.00    -0.457 OA
BRANCH  20  21
ATOM     21  C   UNL     1       4.667   4.090  23.871  0.00  0.00    +0.339 C 
ATOM     22  O   UNL     1       4.421   3.833  22.470  0.00  0.00    -0.337 OA
ATOM     23  C   UNL     1       3.101   4.267  22.065  0.00  0.00    +0.198 C 
ATOM     24  C   UNL     1       2.796   5.699  22.530  0.00  0.00    +0.171 C 
ATOM     25  C   UNL     1       4.111   6.391  22.901  0.00  0.00    +0.180 C 
ATOM     26  C   UNL     1       4.759   5.640  24.085  0.00  0.00    +0.214 C 
BRANCH  24  27
ATOM     27  O   UNL     1       1.946   5.638  23.679  0.00  0.00    -0.387 OA
ATOM     28  H   UNL     1       2.506   5.725  24.473  0.00  0.00    +0.210 HD
ENDBRANCH  24  27
BRANCH  25  29
ATOM     29  O   UNL     1       5.004   6.428  21.773  0.00  0.00    -0.386 OA
ATOM     30  H   UNL     1       4.600   5.881  21.058  0.00  0.00    +0.210 HD
ENDBRANCH  25  29
BRANCH  26  31
ATOM     31  O   UNL     1       6.096   6.130  24.257  0.00  0.00    -0.383 OA
ATOM     32  H   UNL     1       6.154   6.467  25.171  0.00  0.00    +0.210 HD
ENDBRANCH  26  31
ENDBRANCH  20  21
ENDBRANCH  16  20
ENDBRANCH   5  12
BRANCH   6  33
ATOM     33  O   UNL     1      10.038  -0.608  23.717  0.00  0.00    -0.488 OA
ATOM     34  C   UNL     1      10.240  -0.037  25.006  0.00  0.00    +0.277 C 
ENDBRANCH   6  33
BRANCH  10  35
ATOM     35  O   UNL     1       8.649  -5.779  23.679  0.00  0.00    -0.506 OA
ATOM     36  H   UNL     1       9.427  -5.477  23.184  0.00  0.00    +0.292 HD
ENDBRANCH  10  35
BRANCH   1  37
ATOM     37  O   UNL     1       4.110  -5.634  22.513  0.00  0.00    -0.461 OA
BRANCH  37  41
ATOM     38  C   UNL     1       1.781  -4.013  25.763  0.00  0.00    +0.041 C 
ATOM     39  C   UNL     1       2.634  -5.276  25.844  0.00  0.00    +0.150 C 
ATOM     40  O   UNL     1       3.591  -5.288  24.770  0.00  0.00    -0.334 OA
ATOM     41  C   UNL     1       3.049  -5.565  23.475  0.00  0.00    +0.339 C 
ATOM     42  C   UNL     1       2.366  -6.950  23.487  0.00  0.00    +0.214 C 
ATOM     43  C   UNL     1       1.223  -6.908  24.511  0.00  0.00    +0.180 C 
ATOM     44  C   UNL     1       1.775  -6.555  25.903  0.00  0.00    +0.174 C 
BRANCH  42  45
ATOM     45  O   UNL     1       3.330  -7.961  23.870  0.00  0.00    -0.383 OA
ATOM     46  H   UNL     1       4.203  -7.520  23.856  0.00  0.00    +0.210 HD
ENDBRANCH  42  45
BRANCH  43  47
ATOM     47  O   UNL     1       0.490  -8.136  24.526  0.00  0.00    -0.386 OA
ATOM     48  H   UNL     1       0.869  -8.698  25.229  0.00  0.00    +0.210 HD
ENDBRANCH  43  47
BRANCH  44  49
ATOM     49  O   UNL     1       2.552  -7.650  26.414  0.00  0.00    -0.387 OA
ATOM     50  H   UNL     1       3.138  -7.281  27.112  0.00  0.00    +0.210 HD
ENDBRANCH  44  49
ENDBRANCH  37  41
ENDBRANCH   1  37
TORSDOF 14
ENDMDL
MODEL 4
REMARK VINA RESULT:      -7.6      2.198     10.310
REMARK  Name = 
REMARK  16 active torsions:
REMARK  status: ('A' for Active; 'I' for Inactive)
REMARK    1  A    between atoms: C_1  and  C_2
REMARK    2  A    between atoms: C_3  and  O_48
REMARK    3  A    between atoms: C_5  and  O_47
REMARK    4  A    between atoms: C_7  and  O_46
REMARK    5  A    between atoms: C_8  and  O_11
REMARK    6  A    between atoms: O_11  and  C_12
REMARK    7  A    between atoms: C_14  and  O_45
REMARK    8  A    between atoms: C_19  and  C_25
REMARK    9  A    between atoms: C_20  and  O_23
REMARK   10  A    between atoms: O_23  and  C_24
REMARK   11  A    between atoms: C_27  and  O_32
REMARK   12  A    between atoms: C_28  and  O_31
REMARK   13  A    between atoms: O_32  and  C_33
REMARK   14  A    between atoms: C_35  and  O_44
REMARK   15  A    between atoms: C_36  and  O_43
REMARK   16  A    between atoms: C_38  and  O_42
REMARK                            x       y       z     vdW  Elec       q    Type
REMARK                         _______ _______ _______ _____ _____    ______ ____
ROOT
ATOM      1  C   UNL     1       7.184  -4.169  26.976  0.00  0.00    +0.131 A 
ATOM      2  C   UNL     1       7.127  -2.793  26.744  0.00  0.00    +0.093 A 
ATOM      3  C   UNL     1       7.908  -2.220  25.724  0.00  0.00    +0.147 A 
ATOM      4  O   UNL     1       7.754  -0.871  25.511  0.00  0.00    -0.451 OA
ATOM      5  C   UNL     1       8.444  -0.280  24.464  0.00  0.00    +0.181 A 
ATOM      6  C   UNL     1       9.365  -0.894  23.690  0.00  0.00    +0.211 A 
ATOM      7  C   UNL     1       9.640  -2.344  23.969  0.00  0.00    +0.238 A 
ATOM      8  O   UNL     1      10.550  -2.946  23.422  0.00  0.00    -0.283 OA
ATOM      9  C   UNL     1       8.778  -3.007  24.972  0.00  0.00    +0.109 A 
ATOM     10  C   UNL     1       8.827  -4.388  25.213  0.00  0.00    +0.135 A 
ATOM     11  C   UNL     1       8.042  -4.960  26.213  0.00  0.00    +0.092 A 
ENDROOT
BRANCH   5  12
ATOM     12  C   UNL     1       8.131   1.152  24.283  0.00  0.00    +0.025 A 
ATOM     13  C   UNL     1       8.872   2.115  24.974  0.00  0.00    +0.015 A 
ATOM     14  C   UNL     1       8.630   3.472  24.763  0.00  0.00    +0.050 A 
ATOM     15  C   UNL     1       7.633   3.886  23.884  0.00  0.00    +0.159 A 
ATOM     16  C   UNL     1       6.859   2.952  23.184  0.00  0.00    +0.166 A 
ATOM     17  C   UNL     1       7.122   1.584  23.400  0.00  0.00    +0.061 A 
BRANCH  15  18
ATOM     18  O   UNL     1       7.464   5.237  23.819  0.00  0.00    -0.503 OA
ATOM     19  H   UNL     1       7.488   5.564  24.737  0.00  0.00    +0.292 HD
ENDBRANCH  15  18
BRANCH  16  20
ATOM     20  O   UNL     1       5.807   3.194  22.345  0.00  0.00    -0.457 OA
BRANCH  20  21
ATOM     21  C   UNL     1       4.518   3.550  22.865  0.00  0.00    +0.339 C 
ATOM     22  O   UNL     1       3.456   2.986  22.063  0.00  0.00    -0.337 OA
ATOM     23  C   UNL     1       2.158   3.179  22.674  0.00  0.00    +0.198 C 
ATOM     24  C   UNL     1       1.939   4.632  23.119  0.00  0.00    +0.171 C 
ATOM     25  C   UNL     1       2.959   5.527  22.410  0.00  0.00    +0.180 C 
ATOM     26  C   UNL     1       4.382   5.112  22.846  0.00  0.00    +0.214 C 
BRANCH  24  27
ATOM     27  O   UNL     1       2.131   4.714  24.534  0.00  0.00    -0.387 OA
ATOM     28  H   UNL     1       2.231   5.654  24.770  0.00  0.00    +0.210 HD
ENDBRANCH  24  27
BRANCH  25  29
ATOM     29  O   UNL     1       2.817   5.431  20.982  0.00  0.00    -0.386 OA
ATOM     30  H   UNL     1       3.299   4.622  20.690  0.00  0.00    +0.210 HD
ENDBRANCH  25  29
BRANCH  26  31
ATOM     31  O   UNL     1       5.329   5.772  21.994  0.00  0.00    -0.383 OA
ATOM     32  H   UNL     1       5.445   6.672  22.351  0.00  0.00    +0.210 HD
ENDBRANCH  26  31
ENDBRANCH  20  21
ENDBRANCH  16  20
ENDBRANCH   5  12
BRANCH   6  33
ATOM     33  O   UNL     1      10.025  -0.167  22.701  0.00  0.00    -0.488 OA
ATOM     34  C   UNL     1       9.526  -0.228  21.370  0.00  0.00    +0.277 C 
ENDBRANCH   6  33
BRANCH  10  35
ATOM     35  O   UNL     1       9.618  -5.209  24.461  0.00  0.00    -0.506 OA
ATOM     36  H   UNL     1      10.065  -4.710  23.759  0.00  0.00    +0.292 HD
ENDBRANCH  10  35
BRANCH   1  37
ATOM     37  O   UNL     1       6.482  -4.855  27.929  0.00  0.00    -0.461 OA
BRANCH  37  41
ATOM     38  C   UNL     1       2.252  -4.062  28.235  0.00  0.00    +0.041 C 
ATOM     39  C   UNL     1       2.963  -5.264  28.850  0.00  0.00    +0.150 C 
ATOM     40  O   UNL     1       4.375  -5.003  28.939  0.00  0.00    -0.334 OA
ATOM     41  C   UNL     1       5.080  -5.043  27.695  0.00  0.00    +0.339 C 
ATOM     42  C   UNL     1       4.917  -6.439  27.053  0.00  0.00    +0.214 C 
ATOM     43  C   UNL     1       3.422  -6.670  26.790  0.00  0.00    +0.180 C 
ATOM     44  C   UNL     1       2.635  -6.576  28.108  0.00  0.00    +0.174 C 
BRANCH  42  45
ATOM     45  O   UNL     1       5.418  -7.450  27.962  0.00  0.00    -0.383 OA
ATOM     46  H   UNL     1       6.345  -7.615  27.696  0.00  0.00    +0.210 HD
ENDBRANCH  42  45
BRANCH  43  47
ATOM     47  O   UNL     1       3.196  -7.915  26.124  0.00  0.00    -0.386 OA
ATOM     48  H   UNL     1       2.384  -8.307  26.499  0.00  0.00    +0.210 HD
ENDBRANCH  43  47
BRANCH  44  49
ATOM     49  O   UNL     1       2.938  -7.705  28.942  0.00  0.00    -0.387 OA
ATOM     50  H   UNL     1       2.484  -7.554  29.801  0.00  0.00    +0.210 HD
ENDBRANCH  44  49
ENDBRANCH  37  41
ENDBRANCH   1  37
TORSDOF 14
ENDMDL
MODEL 5
REMARK VINA RESULT:      -7.6      1.722      3.513
REMARK  Name = 
REMARK  16 active torsions:
REMARK  status: ('A' for Active; 'I' for Inactive)
REMARK    1  A    between atoms: C_1  and  C_2
REMARK    2  A    between atoms: C_3  and  O_48
REMARK    3  A    between atoms: C_5  and  O_47
REMARK    4  A    between atoms: C_7  and  O_46
REMARK    5  A    between atoms: C_8  and  O_11
REMARK    6  A    between atoms: O_11  and  C_12
REMARK    7  A    between atoms: C_14  and  O_45
REMARK    8  A    between atoms: C_19  and  C_25
REMARK    9  A    between atoms: C_20  and  O_23
REMARK   10  A    between atoms: O_23  and  C_24
REMARK   11  A    between atoms: C_27  and  O_32
REMARK   12  A    between atoms: C_28  and  O_31
REMARK   13  A    between atoms: O_32  and  C_33
REMARK   14  A    between atoms: C_35  and  O_44
REMARK   15  A    between atoms: C_36  and  O_43
REMARK   16  A    between atoms: C_38  and  O_42
REMARK                            x       y       z     vdW  Elec       q    Type
REMARK                         _______ _______ _______ _____ _____    ______ ____
ROOT
ATOM      1  C   UNL     1       8.384   1.514  24.938  0.00  0.00    +0.131 A 
ATOM      2  C   UNL     1       7.728   0.399  25.464  0.00  0.00    +0.093 A 
ATOM      3  C   UNL     1       7.911  -0.866  24.876  0.00  0.00    +0.147 A 
ATOM      4  O   UNL     1       7.283  -1.927  25.483  0.00  0.00    -0.451 OA
ATOM      5  C   UNL     1       7.502  -3.202  24.985  0.00  0.00    +0.181 A 
ATOM      6  C   UNL     1       8.192  -3.495  23.862  0.00  0.00    +0.211 A 
ATOM      7  C   UNL     1       8.799  -2.345  23.110  0.00  0.00    +0.238 A 
ATOM      8  O   UNL     1       9.317  -2.491  22.015  0.00  0.00    -0.283 OA
ATOM      9  C   UNL     1       8.706  -1.010  23.741  0.00  0.00    +0.109 A 
ATOM     10  C   UNL     1       9.362   0.116  23.221  0.00  0.00    +0.135 A 
ATOM     11  C   UNL     1       9.193   1.368  23.812  0.00  0.00    +0.092 A 
ENDROOT
BRANCH   5  12
ATOM     12  C   UNL     1       6.844  -4.265  25.772  0.00  0.00    +0.025 A 
ATOM     13  C   UNL     1       7.592  -5.012  26.687  0.00  0.00    +0.015 A 
ATOM     14  C   UNL     1       6.972  -5.974  27.483  0.00  0.00    +0.050 A 
ATOM     15  C   UNL     1       5.607  -6.221  27.362  0.00  0.00    +0.159 A 
ATOM     16  C   UNL     1       4.826  -5.505  26.447  0.00  0.00    +0.166 A 
ATOM     17  C   UNL     1       5.465  -4.529  25.656  0.00  0.00    +0.061 A 
BRANCH  15  18
ATOM     18  O   UNL     1       5.143  -7.226  28.156  0.00  0.00    -0.503 OA
ATOM     19  H   UNL     1       5.882  -7.852  28.274  0.00  0.00    +0.292 HD
ENDBRANCH  15  18
BRANCH  16  20
ATOM     20  O   UNL     1       3.499  -5.675  26.162  0.00  0.00    -0.457 OA
BRANCH  20  21
ATOM     21  C   UNL     1       3.062  -5.936  24.820  0.00  0.00    +0.339 C 
ATOM     22  O   UNL     1       1.711  -5.470  24.609  0.00  0.00    -0.337 OA
ATOM     23  C   UNL     1       1.320  -5.557  23.218  0.00  0.00    +0.198 C 
ATOM     24  C   UNL     1       1.639  -6.933  22.614  0.00  0.00    +0.171 C 
ATOM     25  C   UNL     1       1.873  -7.932  23.750  0.00  0.00    +0.180 C 
ATOM     26  C   UNL     1       3.102  -7.483  24.571  0.00  0.00    +0.214 C 
BRANCH  24  27
ATOM     27  O   UNL     1       2.825  -6.823  21.821  0.00  0.00    -0.387 OA
ATOM     28  H   UNL     1       3.409  -6.166  22.243  0.00  0.00    +0.210 HD
ENDBRANCH  24  27
BRANCH  25  29
ATOM     29  O   UNL     1       0.709  -8.031  24.591  0.00  0.00    -0.386 OA
ATOM     30  H   UNL     1      -0.014  -8.427  24.049  0.00  0.00    +0.210 HD
ENDBRANCH  25  29
BRANCH  26  31
ATOM     31  O   UNL     1       3.159  -8.268  25.771  0.00  0.00    -0.383 OA
ATOM     32  H   UNL     1       2.666  -7.773  26.452  0.00  0.00    +0.210 HD
ENDBRANCH  26  31
ENDBRANCH  20  21
ENDBRANCH  16  20
ENDBRANCH   5  12
BRANCH   6  33
ATOM     33  O   UNL     1       8.292  -4.820  23.442  0.00  0.00    -0.488 OA
ATOM     34  C   UNL     1       7.359  -5.295  22.478  0.00  0.00    +0.277 C 
ENDBRANCH   6  33
BRANCH  10  35
ATOM     35  O   UNL     1      10.199   0.014  22.148  0.00  0.00    -0.506 OA
ATOM     36  H   UNL     1      10.188  -0.886  21.785  0.00  0.00    +0.292 HD
ENDBRANCH  10  35
BRANCH   1  37
ATOM     37  O   UNL     1       8.298   2.795  25.409  0.00  0.00    -0.461 OA
BRANCH  37  41
ATOM     38  C   UNL     1      10.616   6.001  23.689  0.00  0.00    +0.041 C 
ATOM     39  C   UNL     1       9.286   6.177  24.416  0.00  0.00    +0.150 C 
ATOM     40  O   UNL     1       9.013   5.017  25.221  0.00  0.00    -0.334 OA
ATOM     41  C   UNL     1       8.624   3.848  24.493  0.00  0.00    +0.339 C 
ATOM     42  C   UNL     1       7.343   4.148  23.683  0.00  0.00    +0.214 C 
ATOM     43  C   UNL     1       7.661   5.276  22.691  0.00  0.00    +0.180 C 
ATOM     44  C   UNL     1       8.136   6.526  23.448  0.00  0.00    +0.174 C 
BRANCH  42  45
ATOM     45  O   UNL     1       6.289   4.569  24.583  0.00  0.00    -0.383 OA
ATOM     46  H   UNL     1       6.539   4.232  25.467  0.00  0.00    +0.210 HD
ENDBRANCH  42  45
BRANCH  43  47
ATOM     47  O   UNL     1       6.541   5.560  21.847  0.00  0.00    -0.386 OA
ATOM     48  H   UNL     1       6.219   4.710  21.487  0.00  0.00    +0.210 HD
ENDBRANCH  43  47
BRANCH  44  49
ATOM     49  O   UNL     1       7.040   7.107  24.172  0.00  0.00    -0.387 OA
ATOM     50  H   UNL     1       6.721   6.423  24.802  0.00  0.00    +0.210 HD
ENDBRANCH  44  49
ENDBRANCH  37  41
ENDBRANCH   1  37
TORSDOF 14
ENDMDL
MODEL 6
REMARK VINA RESULT:      -7.3      1.782      2.231
REMARK  Name = 
REMARK  16 active torsions:
REMARK  status: ('A' for Active; 'I' for Inactive)
REMARK    1  A    between atoms: C_1  and  C_2
REMARK    2  A    between atoms: C_3  and  O_48
REMARK    3  A    between atoms: C_5  and  O_47
REMARK    4  A    between atoms: C_7  and  O_46
REMARK    5  A    between atoms: C_8  and  O_11
REMARK    6  A    between atoms: O_11  and  C_12
REMARK    7  A    between atoms: C_14  and  O_45
REMARK    8  A    between atoms: C_19  and  C_25
REMARK    9  A    between atoms: C_20  and  O_23
REMARK   10  A    between atoms: O_23  and  C_24
REMARK   11  A    between atoms: C_27  and  O_32
REMARK   12  A    between atoms: C_28  and  O_31
REMARK   13  A    between atoms: O_32  and  C_33
REMARK   14  A    between atoms: C_35  and  O_44
REMARK   15  A    between atoms: C_36  and  O_43
REMARK   16  A    between atoms: C_38  and  O_42
REMARK                            x       y       z     vdW  Elec       q    Type
REMARK                         _______ _______ _______ _____ _____    ______ ____
ROOT
ATOM      1  C   UNL     1       7.344   1.190  22.859  0.00  0.00    +0.131 A 
ATOM      2  C   UNL     1       6.636  -0.009  22.964  0.00  0.00    +0.093 A 
ATOM      3  C   UNL     1       7.318  -1.204  23.256  0.00  0.00    +0.147 A 
ATOM      4  O   UNL     1       6.550  -2.334  23.406  0.00  0.00    -0.451 OA
ATOM      5  C   UNL     1       7.172  -3.517  23.773  0.00  0.00    +0.181 A 
ATOM      6  C   UNL     1       8.505  -3.697  23.885  0.00  0.00    +0.211 A 
ATOM      7  C   UNL     1       9.383  -2.507  23.618  0.00  0.00    +0.238 A 
ATOM      8  O   UNL     1      10.598  -2.602  23.555  0.00  0.00    -0.283 OA
ATOM      9  C   UNL     1       8.704  -1.212  23.396  0.00  0.00    +0.109 A 
ATOM     10  C   UNL     1       9.406  -0.001  23.290  0.00  0.00    +0.135 A 
ATOM     11  C   UNL     1       8.730   1.186  23.015  0.00  0.00    +0.092 A 
ENDROOT
BRANCH   5  12
ATOM     12  C   UNL     1       6.233  -4.637  23.986  0.00  0.00    +0.025 A 
ATOM     13  C   UNL     1       5.421  -5.069  22.934  0.00  0.00    +0.015 A 
ATOM     14  C   UNL     1       4.577  -6.167  23.102  0.00  0.00    +0.050 A 
ATOM     15  C   UNL     1       4.512  -6.830  24.324  0.00  0.00    +0.159 A 
ATOM     16  C   UNL     1       5.298  -6.418  25.407  0.00  0.00    +0.166 A 
ATOM     17  C   UNL     1       6.154  -5.314  25.219  0.00  0.00    +0.061 A 
BRANCH  15  18
ATOM     18  O   UNL     1       3.604  -7.845  24.367  0.00  0.00    -0.503 OA
ATOM     19  H   UNL     1       3.492  -8.158  23.451  0.00  0.00    +0.292 HD
ENDBRANCH  15  18
BRANCH  16  20
ATOM     20  O   UNL     1       5.299  -6.916  26.681  0.00  0.00    -0.457 OA
BRANCH  20  21
ATOM     21  C   UNL     1       4.911  -6.096  27.792  0.00  0.00    +0.339 C 
ATOM     22  O   UNL     1       5.612  -6.480  28.997  0.00  0.00    -0.337 OA
ATOM     23  C   UNL     1       5.373  -5.550  30.080  0.00  0.00    +0.198 C 
ATOM     24  C   UNL     1       3.878  -5.249  30.262  0.00  0.00    +0.171 C 
ATOM     25  C   UNL     1       3.063  -6.328  29.546  0.00  0.00    +0.180 C 
ATOM     26  C   UNL     1       3.372  -6.272  28.033  0.00  0.00    +0.214 C 
BRANCH  24  27
ATOM     27  O   UNL     1       3.594  -3.970  29.685  0.00  0.00    -0.387 OA
ATOM     28  H   UNL     1       2.882  -3.557  30.207  0.00  0.00    +0.210 HD
ENDBRANCH  24  27
BRANCH  25  29
ATOM     29  O   UNL     1       3.362  -7.631  30.078  0.00  0.00    -0.386 OA
ATOM     30  H   UNL     1       4.280  -7.860  29.800  0.00  0.00    +0.210 HD
ENDBRANCH  25  29
BRANCH  26  31
ATOM     31  O   UNL     1       2.811  -7.437  27.411  0.00  0.00    -0.383 OA
ATOM     32  H   UNL     1       2.615  -8.068  28.128  0.00  0.00    +0.210 HD
ENDBRANCH  26  31
ENDBRANCH  20  21
ENDBRANCH  16  20
ENDBRANCH   5  12
BRANCH   6  33
ATOM     33  O   UNL     1       9.004  -4.956  24.212  0.00  0.00    -0.488 OA
ATOM     34  C   UNL     1       9.728  -5.101  25.429  0.00  0.00    +0.277 C 
ENDBRANCH   6  33
BRANCH  10  35
ATOM     35  O   UNL     1      10.757   0.051  23.479  0.00  0.00    -0.506 OA
ATOM     36  H   UNL     1      11.175   0.640  22.831  0.00  0.00    +0.292 HD
ENDBRANCH  10  35
BRANCH   1  37
ATOM     37  O   UNL     1       6.810   2.419  22.582  0.00  0.00    -0.461 OA
BRANCH  37  41
ATOM     38  C   UNL     1       5.938   3.509  26.664  0.00  0.00    +0.041 C 
ATOM     39  C   UNL     1       5.013   2.701  25.757  0.00  0.00    +0.150 C 
ATOM     40  O   UNL     1       5.762   2.154  24.658  0.00  0.00    -0.334 OA
ATOM     41  C   UNL     1       6.151   3.100  23.657  0.00  0.00    +0.339 C 
ATOM     42  C   UNL     1       4.892   3.766  23.059  0.00  0.00    +0.214 C 
ATOM     43  C   UNL     1       4.162   4.505  24.190  0.00  0.00    +0.180 C 
ATOM     44  C   UNL     1       3.783   3.517  25.306  0.00  0.00    +0.174 C 
BRANCH  42  45
ATOM     45  O   UNL     1       4.027   2.749  22.499  0.00  0.00    -0.383 OA
ATOM     46  H   UNL     1       4.532   2.338  21.769  0.00  0.00    +0.210 HD
ENDBRANCH  42  45
BRANCH  43  47
ATOM     47  O   UNL     1       3.022   5.214  23.699  0.00  0.00    -0.386 OA
ATOM     48  H   UNL     1       2.492   4.590  23.167  0.00  0.00    +0.210 HD
ENDBRANCH  43  47
BRANCH  44  49
ATOM     49  O   UNL     1       2.746   2.635  24.849  0.00  0.00    -0.387 OA
ATOM     50  H   UNL     1       3.095   2.172  24.055  0.00  0.00    +0.210 HD
ENDBRANCH  44  49
ENDBRANCH  37  41
ENDBRANCH   1  37
TORSDOF 14
ENDMDL
MODEL 7
REMARK VINA RESULT:      -7.3      2.409     10.723
REMARK  Name = 
REMARK  16 active torsions:
REMARK  status: ('A' for Active; 'I' for Inactive)
REMARK    1  A    between atoms: C_1  and  C_2
REMARK    2  A    between atoms: C_3  and  O_48
REMARK    3  A    between atoms: C_5  and  O_47
REMARK    4  A    between atoms: C_7  and  O_46
REMARK    5  A    between atoms: C_8  and  O_11
REMARK    6  A    between atoms: O_11  and  C_12
REMARK    7  A    between atoms: C_14  and  O_45
REMARK    8  A    between atoms: C_19  and  C_25
REMARK    9  A    between atoms: C_20  and  O_23
REMARK   10  A    between atoms: O_23  and  C_24
REMARK   11  A    between atoms: C_27  and  O_32
REMARK   12  A    between atoms: C_28  and  O_31
REMARK   13  A    between atoms: O_32  and  C_33
REMARK   14  A    between atoms: C_35  and  O_44
REMARK   15  A    between atoms: C_36  and  O_43
REMARK   16  A    between atoms: C_38  and  O_42
REMARK                            x       y       z     vdW  Elec       q    Type
REMARK                         _______ _______ _______ _____ _____    ______ ____
ROOT
ATOM      1  C   UNL     1       5.052  -5.239  25.230  0.00  0.00    +0.131 A 
ATOM      2  C   UNL     1       5.686  -4.239  24.491  0.00  0.00    +0.093 A 
ATOM      3  C   UNL     1       5.954  -2.991  25.082  0.00  0.00    +0.147 A 
ATOM      4  O   UNL     1       6.636  -2.077  24.316  0.00  0.00    -0.451 OA
ATOM      5  C   UNL     1       6.991  -0.864  24.886  0.00  0.00    +0.181 A 
ATOM      6  C   UNL     1       6.618  -0.438  26.112  0.00  0.00    +0.211 A 
ATOM      7  C   UNL     1       5.776  -1.370  26.935  0.00  0.00    +0.238 A 
ATOM      8  O   UNL     1       5.273  -1.023  27.992  0.00  0.00    -0.283 OA
ATOM      9  C   UNL     1       5.547  -2.725  26.388  0.00  0.00    +0.109 A 
ATOM     10  C   UNL     1       4.911  -3.737  27.122  0.00  0.00    +0.135 A 
ATOM     11  C   UNL     1       4.659  -4.979  26.543  0.00  0.00    +0.092 A 
ENDROOT
BRANCH   5  12
ATOM     12  C   UNL     1       7.794  -0.004  23.993  0.00  0.00    +0.025 A 
ATOM     13  C   UNL     1       9.119  -0.346  23.710  0.00  0.00    +0.015 A 
ATOM     14  C   UNL     1       9.868   0.420  22.818  0.00  0.00    +0.050 A 
ATOM     15  C   UNL     1       9.317   1.549  22.217  0.00  0.00    +0.159 A 
ATOM     16  C   UNL     1       7.998   1.934  22.487  0.00  0.00    +0.166 A 
ATOM     17  C   UNL     1       7.250   1.143  23.383  0.00  0.00    +0.061 A 
BRANCH  15  18
ATOM     18  O   UNL     1      10.177   2.238  21.416  0.00  0.00    -0.503 OA
ATOM     19  H   UNL     1       9.638   2.643  20.712  0.00  0.00    +0.292 HD
ENDBRANCH  15  18
BRANCH  16  20
ATOM     20  O   UNL     1       7.338   3.044  22.035  0.00  0.00    -0.457 OA
BRANCH  20  21
ATOM     21  C   UNL     1       6.540   3.838  22.925  0.00  0.00    +0.339 C 
ATOM     22  O   UNL     1       5.155   3.852  22.514  0.00  0.00    -0.337 OA
ATOM     23  C   UNL     1       4.306   4.492  23.497  0.00  0.00    +0.198 C 
ATOM     24  C   UNL     1       4.868   5.849  23.948  0.00  0.00    +0.171 C 
ATOM     25  C   UNL     1       5.911   6.317  22.930  0.00  0.00    +0.180 C 
ATOM     26  C   UNL     1       7.081   5.310  22.907  0.00  0.00    +0.214 C 
BRANCH  24  27
ATOM     27  O   UNL     1       5.486   5.687  25.228  0.00  0.00    -0.387 OA
ATOM     28  H   UNL     1       5.049   6.296  25.852  0.00  0.00    +0.210 HD
ENDBRANCH  24  27
BRANCH  25  29
ATOM     29  O   UNL     1       5.326   6.447  21.622  0.00  0.00    -0.386 OA
ATOM     30  H   UNL     1       5.543   7.350  21.290  0.00  0.00    +0.210 HD
ENDBRANCH  25  29
BRANCH  26  31
ATOM     31  O   UNL     1       7.920   5.612  21.783  0.00  0.00    -0.383 OA
ATOM     32  H   UNL     1       7.429   6.252  21.234  0.00  0.00    +0.210 HD
ENDBRANCH  26  31
ENDBRANCH  20  21
ENDBRANCH  16  20
ENDBRANCH   5  12
BRANCH   6  33
ATOM     33  O   UNL     1       7.002   0.829  26.544  0.00  0.00    -0.488 OA
ATOM     34  C   UNL     1       6.006   1.842  26.636  0.00  0.00    +0.277 C 
ENDBRANCH   6  33
BRANCH  10  35
ATOM     35  O   UNL     1       4.550  -3.544  28.425  0.00  0.00    -0.506 OA
ATOM     36  H   UNL     1       5.304  -3.687  29.018  0.00  0.00    +0.292 HD
ENDBRANCH  10  35
BRANCH   1  37
ATOM     37  O   UNL     1       4.733  -6.492  24.783  0.00  0.00    -0.461 OA
BRANCH  37  41
ATOM     38  C   UNL     1       1.011  -8.561  25.477  0.00  0.00    +0.041 C 
ATOM     39  C   UNL     1       1.822  -8.629  24.186  0.00  0.00    +0.150 C 
ATOM     40  O   UNL     1       3.173  -8.203  24.435  0.00  0.00    -0.334 OA
ATOM     41  C   UNL     1       3.340  -6.796  24.633  0.00  0.00    +0.339 C 
ATOM     42  C   UNL     1       2.850  -6.036  23.381  0.00  0.00    +0.214 C 
ATOM     43  C   UNL     1       1.357  -6.342  23.193  0.00  0.00    +0.180 C 
ATOM     44  C   UNL     1       1.146  -7.857  23.034  0.00  0.00    +0.174 C 
BRANCH  42  45
ATOM     45  O   UNL     1       3.593  -6.484  22.221  0.00  0.00    -0.383 OA
ATOM     46  H   UNL     1       3.082  -6.185  21.442  0.00  0.00    +0.210 HD
ENDBRANCH  42  45
BRANCH  43  47
ATOM     47  O   UNL     1       0.809  -5.611  22.093  0.00  0.00    -0.386 OA
ATOM     48  H   UNL     1       0.251  -4.898  22.461  0.00  0.00    +0.210 HD
ENDBRANCH  43  47
BRANCH  44  49
ATOM     49  O   UNL     1       1.671  -8.295  21.770  0.00  0.00    -0.387 OA
ATOM     50  H   UNL     1       2.593  -8.592  21.934  0.00  0.00    +0.210 HD
ENDBRANCH  44  49
ENDBRANCH  37  41
ENDBRANCH   1  37
TORSDOF 14
ENDMDL
MODEL 8
REMARK VINA RESULT:      -7.2      1.956      3.890
REMARK  Name = 
REMARK  16 active torsions:
REMARK  status: ('A' for Active; 'I' for Inactive)
REMARK    1  A    between atoms: C_1  and  C_2
REMARK    2  A    between atoms: C_3  and  O_48
REMARK    3  A    between atoms: C_5  and  O_47
REMARK    4  A    between atoms: C_7  and  O_46
REMARK    5  A    between atoms: C_8  and  O_11
REMARK    6  A    between atoms: O_11  and  C_12
REMARK    7  A    between atoms: C_14  and  O_45
REMARK    8  A    between atoms: C_19  and  C_25
REMARK    9  A    between atoms: C_20  and  O_23
REMARK   10  A    between atoms: O_23  and  C_24
REMARK   11  A    between atoms: C_27  and  O_32
REMARK   12  A    between atoms: C_28  and  O_31
REMARK   13  A    between atoms: O_32  and  C_33
REMARK   14  A    between atoms: C_35  and  O_44
REMARK   15  A    between atoms: C_36  and  O_43
REMARK   16  A    between atoms: C_38  and  O_42
REMARK                            x       y       z     vdW  Elec       q    Type
REMARK                         _______ _______ _______ _____ _____    ______ ____
ROOT
ATOM      1  C   UNL     1       7.653   1.514  25.250  0.00  0.00    +0.131 A 
ATOM      2  C   UNL     1       7.037   0.312  25.607  0.00  0.00    +0.093 A 
ATOM      3  C   UNL     1       7.652  -0.913  25.292  0.00  0.00    +0.147 A 
ATOM      4  O   UNL     1       7.019  -2.053  25.728  0.00  0.00    -0.451 OA
ATOM      5  C   UNL     1       7.631  -3.277  25.509  0.00  0.00    +0.181 A 
ATOM      6  C   UNL     1       8.755  -3.472  24.787  0.00  0.00    +0.211 A 
ATOM      7  C   UNL     1       9.412  -2.256  24.200  0.00  0.00    +0.238 A 
ATOM      8  O   UNL     1      10.347  -2.339  23.419  0.00  0.00    -0.283 OA
ATOM      9  C   UNL     1       8.850  -0.942  24.581  0.00  0.00    +0.109 A 
ATOM     10  C   UNL     1       9.461   0.271  24.229  0.00  0.00    +0.135 A 
ATOM     11  C   UNL     1       8.861   1.486  24.554  0.00  0.00    +0.092 A 
ENDROOT
BRANCH   5  12
ATOM     12  C   UNL     1       6.898  -4.417  26.099  0.00  0.00    +0.025 A 
ATOM     13  C   UNL     1       7.052  -4.710  27.457  0.00  0.00    +0.015 A 
ATOM     14  C   UNL     1       6.318  -5.742  28.041  0.00  0.00    +0.050 A 
ATOM     15  C   UNL     1       5.442  -6.509  27.277  0.00  0.00    +0.159 A 
ATOM     16  C   UNL     1       5.272  -6.256  25.910  0.00  0.00    +0.166 A 
ATOM     17  C   UNL     1       6.014  -5.204  25.336  0.00  0.00    +0.061 A 
BRANCH  15  18
ATOM     18  O   UNL     1       4.836  -7.520  27.960  0.00  0.00    -0.503 OA
ATOM     19  H   UNL     1       5.225  -8.351  27.630  0.00  0.00    +0.292 HD
ENDBRANCH  15  18
BRANCH  16  20
ATOM     20  O   UNL     1       4.510  -6.956  25.015  0.00  0.00    -0.457 OA
BRANCH  20  21
ATOM     21  C   UNL     1       3.137  -6.607  24.787  0.00  0.00    +0.339 C 
ATOM     22  O   UNL     1       2.272  -7.754  24.945  0.00  0.00    -0.337 OA
ATOM     23  C   UNL     1       0.873  -7.385  24.900  0.00  0.00    +0.198 C 
ATOM     24  C   UNL     1       0.552  -6.484  23.698  0.00  0.00    +0.171 C 
ATOM     25  C   UNL     1       1.688  -6.593  22.679  0.00  0.00    +0.180 C 
ATOM     26  C   UNL     1       2.993  -6.071  23.321  0.00  0.00    +0.214 C 
BRANCH  24  27
ATOM     27  O   UNL     1       0.443  -5.132  24.153  0.00  0.00    -0.387 OA
ATOM     28  H   UNL     1      -0.487  -4.971  24.398  0.00  0.00    +0.210 HD
ENDBRANCH  24  27
BRANCH  25  29
ATOM     29  O   UNL     1       1.849  -7.952  22.235  0.00  0.00    -0.386 OA
ATOM     30  H   UNL     1       2.657  -7.985  21.671  0.00  0.00    +0.210 HD
ENDBRANCH  25  29
BRANCH  26  31
ATOM     31  O   UNL     1       4.091  -6.411  22.462  0.00  0.00    -0.383 OA
ATOM     32  H   UNL     1       3.790  -7.156  21.908  0.00  0.00    +0.210 HD
ENDBRANCH  26  31
ENDBRANCH  20  21
ENDBRANCH  16  20
ENDBRANCH   5  12
BRANCH   6  33
ATOM     33  O   UNL     1       9.236  -4.766  24.600  0.00  0.00    -0.488 OA
ATOM     34  C   UNL     1      10.174  -5.280  25.539  0.00  0.00    +0.277 C 
ENDBRANCH   6  33
BRANCH  10  35
ATOM     35  O   UNL     1      10.666   0.294  23.587  0.00  0.00    -0.506 OA
ATOM     36  H   UNL     1      10.793   1.135  23.119  0.00  0.00    +0.292 HD
ENDBRANCH  10  35
BRANCH   1  37
ATOM     37  O   UNL     1       7.171   2.770  25.494  0.00  0.00    -0.461 OA
BRANCH  37  41
ATOM     38  C   UNL     1       6.583   5.802  22.482  0.00  0.00    +0.041 C 
ATOM     39  C   UNL     1       5.709   5.618  23.720  0.00  0.00    +0.150 C 
ATOM     40  O   UNL     1       6.412   4.839  24.703  0.00  0.00    -0.334 OA
ATOM     41  C   UNL     1       6.531   3.445  24.404  0.00  0.00    +0.339 C 
ATOM     42  C   UNL     1       5.122   2.827  24.260  0.00  0.00    +0.214 C 
ATOM     43  C   UNL     1       4.410   3.531  23.097  0.00  0.00    +0.180 C 
ATOM     44  C   UNL     1       4.321   5.042  23.371  0.00  0.00    +0.174 C 
BRANCH  42  45
ATOM     45  O   UNL     1       4.378   3.029  25.486  0.00  0.00    -0.383 OA
ATOM     46  H   UNL     1       3.756   2.277  25.551  0.00  0.00    +0.210 HD
ENDBRANCH  42  45
BRANCH  43  47
ATOM     47  O   UNL     1       3.122   2.960  22.851  0.00  0.00    -0.386 OA
ATOM     48  H   UNL     1       2.976   2.263  23.519  0.00  0.00    +0.210 HD
ENDBRANCH  43  47
BRANCH  44  49
ATOM     49  O   UNL     1       3.398   5.293  24.442  0.00  0.00    -0.387 OA
ATOM     50  H   UNL     1       3.823   4.966  25.266  0.00  0.00    +0.210 HD
ENDBRANCH  44  49
ENDBRANCH  37  41
ENDBRANCH   1  37
TORSDOF 14
ENDMDL
MODEL 9
REMARK VINA RESULT:      -7.2      2.793      4.767
REMARK  Name = 
REMARK  16 active torsions:
REMARK  status: ('A' for Active; 'I' for Inactive)
REMARK    1  A    between atoms: C_1  and  C_2
REMARK    2  A    between atoms: C_3  and  O_48
REMARK    3  A    between atoms: C_5  and  O_47
REMARK    4  A    between atoms: C_7  and  O_46
REMARK    5  A    between atoms: C_8  and  O_11
REMARK    6  A    between atoms: O_11  and  C_12
REMARK    7  A    between atoms: C_14  and  O_45
REMARK    8  A    between atoms: C_19  and  C_25
REMARK    9  A    between atoms: C_20  and  O_23
REMARK   10  A    between atoms: O_23  and  C_24
REMARK   11  A    between atoms: C_27  and  O_32
REMARK   12  A    between atoms: C_28  and  O_31
REMARK   13  A    between atoms: O_32  and  C_33
REMARK   14  A    between atoms: C_35  and  O_44
REMARK   15  A    between atoms: C_36  and  O_43
REMARK   16  A    between atoms: C_38  and  O_42
REMARK                            x       y       z     vdW  Elec       q    Type
REMARK                         _______ _______ _______ _____ _____    ______ ____
ROOT
ATOM      1  C   UNL     1       5.447   3.108  23.683  0.00  0.00    +0.131 A 
ATOM      2  C   UNL     1       5.418   1.802  24.174  0.00  0.00    +0.093 A 
ATOM      3  C   UNL     1       6.388   0.873  23.758  0.00  0.00    +0.147 A 
ATOM      4  O   UNL     1       6.335  -0.376  24.329  0.00  0.00    -0.451 OA
ATOM      5  C   UNL     1       7.320  -1.297  24.009  0.00  0.00    +0.181 A 
ATOM      6  C   UNL     1       8.281  -1.121  23.076  0.00  0.00    +0.211 A 
ATOM      7  C   UNL     1       8.300   0.194  22.351  0.00  0.00    +0.238 A 
ATOM      8  O   UNL     1       9.035   0.396  21.397  0.00  0.00    -0.283 OA
ATOM      9  C   UNL     1       7.354   1.231  22.820  0.00  0.00    +0.109 A 
ATOM     10  C   UNL     1       7.376   2.547  22.333  0.00  0.00    +0.135 A 
ATOM     11  C   UNL     1       6.424   3.473  22.756  0.00  0.00    +0.092 A 
ENDROOT
BRANCH   5  12
ATOM     12  C   UNL     1       7.204  -2.569  24.751  0.00  0.00    +0.025 A 
ATOM     13  C   UNL     1       7.829  -2.704  25.994  0.00  0.00    +0.015 A 
ATOM     14  C   UNL     1       7.674  -3.875  26.735  0.00  0.00    +0.050 A 
ATOM     15  C   UNL     1       6.919  -4.934  26.237  0.00  0.00    +0.159 A 
ATOM     16  C   UNL     1       6.290  -4.843  24.989  0.00  0.00    +0.166 A 
ATOM     17  C   UNL     1       6.447  -3.649  24.257  0.00  0.00    +0.061 A 
BRANCH  15  18
ATOM     18  O   UNL     1       6.901  -6.038  27.035  0.00  0.00    -0.503 OA
ATOM     19  H   UNL     1       7.631  -6.610  26.735  0.00  0.00    +0.292 HD
ENDBRANCH  15  18
BRANCH  16  20
ATOM     20  O   UNL     1       5.577  -5.810  24.336  0.00  0.00    -0.457 OA
BRANCH  20  21
ATOM     21  C   UNL     1       4.234  -6.126  24.729  0.00  0.00    +0.339 C 
ATOM     22  O   UNL     1       3.983  -7.547  24.642  0.00  0.00    -0.337 OA
ATOM     23  C   UNL     1       2.699  -7.904  25.207  0.00  0.00    +0.198 C 
ATOM     24  C   UNL     1       1.568  -7.007  24.682  0.00  0.00    +0.171 C 
ATOM     25  C   UNL     1       2.046  -6.297  23.414  0.00  0.00    +0.180 C 
ATOM     26  C   UNL     1       3.242  -5.385  23.768  0.00  0.00    +0.214 C 
BRANCH  24  27
ATOM     27  O   UNL     1       1.248  -6.037  25.684  0.00  0.00    -0.387 OA
ATOM     28  H   UNL     1       1.101  -5.183  25.239  0.00  0.00    +0.210 HD
ENDBRANCH  24  27
BRANCH  25  29
ATOM     29  O   UNL     1       2.416  -7.250  22.403  0.00  0.00    -0.386 OA
ATOM     30  H   UNL     1       1.584  -7.585  21.993  0.00  0.00    +0.210 HD
ENDBRANCH  25  29
BRANCH  26  31
ATOM     31  O   UNL     1       3.841  -4.926  22.547  0.00  0.00    -0.383 OA
ATOM     32  H   UNL     1       4.416  -5.648  22.231  0.00  0.00    +0.210 HD
ENDBRANCH  26  31
ENDBRANCH  20  21
ENDBRANCH  16  20
ENDBRANCH   5  12
BRANCH   6  33
ATOM     33  O   UNL     1       9.181  -2.151  22.814  0.00  0.00    -0.488 OA
ATOM     34  C   UNL     1      10.514  -2.023  23.294  0.00  0.00    +0.277 C 
ENDBRANCH   6  33
BRANCH  10  35
ATOM     35  O   UNL     1       8.340   2.961  21.459  0.00  0.00    -0.506 OA
ATOM     36  H   UNL     1       7.976   3.061  20.565  0.00  0.00    +0.292 HD
ENDBRANCH  10  35
BRANCH   1  37
ATOM     37  O   UNL     1       4.571   4.109  24.002  0.00  0.00    -0.461 OA
BRANCH  37  41
ATOM     38  C   UNL     1       1.140   2.495  21.944  0.00  0.00    +0.041 C 
ATOM     39  C   UNL     1       2.244   3.321  21.289  0.00  0.00    +0.150 C 
ATOM     40  O   UNL     1       3.414   3.322  22.125  0.00  0.00    -0.334 OA
ATOM     41  C   UNL     1       3.318   4.124  23.306  0.00  0.00    +0.339 C 
ATOM     42  C   UNL     1       3.043   5.592  22.911  0.00  0.00    +0.214 C 
ATOM     43  C   UNL     1       1.704   5.640  22.161  0.00  0.00    +0.180 C 
ATOM     44  C   UNL     1       1.764   4.739  20.917  0.00  0.00    +0.174 C 
BRANCH  42  45
ATOM     45  O   UNL     1       4.105   6.068  22.050  0.00  0.00    -0.383 OA
ATOM     46  H   UNL     1       4.923   5.632  22.364  0.00  0.00    +0.210 HD
ENDBRANCH  42  45
BRANCH  43  47
ATOM     47  O   UNL     1       1.340   6.982  21.828  0.00  0.00    -0.386 OA
ATOM     48  H   UNL     1       0.483   6.949  21.361  0.00  0.00    +0.210 HD
ENDBRANCH  43  47
BRANCH  44  49
ATOM     49  O   UNL     1       2.642   5.316  19.936  0.00  0.00    -0.387 OA
ATOM     50  H   UNL     1       2.169   5.278  19.075  0.00  0.00    +0.210 HD
ENDBRANCH  44  49
ENDBRANCH  37  41
ENDBRANCH   1  37
TORSDOF 14
ENDMDL
