MODEL 1
REMARK VINA RESULT:      -7.8      0.000      0.000
REMARK  Name = 
REMARK  8 active torsions:
REMARK  status: ('A' for Active; 'I' for Inactive)
REMARK    1  A    between atoms: C_3  and  O_22
REMARK    2  A    between atoms: C_4  and  O_21
REMARK    3  A    between atoms: C_6  and  C_7
REMARK    4  A    between atoms: C_8  and  O_20
REMARK    5  A    between atoms: C_12  and  O_19
REMARK    6  A    between atoms: C_14  and  O_18
REMARK    7  A    between atoms: O_22  and  S_23
REMARK    8  A    between atoms: S_23  and  O_26
REMARK                            x       y       z     vdW  Elec       q    Type
REMARK                         _______ _______ _______ _____ _____    ______ ____
ROOT
ATOM      1  C   UNL     1       7.080  -3.868  23.786  0.00  0.00    +0.181 A 
ATOM      2  O   UNL     1       6.957  -4.343  25.093  0.00  0.00    -0.451 OA
ATOM      3  C   UNL     1       6.071  -5.354  25.364  0.00  0.00    +0.147 A 
ATOM      4  C   UNL     1       5.212  -5.876  24.406  0.00  0.00    +0.109 A 
ATOM      5  C   UNL     1       4.313  -6.895  24.746  0.00  0.00    +0.135 A 
ATOM      6  C   UNL     1       4.279  -7.402  26.042  0.00  0.00    +0.091 A 
ATOM      7  C   UNL     1       5.152  -6.878  26.990  0.00  0.00    +0.124 A 
ATOM      8  C   UNL     1       5.291  -5.355  23.041  0.00  0.00    +0.238 A 
ATOM      9  O   UNL     1       4.522  -5.778  22.184  0.00  0.00    -0.283 OA
ATOM     10  C   UNL     1       6.044  -5.859  26.666  0.00  0.00    +0.092 A 
ATOM     11  C   UNL     1       6.344  -4.341  22.755  0.00  0.00    +0.208 A 
ENDROOT
BRANCH   1  13
ATOM     12  C   UNL     1       8.551  -2.125  24.834  0.00  0.00    +0.015 A 
ATOM     13  C   UNL     1       8.087  -2.774  23.675  0.00  0.00    +0.025 A 
ATOM     14  C   UNL     1       8.548  -2.291  22.438  0.00  0.00    +0.061 A 
ATOM     15  C   UNL     1       9.436  -1.216  22.377  0.00  0.00    +0.162 A 
ATOM     16  C   UNL     1       9.847  -0.548  23.529  0.00  0.00    +0.200 A 
ATOM     17  C   UNL     1       9.418  -1.025  24.766  0.00  0.00    +0.053 A 
BRANCH  15  18
ATOM     18  O   UNL     1       9.871  -0.831  21.139  0.00  0.00    -0.503 OA
ATOM     19  H   UNL     1       9.106  -0.476  20.655  0.00  0.00    +0.292 HD
ENDBRANCH  15  18
BRANCH  16  20
ATOM     20  O   UNL     1      10.668   0.535  23.361  0.00  0.00    -0.321 OA
BRANCH  20  21
ATOM     21  S   UNL     1      10.048   2.021  23.098  0.00  0.00    +0.251 S 
ATOM     22  O   UNL     1      10.965   3.015  23.605  0.00  0.00    -0.108 OA
ATOM     23  O   UNL     1       8.644   2.020  23.451  0.00  0.00    -0.108 OA
BRANCH  21  24
ATOM     24  O   UNL     1      10.060   2.125  21.490  0.00  0.00    -0.222 OA
ATOM     25  H   UNL     1      10.554   2.939  21.256  0.00  0.00    +0.248 HD
ENDBRANCH  21  24
ENDBRANCH  20  21
ENDBRANCH  16  20
ENDBRANCH   1  13
BRANCH   5  26
ATOM     26  O   UNL     1       3.435  -7.446  23.851  0.00  0.00    -0.506 OA
ATOM     27  H   UNL     1       3.095  -6.723  23.273  0.00  0.00    +0.292 HD
ENDBRANCH   5  26
BRANCH   7  28
ATOM     28  O   UNL     1       5.159  -7.353  28.273  0.00  0.00    -0.507 OA
ATOM     29  H   UNL     1       5.930  -6.992  28.740  0.00  0.00    +0.292 HD
ENDBRANCH   7  28
BRANCH  11  30
ATOM     30  O   UNL     1       6.488  -3.972  21.431  0.00  0.00    -0.501 OA
ATOM     31  H   UNL     1       7.033  -3.169  21.386  0.00  0.00    +0.292 HD
ENDBRANCH  11  30
TORSDOF 8
ENDMDL
MODEL 2
REMARK VINA RESULT:      -7.7      1.322      2.690
REMARK  Name = 
REMARK  8 active torsions:
REMARK  status: ('A' for Active; 'I' for Inactive)
REMARK    1  A    between atoms: C_3  and  O_22
REMARK    2  A    between atoms: C_4  and  O_21
REMARK    3  A    between atoms: C_6  and  C_7
REMARK    4  A    between atoms: C_8  and  O_20
REMARK    5  A    between atoms: C_12  and  O_19
REMARK    6  A    between atoms: C_14  and  O_18
REMARK    7  A    between atoms: O_22  and  S_23
REMARK    8  A    between atoms: S_23  and  O_26
REMARK                            x       y       z     vdW  Elec       q    Type
REMARK                         _______ _______ _______ _____ _____    ______ ____
ROOT
ATOM      1  C   UNL     1       7.298  -3.634  24.982  0.00  0.00    +0.181 A 
ATOM      2  O   UNL     1       6.229  -3.696  24.086  0.00  0.00    -0.451 OA
ATOM      3  C   UNL     1       5.237  -4.624  24.281  0.00  0.00    +0.147 A 
ATOM      4  C   UNL     1       5.290  -5.579  25.288  0.00  0.00    +0.109 A 
ATOM      5  C   UNL     1       4.256  -6.515  25.426  0.00  0.00    +0.135 A 
ATOM      6  C   UNL     1       3.164  -6.491  24.565  0.00  0.00    +0.091 A 
ATOM      7  C   UNL     1       3.119  -5.523  23.565  0.00  0.00    +0.124 A 
ATOM      8  C   UNL     1       6.429  -5.560  26.207  0.00  0.00    +0.238 A 
ATOM      9  O   UNL     1       6.513  -6.412  27.086  0.00  0.00    -0.283 OA
ATOM     10  C   UNL     1       4.143  -4.593  23.413  0.00  0.00    +0.092 A 
ATOM     11  C   UNL     1       7.427  -4.468  26.039  0.00  0.00    +0.208 A 
ENDROOT
BRANCH   1  13
ATOM     12  C   UNL     1       8.619  -1.579  25.557  0.00  0.00    +0.015 A 
ATOM     13  C   UNL     1       8.278  -2.570  24.619  0.00  0.00    +0.025 A 
ATOM     14  C   UNL     1       8.830  -2.456  23.332  0.00  0.00    +0.061 A 
ATOM     15  C   UNL     1       9.687  -1.402  23.013  0.00  0.00    +0.162 A 
ATOM     16  C   UNL     1       9.976  -0.397  23.935  0.00  0.00    +0.200 A 
ATOM     17  C   UNL     1       9.455  -0.504  25.223  0.00  0.00    +0.053 A 
BRANCH  15  18
ATOM     18  O   UNL     1      10.217  -1.383  21.752  0.00  0.00    -0.503 OA
ATOM     19  H   UNL     1      10.521  -2.285  21.548  0.00  0.00    +0.292 HD
ENDBRANCH  15  18
BRANCH  16  20
ATOM     20  O   UNL     1      10.776   0.628  23.507  0.00  0.00    -0.321 OA
BRANCH  20  21
ATOM     21  S   UNL     1      10.129   2.051  23.035  0.00  0.00    +0.251 S 
ATOM     22  O   UNL     1      11.059   3.116  23.329  0.00  0.00    -0.108 OA
ATOM     23  O   UNL     1       8.743   2.104  23.449  0.00  0.00    -0.108 OA
BRANCH  21  24
ATOM     24  O   UNL     1      10.067   1.891  21.433  0.00  0.00    -0.222 OA
ATOM     25  H   UNL     1       9.148   1.639  21.202  0.00  0.00    +0.248 HD
ENDBRANCH  21  24
ENDBRANCH  20  21
ENDBRANCH  16  20
ENDBRANCH   1  13
BRANCH   5  26
ATOM     26  O   UNL     1       4.252  -7.485  26.393  0.00  0.00    -0.506 OA
ATOM     27  H   UNL     1       5.189  -7.713  26.600  0.00  0.00    +0.292 HD
ENDBRANCH   5  26
BRANCH   7  28
ATOM     28  O   UNL     1       2.059  -5.459  22.703  0.00  0.00    -0.507 OA
ATOM     29  H   UNL     1       1.339  -4.959  23.123  0.00  0.00    +0.292 HD
ENDBRANCH   7  28
BRANCH  11  30
ATOM     30  O   UNL     1       8.413  -4.392  27.005  0.00  0.00    -0.501 OA
ATOM     31  H   UNL     1       9.223  -4.043  26.600  0.00  0.00    +0.292 HD
ENDBRANCH  11  30
TORSDOF 8
ENDMDL
MODEL 3
REMARK VINA RESULT:      -7.6      2.987      8.115
REMARK  Name = 
REMARK  8 active torsions:
REMARK  status: ('A' for Active; 'I' for Inactive)
REMARK    1  A    between atoms: C_3  and  O_22
REMARK    2  A    between atoms: C_4  and  O_21
REMARK    3  A    between atoms: C_6  and  C_7
REMARK    4  A    between atoms: C_8  and  O_20
REMARK    5  A    between atoms: C_12  and  O_19
REMARK    6  A    between atoms: C_14  and  O_18
REMARK    7  A    between atoms: O_22  and  S_23
REMARK    8  A    between atoms: S_23  and  O_26
REMARK                            x       y       z     vdW  Elec       q    Type
REMARK                         _______ _______ _______ _____ _____    ______ ____
ROOT
ATOM      1  C   UNL     1       7.893  -1.809  23.960  0.00  0.00    +0.181 A 
ATOM      2  O   UNL     1       7.837  -0.707  24.817  0.00  0.00    -0.451 OA
ATOM      3  C   UNL     1       8.248   0.521  24.364  0.00  0.00    +0.147 A 
ATOM      4  C   UNL     1       8.810   0.708  23.108  0.00  0.00    +0.109 A 
ATOM      5  C   UNL     1       9.231   1.983  22.708  0.00  0.00    +0.135 A 
ATOM      6  C   UNL     1       9.081   3.075  23.558  0.00  0.00    +0.091 A 
ATOM      7  C   UNL     1       8.509   2.875  24.811  0.00  0.00    +0.124 A 
ATOM      8  C   UNL     1       8.922  -0.446  22.215  0.00  0.00    +0.238 A 
ATOM      9  O   UNL     1       9.443  -0.312  21.112  0.00  0.00    -0.283 OA
ATOM     10  C   UNL     1       8.094   1.611  25.222  0.00  0.00    +0.092 A 
ATOM     11  C   UNL     1       8.359  -1.739  22.693  0.00  0.00    +0.208 A 
ENDROOT
BRANCH   1  13
ATOM     12  C   UNL     1       6.051  -3.423  24.515  0.00  0.00    +0.015 A 
ATOM     13  C   UNL     1       7.406  -3.058  24.616  0.00  0.00    +0.025 A 
ATOM     14  C   UNL     1       8.234  -3.865  25.414  0.00  0.00    +0.061 A 
ATOM     15  C   UNL     1       7.720  -4.986  26.070  0.00  0.00    +0.162 A 
ATOM     16  C   UNL     1       6.366  -5.307  26.004  0.00  0.00    +0.200 A 
ATOM     17  C   UNL     1       5.533  -4.531  25.200  0.00  0.00    +0.053 A 
BRANCH  15  18
ATOM     18  O   UNL     1       8.598  -5.745  26.795  0.00  0.00    -0.503 OA
ATOM     19  H   UNL     1       8.664  -6.613  26.360  0.00  0.00    +0.292 HD
ENDBRANCH  15  18
BRANCH  16  20
ATOM     20  O   UNL     1       5.948  -6.388  26.733  0.00  0.00    -0.321 OA
BRANCH  20  21
ATOM     21  S   UNL     1       5.618  -6.246  28.326  0.00  0.00    +0.251 S 
ATOM     22  O   UNL     1       4.827  -5.057  28.542  0.00  0.00    -0.108 OA
ATOM     23  O   UNL     1       6.818  -6.520  29.087  0.00  0.00    -0.108 OA
BRANCH  21  24
ATOM     24  O   UNL     1       4.666  -7.517  28.600  0.00  0.00    -0.222 OA
ATOM     25  H   UNL     1       4.372  -7.462  29.533  0.00  0.00    +0.248 HD
ENDBRANCH  21  24
ENDBRANCH  20  21
ENDBRANCH  16  20
ENDBRANCH   1  13
BRANCH   5  26
ATOM     26  O   UNL     1       9.799   2.233  21.486  0.00  0.00    -0.506 OA
ATOM     27  H   UNL     1      10.416   1.492  21.280  0.00  0.00    +0.292 HD
ENDBRANCH   5  26
BRANCH   7  28
ATOM     28  O   UNL     1       8.334   3.922  25.674  0.00  0.00    -0.507 OA
ATOM     29  H   UNL     1       8.581   4.747  25.224  0.00  0.00    +0.292 HD
ENDBRANCH   7  28
BRANCH  11  30
ATOM     30  O   UNL     1       8.352  -2.774  21.777  0.00  0.00    -0.501 OA
ATOM     31  H   UNL     1       7.889  -3.535  22.166  0.00  0.00    +0.292 HD
ENDBRANCH  11  30
TORSDOF 8
ENDMDL
MODEL 4
REMARK VINA RESULT:      -7.5      1.263      1.732
REMARK  Name = 
REMARK  8 active torsions:
REMARK  status: ('A' for Active; 'I' for Inactive)
REMARK    1  A    between atoms: C_3  and  O_22
REMARK    2  A    between atoms: C_4  and  O_21
REMARK    3  A    between atoms: C_6  and  C_7
REMARK    4  A    between atoms: C_8  and  O_20
REMARK    5  A    between atoms: C_12  and  O_19
REMARK    6  A    between atoms: C_14  and  O_18
REMARK    7  A    between atoms: O_22  and  S_23
REMARK    8  A    between atoms: S_23  and  O_26
REMARK                            x       y       z     vdW  Elec       q    Type
REMARK                         _______ _______ _______ _____ _____    ______ ____
ROOT
ATOM      1  C   UNL     1       6.590  -3.136  23.198  0.00  0.00    +0.181 A 
ATOM      2  O   UNL     1       6.732  -3.456  24.549  0.00  0.00    -0.451 OA
ATOM      3  C   UNL     1       6.154  -4.600  25.037  0.00  0.00    +0.147 A 
ATOM      4  C   UNL     1       5.346  -5.422  24.261  0.00  0.00    +0.109 A 
ATOM      5  C   UNL     1       4.764  -6.568  24.820  0.00  0.00    +0.135 A 
ATOM      6  C   UNL     1       4.999  -6.901  26.150  0.00  0.00    +0.091 A 
ATOM      7  C   UNL     1       5.818  -6.074  26.914  0.00  0.00    +0.124 A 
ATOM      8  C   UNL     1       5.145  -5.074  22.854  0.00  0.00    +0.238 A 
ATOM      9  O   UNL     1       4.411  -5.768  22.157  0.00  0.00    -0.283 OA
ATOM     10  C   UNL     1       6.394  -4.928  26.373  0.00  0.00    +0.092 A 
ATOM     11  C   UNL     1       5.881  -3.891  22.328  0.00  0.00    +0.208 A 
ENDROOT
BRANCH   1  13
ATOM     12  C   UNL     1       8.575  -1.897  22.287  0.00  0.00    +0.015 A 
ATOM     13  C   UNL     1       7.283  -1.863  22.843  0.00  0.00    +0.025 A 
ATOM     14  C   UNL     1       6.732  -0.600  23.116  0.00  0.00    +0.061 A 
ATOM     15  C   UNL     1       7.446   0.566  22.836  0.00  0.00    +0.162 A 
ATOM     16  C   UNL     1       8.745   0.519  22.334  0.00  0.00    +0.200 A 
ATOM     17  C   UNL     1       9.301  -0.724  22.036  0.00  0.00    +0.053 A 
BRANCH  15  18
ATOM     18  O   UNL     1       6.825   1.758  23.091  0.00  0.00    -0.503 OA
ATOM     19  H   UNL     1       6.763   1.856  24.058  0.00  0.00    +0.292 HD
ENDBRANCH  15  18
BRANCH  16  20
ATOM     20  O   UNL     1       9.385   1.715  22.151  0.00  0.00    -0.321 OA
BRANCH  20  21
ATOM     21  S   UNL     1      10.149   2.452  23.391  0.00  0.00    +0.251 S 
ATOM     22  O   UNL     1      10.971   1.486  24.083  0.00  0.00    -0.108 OA
ATOM     23  O   UNL     1       9.211   3.304  24.090  0.00  0.00    -0.108 OA
BRANCH  21  24
ATOM     24  O   UNL     1      11.138   3.474  22.634  0.00  0.00    -0.222 OA
ATOM     25  H   UNL     1      11.166   3.206  21.692  0.00  0.00    +0.248 HD
ENDBRANCH  21  24
ENDBRANCH  20  21
ENDBRANCH  16  20
ENDBRANCH   1  13
BRANCH   5  26
ATOM     26  O   UNL     1       3.953  -7.414  24.111  0.00  0.00    -0.506 OA
ATOM     27  H   UNL     1       3.045  -7.030  24.104  0.00  0.00    +0.292 HD
ENDBRANCH   5  26
BRANCH   7  28
ATOM     28  O   UNL     1       6.082  -6.369  28.224  0.00  0.00    -0.507 OA
ATOM     29  H   UNL     1       6.781  -5.777  28.546  0.00  0.00    +0.292 HD
ENDBRANCH   7  28
BRANCH  11  30
ATOM     30  O   UNL     1       5.784  -3.671  20.968  0.00  0.00    -0.501 OA
ATOM     31  H   UNL     1       5.994  -4.495  20.500  0.00  0.00    +0.292 HD
ENDBRANCH  11  30
TORSDOF 8
ENDMDL
MODEL 5
REMARK VINA RESULT:      -7.3      3.058      8.442
REMARK  Name = 
REMARK  8 active torsions:
REMARK  status: ('A' for Active; 'I' for Inactive)
REMARK    1  A    between atoms: C_3  and  O_22
REMARK    2  A    between atoms: C_4  and  O_21
REMARK    3  A    between atoms: C_6  and  C_7
REMARK    4  A    between atoms: C_8  and  O_20
REMARK    5  A    between atoms: C_12  and  O_19
REMARK    6  A    between atoms: C_14  and  O_18
REMARK    7  A    between atoms: O_22  and  S_23
REMARK    8  A    between atoms: S_23  and  O_26
REMARK                            x       y       z     vdW  Elec       q    Type
REMARK                         _______ _______ _______ _____ _____    ______ ____
ROOT
ATOM      1  C   UNL     1       7.954  -1.698  23.226  0.00  0.00    +0.181 A 
ATOM      2  O   UNL     1       7.075  -0.663  22.902  0.00  0.00    -0.451 OA
ATOM      3  C   UNL     1       7.551   0.620  22.800  0.00  0.00    +0.147 A 
ATOM      4  C   UNL     1       8.865   0.959  23.096  0.00  0.00    +0.109 A 
ATOM      5  C   UNL     1       9.289   2.290  22.993  0.00  0.00    +0.135 A 
ATOM      6  C   UNL     1       8.404   3.283  22.584  0.00  0.00    +0.091 A 
ATOM      7  C   UNL     1       7.092   2.929  22.282  0.00  0.00    +0.124 A 
ATOM      8  C   UNL     1       9.789  -0.108  23.486  0.00  0.00    +0.238 A 
ATOM      9  O   UNL     1      10.947   0.171  23.781  0.00  0.00    -0.283 OA
ATOM     10  C   UNL     1       6.657   1.610  22.388  0.00  0.00    +0.092 A 
ATOM     11  C   UNL     1       9.269  -1.503  23.473  0.00  0.00    +0.208 A 
ENDROOT
BRANCH   1  13
ATOM     12  C   UNL     1       6.689  -3.571  22.133  0.00  0.00    +0.015 A 
ATOM     13  C   UNL     1       7.268  -3.021  23.292  0.00  0.00    +0.025 A 
ATOM     14  C   UNL     1       7.096  -3.726  24.495  0.00  0.00    +0.061 A 
ATOM     15  C   UNL     1       6.383  -4.926  24.524  0.00  0.00    +0.162 A 
ATOM     16  C   UNL     1       5.770  -5.433  23.380  0.00  0.00    +0.200 A 
ATOM     17  C   UNL     1       5.947  -4.760  22.173  0.00  0.00    +0.053 A 
BRANCH  15  18
ATOM     18  O   UNL     1       6.294  -5.573  25.726  0.00  0.00    -0.503 OA
ATOM     19  H   UNL     1       6.769  -6.419  25.640  0.00  0.00    +0.292 HD
ENDBRANCH  15  18
BRANCH  16  20
ATOM     20  O   UNL     1       5.039  -6.583  23.524  0.00  0.00    -0.321 OA
BRANCH  20  21
ATOM     21  S   UNL     1       3.446  -6.522  23.872  0.00  0.00    +0.251 S 
ATOM     22  O   UNL     1       2.755  -5.826  22.813  0.00  0.00    -0.108 OA
ATOM     23  O   UNL     1       3.276  -6.167  25.265  0.00  0.00    -0.108 OA
BRANCH  21  24
ATOM     24  O   UNL     1       3.013  -8.073  23.795  0.00  0.00    -0.222 OA
ATOM     25  H   UNL     1       3.585  -8.564  24.422  0.00  0.00    +0.248 HD
ENDBRANCH  21  24
ENDBRANCH  20  21
ENDBRANCH  16  20
ENDBRANCH   1  13
BRANCH   5  26
ATOM     26  O   UNL     1      10.568   2.690  23.278  0.00  0.00    -0.506 OA
ATOM     27  H   UNL     1      10.665   3.628  22.990  0.00  0.00    +0.292 HD
ENDBRANCH   5  26
BRANCH   7  28
ATOM     28  O   UNL     1       6.192   3.871  21.868  0.00  0.00    -0.507 OA
ATOM     29  H   UNL     1       6.488   4.746  22.171  0.00  0.00    +0.292 HD
ENDBRANCH   7  28
BRANCH  11  30
ATOM     30  O   UNL     1      10.198  -2.499  23.708  0.00  0.00    -0.501 OA
ATOM     31  H   UNL     1      10.912  -2.140  24.259  0.00  0.00    +0.292 HD
ENDBRANCH  11  30
TORSDOF 8
ENDMDL
MODEL 6
REMARK VINA RESULT:      -7.2      3.193      8.231
REMARK  Name = 
REMARK  8 active torsions:
REMARK  status: ('A' for Active; 'I' for Inactive)
REMARK    1  A    between atoms: C_3  and  O_22
REMARK    2  A    between atoms: C_4  and  O_21
REMARK    3  A    between atoms: C_6  and  C_7
REMARK    4  A    between atoms: C_8  and  O_20
REMARK    5  A    between atoms: C_12  and  O_19
REMARK    6  A    between atoms: C_14  and  O_18
REMARK    7  A    between atoms: O_22  and  S_23
REMARK    8  A    between atoms: S_23  and  O_26
REMARK                            x       y       z     vdW  Elec       q    Type
REMARK                         _______ _______ _______ _____ _____    ______ ____
ROOT
ATOM      1  C   UNL     1       7.947  -1.711  23.972  0.00  0.00    +0.181 A 
ATOM      2  O   UNL     1       6.977  -0.713  23.857  0.00  0.00    -0.451 OA
ATOM      3  C   UNL     1       7.275   0.443  23.181  0.00  0.00    +0.147 A 
ATOM      4  C   UNL     1       8.541   0.713  22.677  0.00  0.00    +0.109 A 
ATOM      5  C   UNL     1       8.792   1.921  22.014  0.00  0.00    +0.135 A 
ATOM      6  C   UNL     1       7.776   2.857  21.844  0.00  0.00    +0.091 A 
ATOM      7  C   UNL     1       6.510   2.570  22.345  0.00  0.00    +0.124 A 
ATOM      8  C   UNL     1       9.584  -0.302  22.833  0.00  0.00    +0.238 A 
ATOM      9  O   UNL     1      10.718  -0.074  22.423  0.00  0.00    -0.283 OA
ATOM     10  C   UNL     1       6.251   1.377  23.014  0.00  0.00    +0.092 A 
ATOM     11  C   UNL     1       9.196  -1.592  23.466  0.00  0.00    +0.208 A 
ENDROOT
BRANCH   1  13
ATOM     12  C   UNL     1       7.840  -3.083  26.072  0.00  0.00    +0.015 A 
ATOM     13  C   UNL     1       7.451  -2.894  24.733  0.00  0.00    +0.025 A 
ATOM     14  C   UNL     1       6.662  -3.897  24.144  0.00  0.00    +0.061 A 
ATOM     15  C   UNL     1       6.280  -5.025  24.872  0.00  0.00    +0.162 A 
ATOM     16  C   UNL     1       6.715  -5.225  26.181  0.00  0.00    +0.200 A 
ATOM     17  C   UNL     1       7.481  -4.233  26.789  0.00  0.00    +0.053 A 
BRANCH  15  18
ATOM     18  O   UNL     1       5.477  -5.936  24.242  0.00  0.00    -0.503 OA
ATOM     19  H   UNL     1       5.404  -6.714  24.822  0.00  0.00    +0.292 HD
ENDBRANCH  15  18
BRANCH  16  20
ATOM     20  O   UNL     1       6.340  -6.393  26.789  0.00  0.00    -0.321 OA
BRANCH  20  21
ATOM     21  S   UNL     1       4.902  -6.513  27.553  0.00  0.00    +0.251 S 
ATOM     22  O   UNL     1       3.910  -7.000  26.623  0.00  0.00    -0.108 OA
ATOM     23  O   UNL     1       4.688  -5.326  28.354  0.00  0.00    -0.108 OA
BRANCH  21  24
ATOM     24  O   UNL     1       5.175  -7.682  28.628  0.00  0.00    -0.222 OA
ATOM     25  H   UNL     1       5.580  -8.432  28.144  0.00  0.00    +0.248 HD
ENDBRANCH  21  24
ENDBRANCH  20  21
ENDBRANCH  16  20
ENDBRANCH   1  13
BRANCH   5  26
ATOM     26  O   UNL     1      10.019   2.250  21.500  0.00  0.00    -0.506 OA
ATOM     27  H   UNL     1       9.876   2.851  20.731  0.00  0.00    +0.292 HD
ENDBRANCH   5  26
BRANCH   7  28
ATOM     28  O   UNL     1       5.481   3.458  22.192  0.00  0.00    -0.507 OA
ATOM     29  H   UNL     1       5.807   4.355  22.376  0.00  0.00    +0.292 HD
ENDBRANCH   7  28
BRANCH  11  30
ATOM     30  O   UNL     1      10.161  -2.581  23.473  0.00  0.00    -0.501 OA
ATOM     31  H   UNL     1      10.116  -3.059  24.317  0.00  0.00    +0.292 HD
ENDBRANCH  11  30
TORSDOF 8
ENDMDL
MODEL 7
REMARK VINA RESULT:      -7.2      3.822      9.453
REMARK  Name = 
REMARK  8 active torsions:
REMARK  status: ('A' for Active; 'I' for Inactive)
REMARK    1  A    between atoms: C_3  and  O_22
REMARK    2  A    between atoms: C_4  and  O_21
REMARK    3  A    between atoms: C_6  and  C_7
REMARK    4  A    between atoms: C_8  and  O_20
REMARK    5  A    between atoms: C_12  and  O_19
REMARK    6  A    between atoms: C_14  and  O_18
REMARK    7  A    between atoms: O_22  and  S_23
REMARK    8  A    between atoms: S_23  and  O_26
REMARK                            x       y       z     vdW  Elec       q    Type
REMARK                         _______ _______ _______ _____ _____    ______ ____
ROOT
ATOM      1  C   UNL     1       9.071   1.902  23.870  0.00  0.00    +0.181 A 
ATOM      2  O   UNL     1      10.386   2.200  23.507  0.00  0.00    -0.451 OA
ATOM      3  C   UNL     1      10.837   3.492  23.605  0.00  0.00    +0.147 A 
ATOM      4  C   UNL     1      10.013   4.550  23.965  0.00  0.00    +0.109 A 
ATOM      5  C   UNL     1      10.524   5.853  24.027  0.00  0.00    +0.135 A 
ATOM      6  C   UNL     1      11.864   6.098  23.741  0.00  0.00    +0.091 A 
ATOM      7  C   UNL     1      12.682   5.028  23.390  0.00  0.00    +0.124 A 
ATOM      8  C   UNL     1       8.617   4.263  24.300  0.00  0.00    +0.238 A 
ATOM      9  O   UNL     1       7.861   5.184  24.592  0.00  0.00    -0.283 OA
ATOM     10  C   UNL     1      12.183   3.731  23.317  0.00  0.00    +0.092 A 
ATOM     11  C   UNL     1       8.191   2.836  24.298  0.00  0.00    +0.208 A 
ENDROOT
BRANCH   1  13
ATOM     12  C   UNL     1       9.745  -0.515  23.947  0.00  0.00    +0.015 A 
ATOM     13  C   UNL     1       8.755   0.454  23.704  0.00  0.00    +0.025 A 
ATOM     14  C   UNL     1       7.512   0.000  23.228  0.00  0.00    +0.061 A 
ATOM     15  C   UNL     1       7.283  -1.360  23.016  0.00  0.00    +0.162 A 
ATOM     16  C   UNL     1       8.288  -2.305  23.211  0.00  0.00    +0.200 A 
ATOM     17  C   UNL     1       9.520  -1.878  23.703  0.00  0.00    +0.053 A 
BRANCH  15  18
ATOM     18  O   UNL     1       6.035  -1.727  22.592  0.00  0.00    -0.503 OA
ATOM     19  H   UNL     1       5.641  -2.286  23.284  0.00  0.00    +0.292 HD
ENDBRANCH  15  18
BRANCH  16  20
ATOM     20  O   UNL     1       7.984  -3.607  22.916  0.00  0.00    -0.321 OA
BRANCH  20  21
ATOM     21  S   UNL     1       7.788  -4.710  24.104  0.00  0.00    +0.251 S 
ATOM     22  O   UNL     1       7.224  -4.062  25.264  0.00  0.00    -0.108 OA
ATOM     23  O   UNL     1       8.973  -5.537  24.185  0.00  0.00    -0.108 OA
BRANCH  21  24
ATOM     24  O   UNL     1       6.657  -5.682  23.494  0.00  0.00    -0.222 OA
ATOM     25  H   UNL     1       6.844  -6.586  23.824  0.00  0.00    +0.248 HD
ENDBRANCH  21  24
ENDBRANCH  20  21
ENDBRANCH  16  20
ENDBRANCH   1  13
BRANCH   5  26
ATOM     26  O   UNL     1       9.762   6.939  24.368  0.00  0.00    -0.506 OA
ATOM     27  H   UNL     1      10.256   7.456  25.048  0.00  0.00    +0.292 HD
ENDBRANCH   5  26
BRANCH   7  28
ATOM     28  O   UNL     1      14.006   5.224  23.109  0.00  0.00    -0.507 OA
ATOM     29  H   UNL     1      14.145   6.157  22.875  0.00  0.00    +0.292 HD
ENDBRANCH   7  28
BRANCH  11  30
ATOM     30  O   UNL     1       6.912   2.582  24.754  0.00  0.00    -0.501 OA
ATOM     31  H   UNL     1       6.274   2.946  24.118  0.00  0.00    +0.292 HD
ENDBRANCH  11  30
TORSDOF 8
ENDMDL
MODEL 8
REMARK VINA RESULT:      -7.1      3.124      8.437
REMARK  Name = 
REMARK  8 active torsions:
REMARK  status: ('A' for Active; 'I' for Inactive)
REMARK    1  A    between atoms: C_3  and  O_22
REMARK    2  A    between atoms: C_4  and  O_21
REMARK    3  A    between atoms: C_6  and  C_7
REMARK    4  A    between atoms: C_8  and  O_20
REMARK    5  A    between atoms: C_12  and  O_19
REMARK    6  A    between atoms: C_14  and  O_18
REMARK    7  A    between atoms: O_22  and  S_23
REMARK    8  A    between atoms: S_23  and  O_26
REMARK                            x       y       z     vdW  Elec       q    Type
REMARK                         _______ _______ _______ _____ _____    ______ ____
ROOT
ATOM      1  C   UNL     1       7.669  -1.520  23.363  0.00  0.00    +0.181 A 
ATOM      2  O   UNL     1       6.876  -0.425  23.010  0.00  0.00    -0.451 OA
ATOM      3  C   UNL     1       7.457   0.809  22.862  0.00  0.00    +0.147 A 
ATOM      4  C   UNL     1       8.797   1.046  23.136  0.00  0.00    +0.109 A 
ATOM      5  C   UNL     1       9.330   2.333  22.986  0.00  0.00    +0.135 A 
ATOM      6  C   UNL     1       8.527   3.382  22.550  0.00  0.00    +0.091 A 
ATOM      7  C   UNL     1       7.188   3.129  22.269  0.00  0.00    +0.124 A 
ATOM      8  C   UNL     1       9.633  -0.081  23.556  0.00  0.00    +0.238 A 
ATOM      9  O   UNL     1      10.812   0.110  23.834  0.00  0.00    -0.283 OA
ATOM     10  C   UNL     1       6.645   1.856  22.422  0.00  0.00    +0.092 A 
ATOM     11  C   UNL     1       8.998  -1.427  23.594  0.00  0.00    +0.208 A 
ENDROOT
BRANCH   1  13
ATOM     12  C   UNL     1       6.512  -3.266  24.747  0.00  0.00    +0.015 A 
ATOM     13  C   UNL     1       6.875  -2.777  23.478  0.00  0.00    +0.025 A 
ATOM     14  C   UNL     1       6.532  -3.561  22.363  0.00  0.00    +0.061 A 
ATOM     15  C   UNL     1       5.852  -4.770  22.522  0.00  0.00    +0.162 A 
ATOM     16  C   UNL     1       5.544  -5.268  23.787  0.00  0.00    +0.200 A 
ATOM     17  C   UNL     1       5.856  -4.496  24.903  0.00  0.00    +0.053 A 
BRANCH  15  18
ATOM     18  O   UNL     1       5.518  -5.455  21.387  0.00  0.00    -0.503 OA
ATOM     19  H   UNL     1       5.407  -4.804  20.672  0.00  0.00    +0.292 HD
ENDBRANCH  15  18
BRANCH  16  20
ATOM     20  O   UNL     1       4.932  -6.492  23.840  0.00  0.00    -0.321 OA
BRANCH  20  21
ATOM     21  S   UNL     1       3.306  -6.611  23.919  0.00  0.00    +0.251 S 
ATOM     22  O   UNL     1       2.732  -6.076  22.707  0.00  0.00    -0.108 OA
ATOM     23  O   UNL     1       2.861  -6.192  25.231  0.00  0.00    -0.108 OA
BRANCH  21  24
ATOM     24  O   UNL     1       3.072  -8.205  23.904  0.00  0.00    -0.222 OA
ATOM     25  H   UNL     1       3.635  -8.587  24.609  0.00  0.00    +0.248 HD
ENDBRANCH  21  24
ENDBRANCH  20  21
ENDBRANCH  16  20
ENDBRANCH   1  13
BRANCH   5  26
ATOM     26  O   UNL     1      10.641   2.634  23.248  0.00  0.00    -0.506 OA
ATOM     27  H   UNL     1      11.050   2.963  22.413  0.00  0.00    +0.292 HD
ENDBRANCH   5  26
BRANCH   7  28
ATOM     28  O   UNL     1       6.365   4.130  21.829  0.00  0.00    -0.507 OA
ATOM     29  H   UNL     1       6.852   4.970  21.848  0.00  0.00    +0.292 HD
ENDBRANCH   7  28
BRANCH  11  30
ATOM     30  O   UNL     1       9.843  -2.489  23.856  0.00  0.00    -0.501 OA
ATOM     31  H   UNL     1      10.042  -2.945  23.022  0.00  0.00    +0.292 HD
ENDBRANCH  11  30
TORSDOF 8
ENDMDL
MODEL 9
REMARK VINA RESULT:      -7.1      3.127      8.241
REMARK  Name = 
REMARK  8 active torsions:
REMARK  status: ('A' for Active; 'I' for Inactive)
REMARK    1  A    between atoms: C_3  and  O_22
REMARK    2  A    between atoms: C_4  and  O_21
REMARK    3  A    between atoms: C_6  and  C_7
REMARK    4  A    between atoms: C_8  and  O_20
REMARK    5  A    between atoms: C_12  and  O_19
REMARK    6  A    between atoms: C_14  and  O_18
REMARK    7  A    between atoms: O_22  and  S_23
REMARK    8  A    between atoms: S_23  and  O_26
REMARK                            x       y       z     vdW  Elec       q    Type
REMARK                         _______ _______ _______ _____ _____    ______ ____
ROOT
ATOM      1  C   UNL     1       8.165  -0.572  23.201  0.00  0.00    +0.181 A 
ATOM      2  O   UNL     1       7.683   0.172  24.281  0.00  0.00    -0.451 OA
ATOM      3  C   UNL     1       8.072   1.480  24.426  0.00  0.00    +0.147 A 
ATOM      4  C   UNL     1       9.004   2.083  23.592  0.00  0.00    +0.109 A 
ATOM      5  C   UNL     1       9.378   3.417  23.803  0.00  0.00    +0.135 A 
ATOM      6  C   UNL     1       8.812   4.153  24.839  0.00  0.00    +0.091 A 
ATOM      7  C   UNL     1       7.872   3.540  25.661  0.00  0.00    +0.124 A 
ATOM      8  C   UNL     1       9.558   1.302  22.485  0.00  0.00    +0.238 A 
ATOM      9  O   UNL     1      10.406   1.803  21.754  0.00  0.00    -0.283 OA
ATOM     10  C   UNL     1       7.498   2.213  25.467  0.00  0.00    +0.092 A 
ATOM     11  C   UNL     1       9.027  -0.075  22.286  0.00  0.00    +0.208 A 
ENDROOT
BRANCH   1  13
ATOM     12  C   UNL     1       6.388  -2.247  22.618  0.00  0.00    +0.015 A 
ATOM     13  C   UNL     1       7.639  -1.968  23.199  0.00  0.00    +0.025 A 
ATOM     14  C   UNL     1       8.307  -3.029  23.833  0.00  0.00    +0.061 A 
ATOM     15  C   UNL     1       7.744  -4.306  23.870  0.00  0.00    +0.162 A 
ATOM     16  C   UNL     1       6.482  -4.558  23.337  0.00  0.00    +0.200 A 
ATOM     17  C   UNL     1       5.813  -3.524  22.686  0.00  0.00    +0.053 A 
BRANCH  15  18
ATOM     18  O   UNL     1       8.475  -5.296  24.469  0.00  0.00    -0.503 OA
ATOM     19  H   UNL     1       7.897  -5.738  25.116  0.00  0.00    +0.292 HD
ENDBRANCH  15  18
BRANCH  16  20
ATOM     20  O   UNL     1       5.989  -5.828  23.480  0.00  0.00    -0.321 OA
BRANCH  20  21
ATOM     21  S   UNL     1       4.969  -6.196  24.700  0.00  0.00    +0.251 S 
ATOM     22  O   UNL     1       4.379  -7.491  24.452  0.00  0.00    -0.108 OA
ATOM     23  O   UNL     1       4.167  -5.034  25.017  0.00  0.00    -0.108 OA
BRANCH  21  24
ATOM     24  O   UNL     1       5.968  -6.352  25.955  0.00  0.00    -0.222 OA
ATOM     25  H   UNL     1       6.875  -6.181  25.626  0.00  0.00    +0.248 HD
ENDBRANCH  21  24
ENDBRANCH  20  21
ENDBRANCH  16  20
ENDBRANCH   1  13
BRANCH   5  26
ATOM     26  O   UNL     1      10.297   4.067  23.022  0.00  0.00    -0.506 OA
ATOM     27  H   UNL     1      11.053   3.453  22.865  0.00  0.00    +0.292 HD
ENDBRANCH   5  26
BRANCH   7  28
ATOM     28  O   UNL     1       7.284   4.230  26.686  0.00  0.00    -0.507 OA
ATOM     29  H   UNL     1       7.202   3.643  27.456  0.00  0.00    +0.292 HD
ENDBRANCH   7  28
BRANCH  11  30
ATOM     30  O   UNL     1       9.462  -0.736  21.153  0.00  0.00    -0.501 OA
ATOM     31  H   UNL     1       8.737  -1.284  20.811  0.00  0.00    +0.292 HD
ENDBRANCH  11  30
TORSDOF 8
ENDMDL
