MODEL 1
REMARK VINA RESULT:      -7.8      0.000      0.000
REMARK  Name = 
REMARK  13 active torsions:
REMARK  status: ('A' for Active; 'I' for Inactive)
REMARK    1  A    between atoms: C_1  and  C_2
REMARK    2  A    between atoms: C_3  and  O_37
REMARK    3  A    between atoms: C_5  and  O_36
REMARK    4  A    between atoms: C_6  and  O_35
REMARK    5  A    between atoms: C_8  and  O_11
REMARK    6  A    between atoms: O_11  and  C_12
REMARK    7  A    between atoms: C_14  and  O_34
REMARK    8  A    between atoms: C_19  and  C_25
REMARK    9  A    between atoms: C_20  and  O_23
REMARK   10  A    between atoms: O_23  and  C_24
REMARK   11  A    between atoms: C_27  and  O_33
REMARK   12  A    between atoms: C_28  and  O_31
REMARK   13  A    between atoms: O_31  and  C_32
REMARK                            x       y       z     vdW  Elec       q    Type
REMARK                         _______ _______ _______ _____ _____    ______ ____
ROOT
ATOM      1  C   UNL     1       7.242   1.272  23.589  0.00  0.00    +0.131 A 
ATOM      2  C   UNL     1       6.548   0.073  23.740  0.00  0.00    +0.093 A 
ATOM      3  C   UNL     1       7.247  -1.143  23.794  0.00  0.00    +0.147 A 
ATOM      4  O   UNL     1       6.489  -2.279  23.940  0.00  0.00    -0.451 OA
ATOM      5  C   UNL     1       7.130  -3.502  24.039  0.00  0.00    +0.181 A 
ATOM      6  C   UNL     1       8.462  -3.696  23.961  0.00  0.00    +0.211 A 
ATOM      7  C   UNL     1       9.317  -2.480  23.737  0.00  0.00    +0.238 A 
ATOM      8  O   UNL     1      10.528  -2.560  23.586  0.00  0.00    -0.283 OA
ATOM      9  C   UNL     1       8.635  -1.169  23.700  0.00  0.00    +0.109 A 
ATOM     10  C   UNL     1       9.328   0.042  23.560  0.00  0.00    +0.135 A 
ATOM     11  C   UNL     1       8.634   1.250  23.504  0.00  0.00    +0.092 A 
ENDROOT
BRANCH   5  12
ATOM     12  C   UNL     1       6.187  -4.614  24.290  0.00  0.00    +0.025 A 
ATOM     13  C   UNL     1       5.364  -5.076  23.254  0.00  0.00    +0.015 A 
ATOM     14  C   UNL     1       4.493  -6.159  23.450  0.00  0.00    +0.050 A 
ATOM     15  C   UNL     1       4.434  -6.804  24.686  0.00  0.00    +0.161 A 
ATOM     16  C   UNL     1       5.239  -6.323  25.730  0.00  0.00    +0.159 A 
ATOM     17  C   UNL     1       6.108  -5.239  25.542  0.00  0.00    +0.060 A 
BRANCH  15  18
ATOM     18  O   UNL     1       3.644  -7.888  24.971  0.00  0.00    -0.491 OA
ATOM     19  C   UNL     1       2.338  -7.917  24.412  0.00  0.00    +0.277 C 
ENDBRANCH  15  18
BRANCH  16  20
ATOM     20  O   UNL     1       5.175  -6.941  26.953  0.00  0.00    -0.503 OA
ATOM     21  H   UNL     1       4.249  -6.991  27.239  0.00  0.00    +0.292 HD
ENDBRANCH  16  20
ENDBRANCH   5  12
BRANCH   6  22
ATOM     22  O   UNL     1       8.981  -4.980  24.090  0.00  0.00    -0.488 OA
ATOM     23  C   UNL     1       9.667  -5.304  25.294  0.00  0.00    +0.277 C 
ENDBRANCH   6  22
BRANCH  10  24
ATOM     24  O   UNL     1      10.691   0.080  23.484  0.00  0.00    -0.506 OA
ATOM     25  H   UNL     1      10.994  -0.271  22.632  0.00  0.00    +0.292 HD
ENDBRANCH  10  24
BRANCH   1  26
ATOM     26  O   UNL     1       6.719   2.528  23.506  0.00  0.00    -0.461 OA
BRANCH  26  30
ATOM     27  C   UNL     1      10.188   5.070  23.883  0.00  0.00    +0.041 C 
ATOM     28  C   UNL     1       8.771   5.475  24.289  0.00  0.00    +0.150 C 
ATOM     29  O   UNL     1       7.933   4.326  24.460  0.00  0.00    -0.334 OA
ATOM     30  C   UNL     1       7.588   3.635  23.253  0.00  0.00    +0.339 C 
ATOM     31  C   UNL     1       6.850   4.578  22.274  0.00  0.00    +0.214 C 
ATOM     32  C   UNL     1       7.713   5.816  22.007  0.00  0.00    +0.180 C 
ATOM     33  C   UNL     1       8.135   6.485  23.324  0.00  0.00    +0.174 C 
BRANCH  31  34
ATOM     34  O   UNL     1       5.585   5.015  22.822  0.00  0.00    -0.383 OA
ATOM     35  H   UNL     1       4.918   4.410  22.443  0.00  0.00    +0.210 HD
ENDBRANCH  31  34
BRANCH  32  36
ATOM     36  O   UNL     1       6.960   6.749  21.215  0.00  0.00    -0.386 OA
ATOM     37  H   UNL     1       7.297   7.637  21.460  0.00  0.00    +0.210 HD
ENDBRANCH  32  36
BRANCH  33  38
ATOM     38  O   UNL     1       6.963   7.065  23.928  0.00  0.00    -0.387 OA
ATOM     39  H   UNL     1       6.202   6.814  23.354  0.00  0.00    +0.210 HD
ENDBRANCH  33  38
ENDBRANCH  26  30
ENDBRANCH   1  26
TORSDOF 10
ENDMDL
MODEL 2
REMARK VINA RESULT:      -7.6      1.636      9.519
REMARK  Name = 
REMARK  13 active torsions:
REMARK  status: ('A' for Active; 'I' for Inactive)
REMARK    1  A    between atoms: C_1  and  C_2
REMARK    2  A    between atoms: C_3  and  O_37
REMARK    3  A    between atoms: C_5  and  O_36
REMARK    4  A    between atoms: C_6  and  O_35
REMARK    5  A    between atoms: C_8  and  O_11
REMARK    6  A    between atoms: O_11  and  C_12
REMARK    7  A    between atoms: C_14  and  O_34
REMARK    8  A    between atoms: C_19  and  C_25
REMARK    9  A    between atoms: C_20  and  O_23
REMARK   10  A    between atoms: O_23  and  C_24
REMARK   11  A    between atoms: C_27  and  O_33
REMARK   12  A    between atoms: C_28  and  O_31
REMARK   13  A    between atoms: O_31  and  C_32
REMARK                            x       y       z     vdW  Elec       q    Type
REMARK                         _______ _______ _______ _____ _____    ______ ____
ROOT
ATOM      1  C   UNL     1       5.211  -4.336  22.877  0.00  0.00    +0.131 A 
ATOM      2  C   UNL     1       5.294  -2.945  22.909  0.00  0.00    +0.093 A 
ATOM      3  C   UNL     1       6.529  -2.319  23.142  0.00  0.00    +0.147 A 
ATOM      4  O   UNL     1       6.524  -0.946  23.162  0.00  0.00    -0.451 OA
ATOM      5  C   UNL     1       7.722  -0.276  23.348  0.00  0.00    +0.181 A 
ATOM      6  C   UNL     1       8.919  -0.859  23.558  0.00  0.00    +0.211 A 
ATOM      7  C   UNL     1       8.949  -2.361  23.604  0.00  0.00    +0.238 A 
ATOM      8  O   UNL     1       9.974  -2.980  23.855  0.00  0.00    -0.283 OA
ATOM      9  C   UNL     1       7.681  -3.073  23.339  0.00  0.00    +0.109 A 
ATOM     10  C   UNL     1       7.593  -4.472  23.293  0.00  0.00    +0.135 A 
ATOM     11  C   UNL     1       6.366  -5.094  23.065  0.00  0.00    +0.092 A 
ENDROOT
BRANCH   5  12
ATOM     12  C   UNL     1       7.568   1.191  23.248  0.00  0.00    +0.025 A 
ATOM     13  C   UNL     1       7.608   1.813  21.993  0.00  0.00    +0.015 A 
ATOM     14  C   UNL     1       7.418   3.197  21.864  0.00  0.00    +0.050 A 
ATOM     15  C   UNL     1       7.177   3.985  22.990  0.00  0.00    +0.161 A 
ATOM     16  C   UNL     1       7.163   3.366  24.249  0.00  0.00    +0.159 A 
ATOM     17  C   UNL     1       7.357   1.984  24.385  0.00  0.00    +0.060 A 
BRANCH  15  18
ATOM     18  O   UNL     1       6.946   5.337  22.970  0.00  0.00    -0.491 OA
ATOM     19  C   UNL     1       7.468   6.078  21.875  0.00  0.00    +0.277 C 
ENDBRANCH  15  18
BRANCH  16  20
ATOM     20  O   UNL     1       6.943   4.137  25.362  0.00  0.00    -0.503 OA
ATOM     21  H   UNL     1       6.170   4.703  25.214  0.00  0.00    +0.292 HD
ENDBRANCH  16  20
ENDBRANCH   5  12
BRANCH   6  22
ATOM     22  O   UNL     1      10.053  -0.068  23.716  0.00  0.00    -0.488 OA
ATOM     23  C   UNL     1      10.471   0.239  25.042  0.00  0.00    +0.277 C 
ENDBRANCH   6  22
BRANCH  10  24
ATOM     24  O   UNL     1       8.694  -5.262  23.458  0.00  0.00    -0.506 OA
ATOM     25  H   UNL     1       8.749  -5.921  22.748  0.00  0.00    +0.292 HD
ENDBRANCH  10  24
BRANCH   1  26
ATOM     26  O   UNL     1       4.097  -5.095  22.678  0.00  0.00    -0.461 OA
BRANCH  26  30
ATOM     27  C   UNL     1       1.701  -4.544  26.227  0.00  0.00    +0.041 C 
ATOM     28  C   UNL     1       3.055  -5.251  26.199  0.00  0.00    +0.150 C 
ATOM     29  O   UNL     1       3.795  -4.909  25.021  0.00  0.00    -0.334 OA
ATOM     30  C   UNL     1       3.281  -5.449  23.797  0.00  0.00    +0.339 C 
ATOM     31  C   UNL     1       3.234  -6.994  23.857  0.00  0.00    +0.214 C 
ATOM     32  C   UNL     1       2.416  -7.436  25.075  0.00  0.00    +0.180 C 
ATOM     33  C   UNL     1       2.941  -6.774  26.358  0.00  0.00    +0.174 C 
BRANCH  31  34
ATOM     34  O   UNL     1       4.564  -7.552  23.976  0.00  0.00    -0.383 OA
ATOM     35  H   UNL     1       5.090  -7.112  23.280  0.00  0.00    +0.210 HD
ENDBRANCH  31  34
BRANCH  32  36
ATOM     36  O   UNL     1       2.502  -8.864  25.203  0.00  0.00    -0.386 OA
ATOM     37  H   UNL     1       1.600  -9.202  25.013  0.00  0.00    +0.210 HD
ENDBRANCH  32  36
BRANCH  33  38
ATOM     38  O   UNL     1       4.236  -7.332  26.653  0.00  0.00    -0.387 OA
ATOM     39  H   UNL     1       4.899  -6.713  26.268  0.00  0.00    +0.210 HD
ENDBRANCH  33  38
ENDBRANCH  26  30
ENDBRANCH   1  26
TORSDOF 10
ENDMDL
MODEL 3
REMARK VINA RESULT:      -7.6      2.143      9.571
REMARK  Name = 
REMARK  13 active torsions:
REMARK  status: ('A' for Active; 'I' for Inactive)
REMARK    1  A    between atoms: C_1  and  C_2
REMARK    2  A    between atoms: C_3  and  O_37
REMARK    3  A    between atoms: C_5  and  O_36
REMARK    4  A    between atoms: C_6  and  O_35
REMARK    5  A    between atoms: C_8  and  O_11
REMARK    6  A    between atoms: O_11  and  C_12
REMARK    7  A    between atoms: C_14  and  O_34
REMARK    8  A    between atoms: C_19  and  C_25
REMARK    9  A    between atoms: C_20  and  O_23
REMARK   10  A    between atoms: O_23  and  C_24
REMARK   11  A    between atoms: C_27  and  O_33
REMARK   12  A    between atoms: C_28  and  O_31
REMARK   13  A    between atoms: O_31  and  C_32
REMARK                            x       y       z     vdW  Elec       q    Type
REMARK                         _______ _______ _______ _____ _____    ______ ____
ROOT
ATOM      1  C   UNL     1       7.296  -4.314  27.107  0.00  0.00    +0.131 A 
ATOM      2  C   UNL     1       7.067  -2.986  26.751  0.00  0.00    +0.093 A 
ATOM      3  C   UNL     1       7.836  -2.385  25.743  0.00  0.00    +0.147 A 
ATOM      4  O   UNL     1       7.550  -1.073  25.455  0.00  0.00    -0.451 OA
ATOM      5  C   UNL     1       8.252  -0.443  24.440  0.00  0.00    +0.181 A 
ATOM      6  C   UNL     1       9.245  -0.997  23.716  0.00  0.00    +0.211 A 
ATOM      7  C   UNL     1       9.626  -2.413  24.048  0.00  0.00    +0.238 A 
ATOM      8  O   UNL     1      10.557  -2.979  23.494  0.00  0.00    -0.283 OA
ATOM      9  C   UNL     1       8.830  -3.103  25.085  0.00  0.00    +0.109 A 
ATOM     10  C   UNL     1       9.047  -4.442  25.439  0.00  0.00    +0.135 A 
ATOM     11  C   UNL     1       8.285  -5.039  26.444  0.00  0.00    +0.092 A 
ENDROOT
BRANCH   5  12
ATOM     12  C   UNL     1       7.763   0.930  24.187  0.00  0.00    +0.025 A 
ATOM     13  C   UNL     1       8.478   2.026  24.687  0.00  0.00    +0.015 A 
ATOM     14  C   UNL     1       8.065   3.341  24.422  0.00  0.00    +0.050 A 
ATOM     15  C   UNL     1       6.930   3.583  23.647  0.00  0.00    +0.161 A 
ATOM     16  C   UNL     1       6.200   2.484  23.170  0.00  0.00    +0.159 A 
ATOM     17  C   UNL     1       6.605   1.168  23.434  0.00  0.00    +0.060 A 
BRANCH  15  18
ATOM     18  O   UNL     1       6.461   4.825  23.305  0.00  0.00    -0.491 OA
ATOM     19  C   UNL     1       7.163   5.540  22.297  0.00  0.00    +0.277 C 
ENDBRANCH  15  18
BRANCH  16  20
ATOM     20  O   UNL     1       5.074   2.714  22.421  0.00  0.00    -0.503 OA
ATOM     21  H   UNL     1       4.294   2.408  22.910  0.00  0.00    +0.292 HD
ENDBRANCH  16  20
ENDBRANCH   5  12
BRANCH   6  22
ATOM     22  O   UNL     1       9.861  -0.256  22.712  0.00  0.00    -0.488 OA
ATOM     23  C   UNL     1       9.416  -0.448  21.374  0.00  0.00    +0.277 C 
ENDBRANCH   6  22
BRANCH  10  24
ATOM     24  O   UNL     1       9.994  -5.202  24.814  0.00  0.00    -0.506 OA
ATOM     25  H   UNL     1      10.774  -4.665  24.601  0.00  0.00    +0.292 HD
ENDBRANCH  10  24
BRANCH   1  26
ATOM     26  O   UNL     1       6.652  -5.038  28.067  0.00  0.00    -0.461 OA
BRANCH  26  30
ATOM     27  C   UNL     1       2.616  -3.939  29.133  0.00  0.00    +0.041 C 
ATOM     28  C   UNL     1       3.274  -5.269  29.497  0.00  0.00    +0.150 C 
ATOM     29  O   UNL     1       4.701  -5.183  29.404  0.00  0.00    -0.334 OA
ATOM     30  C   UNL     1       5.223  -5.078  28.074  0.00  0.00    +0.339 C 
ATOM     31  C   UNL     1       4.797  -6.296  27.220  0.00  0.00    +0.214 C 
ATOM     32  C   UNL     1       3.270  -6.425  27.236  0.00  0.00    +0.180 C 
ATOM     33  C   UNL     1       2.737  -6.451  28.676  0.00  0.00    +0.174 C 
BRANCH  31  34
ATOM     34  O   UNL     1       5.362  -7.521  27.741  0.00  0.00    -0.383 OA
ATOM     35  H   UNL     1       5.542  -7.341  28.684  0.00  0.00    +0.210 HD
ENDBRANCH  31  34
BRANCH  32  36
ATOM     36  O   UNL     1       2.896  -7.638  26.564  0.00  0.00    -0.386 OA
ATOM     37  H   UNL     1       3.409  -8.352  27.001  0.00  0.00    +0.210 HD
ENDBRANCH  32  36
BRANCH  33  38
ATOM     38  O   UNL     1       3.145  -7.692  29.283  0.00  0.00    -0.387 OA
ATOM     39  H   UNL     1       2.665  -7.751  30.141  0.00  0.00    +0.210 HD
ENDBRANCH  33  38
ENDBRANCH  26  30
ENDBRANCH   1  26
TORSDOF 10
ENDMDL
MODEL 4
REMARK VINA RESULT:      -7.5      2.284      3.467
REMARK  Name = 
REMARK  13 active torsions:
REMARK  status: ('A' for Active; 'I' for Inactive)
REMARK    1  A    between atoms: C_1  and  C_2
REMARK    2  A    between atoms: C_3  and  O_37
REMARK    3  A    between atoms: C_5  and  O_36
REMARK    4  A    between atoms: C_6  and  O_35
REMARK    5  A    between atoms: C_8  and  O_11
REMARK    6  A    between atoms: O_11  and  C_12
REMARK    7  A    between atoms: C_14  and  O_34
REMARK    8  A    between atoms: C_19  and  C_25
REMARK    9  A    between atoms: C_20  and  O_23
REMARK   10  A    between atoms: O_23  and  C_24
REMARK   11  A    between atoms: C_27  and  O_33
REMARK   12  A    between atoms: C_28  and  O_31
REMARK   13  A    between atoms: O_31  and  C_32
REMARK                            x       y       z     vdW  Elec       q    Type
REMARK                         _______ _______ _______ _____ _____    ______ ____
ROOT
ATOM      1  C   UNL     1       9.821  -0.087  24.220  0.00  0.00    +0.131 A 
ATOM      2  C   UNL     1       9.106  -0.767  25.205  0.00  0.00    +0.093 A 
ATOM      3  C   UNL     1       8.408  -1.942  24.883  0.00  0.00    +0.147 A 
ATOM      4  O   UNL     1       7.726  -2.549  25.909  0.00  0.00    -0.451 OA
ATOM      5  C   UNL     1       7.053  -3.732  25.655  0.00  0.00    +0.181 A 
ATOM      6  C   UNL     1       6.966  -4.341  24.456  0.00  0.00    +0.211 A 
ATOM      7  C   UNL     1       7.649  -3.669  23.297  0.00  0.00    +0.238 A 
ATOM      8  O   UNL     1       7.572  -4.107  22.158  0.00  0.00    -0.283 OA
ATOM      9  C   UNL     1       8.422  -2.442  23.585  0.00  0.00    +0.109 A 
ATOM     10  C   UNL     1       9.153  -1.760  22.602  0.00  0.00    +0.135 A 
ATOM     11  C   UNL     1       9.844  -0.592  22.921  0.00  0.00    +0.092 A 
ENDROOT
BRANCH   5  12
ATOM     12  C   UNL     1       6.452  -4.311  26.877  0.00  0.00    +0.025 A 
ATOM     13  C   UNL     1       5.363  -3.674  27.486  0.00  0.00    +0.015 A 
ATOM     14  C   UNL     1       4.743  -4.225  28.618  0.00  0.00    +0.050 A 
ATOM     15  C   UNL     1       5.200  -5.428  29.159  0.00  0.00    +0.161 A 
ATOM     16  C   UNL     1       6.307  -6.050  28.564  0.00  0.00    +0.159 A 
ATOM     17  C   UNL     1       6.934  -5.503  27.435  0.00  0.00    +0.060 A 
BRANCH  15  18
ATOM     18  O   UNL     1       4.646  -6.064  30.240  0.00  0.00    -0.491 OA
ATOM     19  C   UNL     1       3.414  -6.746  30.045  0.00  0.00    +0.277 C 
ENDBRANCH  15  18
BRANCH  16  20
ATOM     20  O   UNL     1       6.772  -7.224  29.100  0.00  0.00    -0.503 OA
ATOM     21  H   UNL     1       6.195  -7.954  28.825  0.00  0.00    +0.292 HD
ENDBRANCH  16  20
ENDBRANCH   5  12
BRANCH   6  22
ATOM     22  O   UNL     1       6.267  -5.539  24.340  0.00  0.00    -0.488 OA
ATOM     23  C   UNL     1       4.934  -5.487  23.845  0.00  0.00    +0.277 C 
ENDBRANCH   6  22
BRANCH  10  24
ATOM     24  O   UNL     1       9.220  -2.216  21.317  0.00  0.00    -0.506 OA
ATOM     25  H   UNL     1      10.092  -2.029  20.935  0.00  0.00    +0.292 HD
ENDBRANCH  10  24
BRANCH   1  26
ATOM     26  O   UNL     1      10.536   1.065  24.363  0.00  0.00    -0.461 OA
BRANCH  26  30
ATOM     27  C   UNL     1       7.507   3.757  25.851  0.00  0.00    +0.041 C 
ATOM     28  C   UNL     1       7.697   3.400  24.378  0.00  0.00    +0.150 C 
ATOM     29  O   UNL     1       8.456   2.194  24.231  0.00  0.00    -0.334 OA
ATOM     30  C   UNL     1       9.843   2.298  24.575  0.00  0.00    +0.339 C 
ATOM     31  C   UNL     1      10.543   3.370  23.706  0.00  0.00    +0.214 C 
ATOM     32  C   UNL     1       9.808   4.707  23.850  0.00  0.00    +0.180 C 
ATOM     33  C   UNL     1       8.310   4.543  23.556  0.00  0.00    +0.174 C 
BRANCH  31  34
ATOM     34  O   UNL     1      10.538   2.995  22.309  0.00  0.00    -0.383 OA
ATOM     35  H   UNL     1      10.783   2.050  22.296  0.00  0.00    +0.210 HD
ENDBRANCH  31  34
BRANCH  32  36
ATOM     36  O   UNL     1      10.377   5.654  22.931  0.00  0.00    -0.386 OA
ATOM     37  H   UNL     1      10.761   5.119  22.203  0.00  0.00    +0.210 HD
ENDBRANCH  32  36
BRANCH  33  38
ATOM     38  O   UNL     1       8.156   4.269  22.150  0.00  0.00    -0.387 OA
ATOM     39  H   UNL     1       8.500   3.358  22.006  0.00  0.00    +0.210 HD
ENDBRANCH  33  38
ENDBRANCH  26  30
ENDBRANCH   1  26
TORSDOF 10
ENDMDL
MODEL 5
REMARK VINA RESULT:      -7.4      1.738      9.502
REMARK  Name = 
REMARK  13 active torsions:
REMARK  status: ('A' for Active; 'I' for Inactive)
REMARK    1  A    between atoms: C_1  and  C_2
REMARK    2  A    between atoms: C_3  and  O_37
REMARK    3  A    between atoms: C_5  and  O_36
REMARK    4  A    between atoms: C_6  and  O_35
REMARK    5  A    between atoms: C_8  and  O_11
REMARK    6  A    between atoms: O_11  and  C_12
REMARK    7  A    between atoms: C_14  and  O_34
REMARK    8  A    between atoms: C_19  and  C_25
REMARK    9  A    between atoms: C_20  and  O_23
REMARK   10  A    between atoms: O_23  and  C_24
REMARK   11  A    between atoms: C_27  and  O_33
REMARK   12  A    between atoms: C_28  and  O_31
REMARK   13  A    between atoms: O_31  and  C_32
REMARK                            x       y       z     vdW  Elec       q    Type
REMARK                         _______ _______ _______ _____ _____    ______ ____
ROOT
ATOM      1  C   UNL     1       6.699  -3.052  22.783  0.00  0.00    +0.131 A 
ATOM      2  C   UNL     1       6.343  -1.704  22.809  0.00  0.00    +0.093 A 
ATOM      3  C   UNL     1       7.274  -0.737  23.218  0.00  0.00    +0.147 A 
ATOM      4  O   UNL     1       6.843   0.566  23.219  0.00  0.00    -0.451 OA
ATOM      5  C   UNL     1       7.734   1.564  23.576  0.00  0.00    +0.181 A 
ATOM      6  C   UNL     1       9.007   1.371  23.974  0.00  0.00    +0.211 A 
ATOM      7  C   UNL     1       9.492  -0.050  24.046  0.00  0.00    +0.238 A 
ATOM      8  O   UNL     1      10.607  -0.333  24.459  0.00  0.00    -0.283 OA
ATOM      9  C   UNL     1       8.560  -1.108  23.600  0.00  0.00    +0.109 A 
ATOM     10  C   UNL     1       8.916  -2.463  23.561  0.00  0.00    +0.135 A 
ATOM     11  C   UNL     1       7.990  -3.425  23.157  0.00  0.00    +0.092 A 
ENDROOT
BRANCH   5  12
ATOM     12  C   UNL     1       7.151   2.916  23.433  0.00  0.00    +0.025 A 
ATOM     13  C   UNL     1       6.173   3.353  24.337  0.00  0.00    +0.015 A 
ATOM     14  C   UNL     1       5.637   4.646  24.254  0.00  0.00    +0.050 A 
ATOM     15  C   UNL     1       6.073   5.531  23.267  0.00  0.00    +0.161 A 
ATOM     16  C   UNL     1       7.033   5.084  22.346  0.00  0.00    +0.159 A 
ATOM     17  C   UNL     1       7.570   3.791  22.420  0.00  0.00    +0.060 A 
BRANCH  15  18
ATOM     18  O   UNL     1       5.638   6.823  23.120  0.00  0.00    -0.491 OA
ATOM     19  C   UNL     1       4.308   7.023  22.662  0.00  0.00    +0.277 C 
ENDBRANCH  15  18
BRANCH  16  20
ATOM     20  O   UNL     1       7.455   5.943  21.362  0.00  0.00    -0.503 OA
ATOM     21  H   UNL     1       8.412   5.847  21.242  0.00  0.00    +0.292 HD
ENDBRANCH  16  20
ENDBRANCH   5  12
BRANCH   6  22
ATOM     22  O   UNL     1       9.803   2.466  24.293  0.00  0.00    -0.488 OA
ATOM     23  C   UNL     1      10.844   2.819  23.389  0.00  0.00    +0.277 C 
ENDBRANCH   6  22
BRANCH  10  24
ATOM     24  O   UNL     1      10.169  -2.883  23.904  0.00  0.00    -0.506 OA
ATOM     25  H   UNL     1      10.178  -3.216  24.815  0.00  0.00    +0.292 HD
ENDBRANCH  10  24
BRANCH   1  26
ATOM     26  O   UNL     1       5.916  -4.109  22.427  0.00  0.00    -0.461 OA
BRANCH  26  30
ATOM     27  C   UNL     1       2.822  -3.572  25.389  0.00  0.00    +0.041 C 
ATOM     28  C   UNL     1       3.892  -4.661  25.445  0.00  0.00    +0.150 C 
ATOM     29  O   UNL     1       5.005  -4.338  24.603  0.00  0.00    -0.334 OA
ATOM     30  C   UNL     1       4.747  -4.406  23.195  0.00  0.00    +0.339 C 
ATOM     31  C   UNL     1       4.285  -5.826  22.791  0.00  0.00    +0.214 C 
ATOM     32  C   UNL     1       3.062  -6.225  23.625  0.00  0.00    +0.180 C 
ATOM     33  C   UNL     1       3.345  -6.060  25.126  0.00  0.00    +0.174 C 
BRANCH  31  34
ATOM     34  O   UNL     1       5.329  -6.800  23.021  0.00  0.00    -0.383 OA
ATOM     35  H   UNL     1       4.913  -7.668  22.854  0.00  0.00    +0.210 HD
ENDBRANCH  31  34
BRANCH  32  36
ATOM     36  O   UNL     1       2.732  -7.594  23.346  0.00  0.00    -0.386 OA
ATOM     37  H   UNL     1       3.537  -8.111  23.566  0.00  0.00    +0.210 HD
ENDBRANCH  32  36
BRANCH  33  38
ATOM     38  O   UNL     1       4.306  -7.060  25.514  0.00  0.00    -0.387 OA
ATOM     39  H   UNL     1       4.401  -7.666  24.743  0.00  0.00    +0.210 HD
ENDBRANCH  33  38
ENDBRANCH  26  30
ENDBRANCH   1  26
TORSDOF 10
ENDMDL
MODEL 6
REMARK VINA RESULT:      -7.2      1.928      9.645
REMARK  Name = 
REMARK  13 active torsions:
REMARK  status: ('A' for Active; 'I' for Inactive)
REMARK    1  A    between atoms: C_1  and  C_2
REMARK    2  A    between atoms: C_3  and  O_37
REMARK    3  A    between atoms: C_5  and  O_36
REMARK    4  A    between atoms: C_6  and  O_35
REMARK    5  A    between atoms: C_8  and  O_11
REMARK    6  A    between atoms: O_11  and  C_12
REMARK    7  A    between atoms: C_14  and  O_34
REMARK    8  A    between atoms: C_19  and  C_25
REMARK    9  A    between atoms: C_20  and  O_23
REMARK   10  A    between atoms: O_23  and  C_24
REMARK   11  A    between atoms: C_27  and  O_33
REMARK   12  A    between atoms: C_28  and  O_31
REMARK   13  A    between atoms: O_31  and  C_32
REMARK                            x       y       z     vdW  Elec       q    Type
REMARK                         _______ _______ _______ _____ _____    ______ ____
ROOT
ATOM      1  C   UNL     1       5.528  -4.089  24.802  0.00  0.00    +0.131 A 
ATOM      2  C   UNL     1       5.665  -2.703  24.730  0.00  0.00    +0.093 A 
ATOM      3  C   UNL     1       6.910  -2.133  24.421  0.00  0.00    +0.147 A 
ATOM      4  O   UNL     1       6.961  -0.762  24.373  0.00  0.00    -0.451 OA
ATOM      5  C   UNL     1       8.155  -0.149  24.033  0.00  0.00    +0.181 A 
ATOM      6  C   UNL     1       9.315  -0.785  23.778  0.00  0.00    +0.211 A 
ATOM      7  C   UNL     1       9.311  -2.285  23.883  0.00  0.00    +0.238 A 
ATOM      8  O   UNL     1      10.328  -2.947  23.735  0.00  0.00    -0.283 OA
ATOM      9  C   UNL     1       8.019  -2.939  24.180  0.00  0.00    +0.109 A 
ATOM     10  C   UNL     1       7.872  -4.332  24.242  0.00  0.00    +0.135 A 
ATOM     11  C   UNL     1       6.636  -4.898  24.552  0.00  0.00    +0.092 A 
ENDROOT
BRANCH   5  12
ATOM     12  C   UNL     1       8.023   1.321  23.930  0.00  0.00    +0.025 A 
ATOM     13  C   UNL     1       8.321   2.126  25.038  0.00  0.00    +0.015 A 
ATOM     14  C   UNL     1       8.251   3.525  24.955  0.00  0.00    +0.050 A 
ATOM     15  C   UNL     1       7.886   4.145  23.760  0.00  0.00    +0.161 A 
ATOM     16  C   UNL     1       7.563   3.337  22.659  0.00  0.00    +0.159 A 
ATOM     17  C   UNL     1       7.627   1.939  22.736  0.00  0.00    +0.060 A 
BRANCH  15  18
ATOM     18  O   UNL     1       7.819   5.501  23.565  0.00  0.00    -0.491 OA
ATOM     19  C   UNL     1       9.040   6.202  23.378  0.00  0.00    +0.277 C 
ENDBRANCH  15  18
BRANCH  16  20
ATOM     20  O   UNL     1       7.188   3.939  21.485  0.00  0.00    -0.503 OA
ATOM     21  H   UNL     1       6.407   4.493  21.642  0.00  0.00    +0.292 HD
ENDBRANCH  16  20
ENDBRANCH   5  12
BRANCH   6  22
ATOM     22  O   UNL     1      10.444  -0.048  23.432  0.00  0.00    -0.488 OA
ATOM     23  C   UNL     1      11.318   0.361  24.479  0.00  0.00    +0.277 C 
ENDBRANCH   6  22
BRANCH  10  24
ATOM     24  O   UNL     1       8.919  -5.172  23.995  0.00  0.00    -0.506 OA
ATOM     25  H   UNL     1       8.946  -5.415  23.056  0.00  0.00    +0.292 HD
ENDBRANCH  10  24
BRANCH   1  26
ATOM     26  O   UNL     1       4.402  -4.795  25.102  0.00  0.00    -0.461 OA
BRANCH  26  30
ATOM     27  C   UNL     1       4.096  -3.884  29.310  0.00  0.00    +0.041 C 
ATOM     28  C   UNL     1       4.845  -5.087  28.739  0.00  0.00    +0.150 C 
ATOM     29  O   UNL     1       5.143  -4.900  27.351  0.00  0.00    -0.334 OA
ATOM     30  C   UNL     1       4.014  -4.951  26.469  0.00  0.00    +0.339 C 
ATOM     31  C   UNL     1       3.290  -6.313  26.586  0.00  0.00    +0.214 C 
ATOM     32  C   UNL     1       2.898  -6.562  28.046  0.00  0.00    +0.180 C 
ATOM     33  C   UNL     1       4.115  -6.417  28.973  0.00  0.00    +0.174 C 
BRANCH  31  34
ATOM     34  O   UNL     1       4.144  -7.397  26.152  0.00  0.00    -0.383 OA
ATOM     35  H   UNL     1       3.767  -8.200  26.562  0.00  0.00    +0.210 HD
ENDBRANCH  31  34
BRANCH  32  36
ATOM     36  O   UNL     1       2.359  -7.888  28.166  0.00  0.00    -0.386 OA
ATOM     37  H   UNL     1       1.465  -7.848  27.762  0.00  0.00    +0.210 HD
ENDBRANCH  32  36
BRANCH  33  38
ATOM     38  O   UNL     1       5.009  -7.517  28.714  0.00  0.00    -0.387 OA
ATOM     39  H   UNL     1       4.894  -8.149  29.461  0.00  0.00    +0.210 HD
ENDBRANCH  33  38
ENDBRANCH  26  30
ENDBRANCH   1  26
TORSDOF 10
ENDMDL
MODEL 7
REMARK VINA RESULT:      -7.1      1.627      9.780
REMARK  Name = 
REMARK  13 active torsions:
REMARK  status: ('A' for Active; 'I' for Inactive)
REMARK    1  A    between atoms: C_1  and  C_2
REMARK    2  A    between atoms: C_3  and  O_37
REMARK    3  A    between atoms: C_5  and  O_36
REMARK    4  A    between atoms: C_6  and  O_35
REMARK    5  A    between atoms: C_8  and  O_11
REMARK    6  A    between atoms: O_11  and  C_12
REMARK    7  A    between atoms: C_14  and  O_34
REMARK    8  A    between atoms: C_19  and  C_25
REMARK    9  A    between atoms: C_20  and  O_23
REMARK   10  A    between atoms: O_23  and  C_24
REMARK   11  A    between atoms: C_27  and  O_33
REMARK   12  A    between atoms: C_28  and  O_31
REMARK   13  A    between atoms: O_31  and  C_32
REMARK                            x       y       z     vdW  Elec       q    Type
REMARK                         _______ _______ _______ _____ _____    ______ ____
ROOT
ATOM      1  C   UNL     1       5.844  -4.337  25.743  0.00  0.00    +0.131 A 
ATOM      2  C   UNL     1       5.885  -2.952  25.586  0.00  0.00    +0.093 A 
ATOM      3  C   UNL     1       7.014  -2.341  25.019  0.00  0.00    +0.147 A 
ATOM      4  O   UNL     1       6.976  -0.973  24.904  0.00  0.00    -0.451 OA
ATOM      5  C   UNL     1       8.047  -0.322  24.314  0.00  0.00    +0.181 A 
ATOM      6  C   UNL     1       9.173  -0.915  23.869  0.00  0.00    +0.211 A 
ATOM      7  C   UNL     1       9.274  -2.405  24.038  0.00  0.00    +0.238 A 
ATOM      8  O   UNL     1      10.282  -3.024  23.727  0.00  0.00    -0.283 OA
ATOM      9  C   UNL     1       8.102  -3.104  24.606  0.00  0.00    +0.109 A 
ATOM     10  C   UNL     1       8.050  -4.497  24.755  0.00  0.00    +0.135 A 
ATOM     11  C   UNL     1       6.929  -5.105  25.321  0.00  0.00    +0.092 A 
ENDROOT
BRANCH   5  12
ATOM     12  C   UNL     1       7.814   1.132  24.175  0.00  0.00    +0.025 A 
ATOM     13  C   UNL     1       8.305   2.012  25.148  0.00  0.00    +0.015 A 
ATOM     14  C   UNL     1       8.140   3.399  25.018  0.00  0.00    +0.050 A 
ATOM     15  C   UNL     1       7.485   3.932  23.907  0.00  0.00    +0.161 A 
ATOM     16  C   UNL     1       6.971   3.048  22.947  0.00  0.00    +0.159 A 
ATOM     17  C   UNL     1       7.129   1.661  23.073  0.00  0.00    +0.060 A 
BRANCH  15  18
ATOM     18  O   UNL     1       7.300   5.270  23.670  0.00  0.00    -0.491 OA
ATOM     19  C   UNL     1       6.295   5.941  24.418  0.00  0.00    +0.277 C 
ENDBRANCH  15  18
BRANCH  16  20
ATOM     20  O   UNL     1       6.311   3.564  21.860  0.00  0.00    -0.503 OA
ATOM     21  H   UNL     1       6.593   4.482  21.719  0.00  0.00    +0.292 HD
ENDBRANCH  16  20
ENDBRANCH   5  12
BRANCH   6  22
ATOM     22  O   UNL     1      10.171  -0.144  23.282  0.00  0.00    -0.488 OA
ATOM     23  C   UNL     1      10.193  -0.050  21.862  0.00  0.00    +0.277 C 
ENDBRANCH   6  22
BRANCH  10  24
ATOM     24  O   UNL     1       9.078  -5.298  24.348  0.00  0.00    -0.506 OA
ATOM     25  H   UNL     1       9.716  -5.423  25.068  0.00  0.00    +0.292 HD
ENDBRANCH  10  24
BRANCH   1  26
ATOM     26  O   UNL     1       4.837  -5.080  26.283  0.00  0.00    -0.461 OA
BRANCH  26  30
ATOM     27  C   UNL     1       1.663  -5.267  23.364  0.00  0.00    +0.041 C 
ATOM     28  C   UNL     1       1.511  -5.663  24.832  0.00  0.00    +0.150 C 
ATOM     29  O   UNL     1       2.559  -5.101  25.630  0.00  0.00    -0.334 OA
ATOM     30  C   UNL     1       3.859  -5.667  25.421  0.00  0.00    +0.339 C 
ATOM     31  C   UNL     1       3.848  -7.186  25.712  0.00  0.00    +0.214 C 
ATOM     32  C   UNL     1       2.775  -7.865  24.854  0.00  0.00    +0.180 C 
ATOM     33  C   UNL     1       1.412  -7.181  25.039  0.00  0.00    +0.174 C 
BRANCH  31  34
ATOM     34  O   UNL     1       3.552  -7.450  27.103  0.00  0.00    -0.383 OA
ATOM     35  H   UNL     1       4.421  -7.558  27.535  0.00  0.00    +0.210 HD
ENDBRANCH  31  34
BRANCH  32  36
ATOM     36  O   UNL     1       2.674  -9.246  25.237  0.00  0.00    -0.386 OA
ATOM     37  H   UNL     1       1.945  -9.618  24.696  0.00  0.00    +0.210 HD
ENDBRANCH  32  36
BRANCH  33  38
ATOM     38  O   UNL     1       0.946  -7.462  26.372  0.00  0.00    -0.387 OA
ATOM     39  H   UNL     1       1.005  -8.439  26.487  0.00  0.00    +0.210 HD
ENDBRANCH  33  38
ENDBRANCH  26  30
ENDBRANCH   1  26
TORSDOF 10
ENDMDL
MODEL 8
REMARK VINA RESULT:      -6.7      2.463      9.450
REMARK  Name = 
REMARK  13 active torsions:
REMARK  status: ('A' for Active; 'I' for Inactive)
REMARK    1  A    between atoms: C_1  and  C_2
REMARK    2  A    between atoms: C_3  and  O_37
REMARK    3  A    between atoms: C_5  and  O_36
REMARK    4  A    between atoms: C_6  and  O_35
REMARK    5  A    between atoms: C_8  and  O_11
REMARK    6  A    between atoms: O_11  and  C_12
REMARK    7  A    between atoms: C_14  and  O_34
REMARK    8  A    between atoms: C_19  and  C_25
REMARK    9  A    between atoms: C_20  and  O_23
REMARK   10  A    between atoms: O_23  and  C_24
REMARK   11  A    between atoms: C_27  and  O_33
REMARK   12  A    between atoms: C_28  and  O_31
REMARK   13  A    between atoms: O_31  and  C_32
REMARK                            x       y       z     vdW  Elec       q    Type
REMARK                         _______ _______ _______ _____ _____    ______ ____
ROOT
ATOM      1  C   UNL     1       9.513  -2.090  24.121  0.00  0.00    +0.131 A 
ATOM      2  C   UNL     1       9.177  -0.986  24.903  0.00  0.00    +0.093 A 
ATOM      3  C   UNL     1       8.958   0.263  24.301  0.00  0.00    +0.147 A 
ATOM      4  O   UNL     1       8.636   1.300  25.141  0.00  0.00    -0.451 OA
ATOM      5  C   UNL     1       8.370   2.544  24.596  0.00  0.00    +0.181 A 
ATOM      6  C   UNL     1       8.440   2.855  23.286  0.00  0.00    +0.211 A 
ATOM      7  C   UNL     1       8.852   1.758  22.344  0.00  0.00    +0.238 A 
ATOM      8  O   UNL     1       9.009   1.958  21.148  0.00  0.00    -0.283 OA
ATOM      9  C   UNL     1       9.069   0.415  22.922  0.00  0.00    +0.109 A 
ATOM     10  C   UNL     1       9.395  -0.702  22.140  0.00  0.00    +0.135 A 
ATOM     11  C   UNL     1       9.616  -1.942  22.738  0.00  0.00    +0.092 A 
ENDROOT
BRANCH   5  12
ATOM     12  C   UNL     1       7.945   3.527  25.616  0.00  0.00    +0.025 A 
ATOM     13  C   UNL     1       7.073   3.134  26.641  0.00  0.00    +0.015 A 
ATOM     14  C   UNL     1       6.691   4.032  27.649  0.00  0.00    +0.050 A 
ATOM     15  C   UNL     1       7.178   5.340  27.654  0.00  0.00    +0.161 A 
ATOM     16  C   UNL     1       8.030   5.739  26.612  0.00  0.00    +0.159 A 
ATOM     17  C   UNL     1       8.412   4.848  25.600  0.00  0.00    +0.060 A 
BRANCH  15  18
ATOM     18  O   UNL     1       6.893   6.283  28.608  0.00  0.00    -0.491 OA
ATOM     19  C   UNL     1       5.536   6.675  28.761  0.00  0.00    +0.277 C 
ENDBRANCH  15  18
BRANCH  16  20
ATOM     20  O   UNL     1       8.500   7.028  26.601  0.00  0.00    -0.503 OA
ATOM     21  H   UNL     1       8.829   7.258  27.484  0.00  0.00    +0.292 HD
ENDBRANCH  16  20
ENDBRANCH   5  12
BRANCH   6  22
ATOM     22  O   UNL     1       8.133   4.146  22.866  0.00  0.00    -0.488 OA
ATOM     23  C   UNL     1       6.870   4.363  22.248  0.00  0.00    +0.277 C 
ENDBRANCH   6  22
BRANCH  10  24
ATOM     24  O   UNL     1       9.497  -0.617  20.781  0.00  0.00    -0.506 OA
ATOM     25  H   UNL     1      10.340  -0.209  20.528  0.00  0.00    +0.292 HD
ENDBRANCH  10  24
BRANCH   1  26
ATOM     26  O   UNL     1       9.769  -3.359  24.546  0.00  0.00    -0.461 OA
BRANCH  26  30
ATOM     27  C   UNL     1       6.184  -5.575  23.611  0.00  0.00    +0.041 C 
ATOM     28  C   UNL     1       6.271  -4.481  24.675  0.00  0.00    +0.150 C 
ATOM     29  O   UNL     1       7.418  -3.648  24.468  0.00  0.00    -0.334 OA
ATOM     30  C   UNL     1       8.682  -4.268  24.738  0.00  0.00    +0.339 C 
ATOM     31  C   UNL     1       8.749  -4.758  26.204  0.00  0.00    +0.214 C 
ATOM     32  C   UNL     1       7.571  -5.696  26.486  0.00  0.00    +0.180 C 
ATOM     33  C   UNL     1       6.239  -5.031  26.108  0.00  0.00    +0.174 C 
BRANCH  31  34
ATOM     34  O   UNL     1       8.680  -3.648  27.129  0.00  0.00    -0.383 OA
ATOM     35  H   UNL     1       8.866  -4.034  28.007  0.00  0.00    +0.210 HD
ENDBRANCH  31  34
BRANCH  32  36
ATOM     36  O   UNL     1       7.562  -6.027  27.884  0.00  0.00    -0.386 OA
ATOM     37  H   UNL     1       8.504  -6.141  28.135  0.00  0.00    +0.210 HD
ENDBRANCH  32  36
BRANCH  33  38
ATOM     38  O   UNL     1       5.993  -3.959  27.037  0.00  0.00    -0.387 OA
ATOM     39  H   UNL     1       5.975  -4.367  27.933  0.00  0.00    +0.210 HD
ENDBRANCH  33  38
ENDBRANCH  26  30
ENDBRANCH   1  26
TORSDOF 10
ENDMDL
MODEL 9
REMARK VINA RESULT:      -6.5      2.175      9.263
REMARK  Name = 
REMARK  13 active torsions:
REMARK  status: ('A' for Active; 'I' for Inactive)
REMARK    1  A    between atoms: C_1  and  C_2
REMARK    2  A    between atoms: C_3  and  O_37
REMARK    3  A    between atoms: C_5  and  O_36
REMARK    4  A    between atoms: C_6  and  O_35
REMARK    5  A    between atoms: C_8  and  O_11
REMARK    6  A    between atoms: O_11  and  C_12
REMARK    7  A    between atoms: C_14  and  O_34
REMARK    8  A    between atoms: C_19  and  C_25
REMARK    9  A    between atoms: C_20  and  O_23
REMARK   10  A    between atoms: O_23  and  C_24
REMARK   11  A    between atoms: C_27  and  O_33
REMARK   12  A    between atoms: C_28  and  O_31
REMARK   13  A    between atoms: O_31  and  C_32
REMARK                            x       y       z     vdW  Elec       q    Type
REMARK                         _______ _______ _______ _____ _____    ______ ____
ROOT
ATOM      1  C   UNL     1       8.125  -3.127  25.067  0.00  0.00    +0.131 A 
ATOM      2  C   UNL     1       7.638  -1.865  25.407  0.00  0.00    +0.093 A 
ATOM      3  C   UNL     1       8.146  -0.720  24.774  0.00  0.00    +0.147 A 
ATOM      4  O   UNL     1       7.617   0.484  25.169  0.00  0.00    -0.451 OA
ATOM      5  C   UNL     1       8.054   1.642  24.548  0.00  0.00    +0.181 A 
ATOM      6  C   UNL     1       9.005   1.707  23.596  0.00  0.00    +0.211 A 
ATOM      7  C   UNL     1       9.651   0.414  23.184  0.00  0.00    +0.238 A 
ATOM      8  O   UNL     1      10.569   0.377  22.378  0.00  0.00    -0.283 OA
ATOM      9  C   UNL     1       9.135  -0.827  23.801  0.00  0.00    +0.109 A 
ATOM     10  C   UNL     1       9.611  -2.099  23.454  0.00  0.00    +0.135 A 
ATOM     11  C   UNL     1       9.109  -3.237  24.085  0.00  0.00    +0.092 A 
ENDROOT
BRANCH   5  12
ATOM     12  C   UNL     1       7.322   2.840  25.014  0.00  0.00    +0.025 A 
ATOM     13  C   UNL     1       6.089   3.172  24.437  0.00  0.00    +0.015 A 
ATOM     14  C   UNL     1       5.351   4.276  24.891  0.00  0.00    +0.050 A 
ATOM     15  C   UNL     1       5.831   5.065  25.937  0.00  0.00    +0.161 A 
ATOM     16  C   UNL     1       7.078   4.747  26.496  0.00  0.00    +0.159 A 
ATOM     17  C   UNL     1       7.822   3.649  26.044  0.00  0.00    +0.060 A 
BRANCH  15  18
ATOM     18  O   UNL     1       5.175   6.142  26.474  0.00  0.00    -0.491 OA
ATOM     19  C   UNL     1       3.789   5.999  26.752  0.00  0.00    +0.277 C 
ENDBRANCH  15  18
BRANCH  16  20
ATOM     20  O   UNL     1       7.564   5.529  27.514  0.00  0.00    -0.503 OA
ATOM     21  H   UNL     1       7.462   6.464  27.278  0.00  0.00    +0.292 HD
ENDBRANCH  16  20
ENDBRANCH   5  12
BRANCH   6  22
ATOM     22  O   UNL     1       9.343   2.939  23.042  0.00  0.00    -0.488 OA
ATOM     23  C   UNL     1      10.573   3.533  23.440  0.00  0.00    +0.277 C 
ENDBRANCH   6  22
BRANCH  10  24
ATOM     24  O   UNL     1      10.565  -2.267  22.492  0.00  0.00    -0.506 OA
ATOM     25  H   UNL     1      11.355  -2.688  22.866  0.00  0.00    +0.292 HD
ENDBRANCH  10  24
BRANCH   1  26
ATOM     26  O   UNL     1       7.751  -4.328  25.591  0.00  0.00    -0.461 OA
BRANCH  26  30
ATOM     27  C   UNL     1       3.935  -5.666  27.101  0.00  0.00    +0.041 C 
ATOM     28  C   UNL     1       4.811  -6.465  26.137  0.00  0.00    +0.150 C 
ATOM     29  O   UNL     1       6.164  -5.995  26.156  0.00  0.00    -0.334 OA
ATOM     30  C   UNL     1       6.372  -4.705  25.568  0.00  0.00    +0.339 C 
ATOM     31  C   UNL     1       5.923  -4.700  24.087  0.00  0.00    +0.214 C 
ATOM     32  C   UNL     1       4.462  -5.152  23.993  0.00  0.00    +0.180 C 
ATOM     33  C   UNL     1       4.257  -6.497  24.706  0.00  0.00    +0.174 C 
BRANCH  31  34
ATOM     34  O   UNL     1       6.730  -5.600  23.294  0.00  0.00    -0.383 OA
ATOM     35  H   UNL     1       7.627  -5.547  23.677  0.00  0.00    +0.210 HD
ENDBRANCH  31  34
BRANCH  32  36
ATOM     36  O   UNL     1       4.102  -5.283  22.608  0.00  0.00    -0.386 OA
ATOM     37  H   UNL     1       4.856  -5.743  22.181  0.00  0.00    +0.210 HD
ENDBRANCH  32  36
BRANCH  33  38
ATOM     38  O   UNL     1       4.932  -7.516  23.944  0.00  0.00    -0.387 OA
ATOM     39  H   UNL     1       4.439  -7.600  23.095  0.00  0.00    +0.210 HD
ENDBRANCH  33  38
ENDBRANCH  26  30
ENDBRANCH   1  26
TORSDOF 10
ENDMDL
