MODEL 1
REMARK VINA RESULT:      -6.8      0.000      0.000
REMARK  Name = 
REMARK  11 active torsions:
REMARK  status: ('A' for Active; 'I' for Inactive)
REMARK    1  A    between atoms: C_1  and  O_2
REMARK    2  A    between atoms: O_2  and  C_3
REMARK    3  A    between atoms: C_4  and  O_26
REMARK    4  A    between atoms: C_6  and  C_9
REMARK    5  A    between atoms: C_10  and  O_24
REMARK    6  A    between atoms: C_17  and  O_22
REMARK    7  A    between atoms: C_19  and  O_20
REMARK    8  A    between atoms: O_20  and  C_21
REMARK    9  A    between atoms: O_22  and  C_23
REMARK   10  A    between atoms: O_24  and  C_25
REMARK   11  A    between atoms: O_26  and  C_27
REMARK                            x       y       z     vdW  Elec       q    Type
REMARK                         _______ _______ _______ _____ _____    ______ ____
ROOT
ATOM      1  C   UNL     1       7.937  -0.010  23.965  0.00  0.00    +0.181 A 
ATOM      2  O   UNL     1       6.839  -0.674  23.430  0.00  0.00    -0.451 OA
ATOM      3  C   UNL     1       6.825  -2.057  23.406  0.00  0.00    +0.147 A 
ATOM      4  C   UNL     1       5.623  -2.647  23.000  0.00  0.00    +0.092 A 
ATOM      5  C   UNL     1       5.512  -4.031  22.905  0.00  0.00    +0.127 A 
ATOM      6  C   UNL     1       6.618  -4.811  23.228  0.00  0.00    +0.092 A 
ATOM      7  C   UNL     1       7.845  -4.247  23.637  0.00  0.00    +0.138 A 
ATOM      8  C   UNL     1       7.945  -2.846  23.713  0.00  0.00    +0.109 A 
ATOM      9  C   UNL     1       9.163  -2.084  24.032  0.00  0.00    +0.238 A 
ATOM     10  O   UNL     1      10.285  -2.567  23.931  0.00  0.00    -0.283 OA
ATOM     11  C   UNL     1       9.063  -0.638  24.377  0.00  0.00    +0.211 A 
ENDROOT
BRANCH   1  15
ATOM     12  C   UNL     1       7.875   4.213  23.230  0.00  0.00    +0.162 A 
ATOM     13  C   UNL     1       7.583   3.293  22.226  0.00  0.00    +0.050 A 
ATOM     14  C   UNL     1       7.553   1.925  22.514  0.00  0.00    +0.015 A 
ATOM     15  C   UNL     1       7.838   1.454  23.802  0.00  0.00    +0.025 A 
ATOM     16  C   UNL     1       8.049   2.379  24.836  0.00  0.00    +0.061 A 
ATOM     17  C   UNL     1       8.070   3.757  24.553  0.00  0.00    +0.162 A 
BRANCH  12  19
ATOM     18  C   UNL     1       7.311   6.149  21.948  0.00  0.00    +0.277 C 
ATOM     19  O   UNL     1       8.039   5.559  23.016  0.00  0.00    -0.491 OA
ENDBRANCH  12  19
BRANCH  17  20
ATOM     20  O   UNL     1       8.301   4.745  25.482  0.00  0.00    -0.491 OA
ATOM     21  C   UNL     1       7.278   5.027  26.423  0.00  0.00    +0.277 C 
ENDBRANCH  17  20
ENDBRANCH   1  15
BRANCH   5  22
ATOM     22  O   UNL     1       4.304  -4.520  22.488  0.00  0.00    -0.495 OA
ATOM     23  C   UNL     1       3.493  -5.157  23.474  0.00  0.00    +0.277 C 
ENDBRANCH   5  22
BRANCH   7  24
ATOM     24  O   UNL     1       8.714  -5.270  23.891  0.00  0.00    -0.494 OA
ATOM     25  C   UNL     1       9.189  -5.606  25.176  0.00  0.00    +0.277 C 
ENDBRANCH   7  24
BRANCH  11  26
ATOM     26  O   UNL     1      10.224  -0.173  24.930  0.00  0.00    -0.488 OA
ATOM     27  C   UNL     1      11.144   0.721  24.352  0.00  0.00    +0.277 C 
ENDBRANCH  11  26
TORSDOF 6
ENDMDL
MODEL 2
REMARK VINA RESULT:      -6.7      1.689      7.674
REMARK  Name = 
REMARK  11 active torsions:
REMARK  status: ('A' for Active; 'I' for Inactive)
REMARK    1  A    between atoms: C_1  and  O_2
REMARK    2  A    between atoms: O_2  and  C_3
REMARK    3  A    between atoms: C_4  and  O_26
REMARK    4  A    between atoms: C_6  and  C_9
REMARK    5  A    between atoms: C_10  and  O_24
REMARK    6  A    between atoms: C_17  and  O_22
REMARK    7  A    between atoms: C_19  and  O_20
REMARK    8  A    between atoms: O_20  and  C_21
REMARK    9  A    between atoms: O_22  and  C_23
REMARK   10  A    between atoms: O_24  and  C_25
REMARK   11  A    between atoms: O_26  and  C_27
REMARK                            x       y       z     vdW  Elec       q    Type
REMARK                         _______ _______ _______ _____ _____    ______ ____
ROOT
ATOM      1  C   UNL     1       7.444  -0.971  23.118  0.00  0.00    +0.181 A 
ATOM      2  O   UNL     1       6.834   0.275  23.025  0.00  0.00    -0.451 OA
ATOM      3  C   UNL     1       7.612   1.419  23.063  0.00  0.00    +0.147 A 
ATOM      4  C   UNL     1       6.942   2.620  22.804  0.00  0.00    +0.092 A 
ATOM      5  C   UNL     1       7.622   3.833  22.851  0.00  0.00    +0.127 A 
ATOM      6  C   UNL     1       8.980   3.822  23.155  0.00  0.00    +0.092 A 
ATOM      7  C   UNL     1       9.684   2.629  23.424  0.00  0.00    +0.138 A 
ATOM      8  C   UNL     1       8.979   1.413  23.386  0.00  0.00    +0.109 A 
ATOM      9  C   UNL     1       9.523   0.088  23.725  0.00  0.00    +0.238 A 
ATOM     10  O   UNL     1      10.540  -0.051  24.395  0.00  0.00    -0.283 OA
ATOM     11  C   UNL     1       8.767  -1.141  23.353  0.00  0.00    +0.211 A 
ENDROOT
BRANCH   1  15
ATOM     12  C   UNL     1       4.708  -4.232  23.625  0.00  0.00    +0.162 A 
ATOM     13  C   UNL     1       4.759  -3.175  24.530  0.00  0.00    +0.050 A 
ATOM     14  C   UNL     1       5.622  -2.097  24.303  0.00  0.00    +0.015 A 
ATOM     15  C   UNL     1       6.462  -2.070  23.183  0.00  0.00    +0.025 A 
ATOM     16  C   UNL     1       6.354  -3.090  22.224  0.00  0.00    +0.061 A 
ATOM     17  C   UNL     1       5.481  -4.171  22.443  0.00  0.00    +0.162 A 
BRANCH  12  19
ATOM     18  C   UNL     1       4.459  -6.301  24.792  0.00  0.00    +0.277 C 
ATOM     19  O   UNL     1       3.982  -5.380  23.822  0.00  0.00    -0.491 OA
ENDBRANCH  12  19
BRANCH  17  20
ATOM     20  O   UNL     1       5.323  -5.236  21.587  0.00  0.00    -0.491 OA
ATOM     21  C   UNL     1       6.463  -6.024  21.286  0.00  0.00    +0.277 C 
ENDBRANCH  17  20
ENDBRANCH   1  15
BRANCH   5  22
ATOM     22  O   UNL     1       6.885   4.957  22.598  0.00  0.00    -0.495 OA
ATOM     23  C   UNL     1       7.605   6.119  22.186  0.00  0.00    +0.277 C 
ENDBRANCH   5  22
BRANCH   7  24
ATOM     24  O   UNL     1      10.987   2.956  23.669  0.00  0.00    -0.494 OA
ATOM     25  C   UNL     1      11.571   4.196  23.333  0.00  0.00    +0.277 C 
ENDBRANCH   7  24
BRANCH  11  26
ATOM     26  O   UNL     1       9.543  -2.260  23.467  0.00  0.00    -0.488 OA
ATOM     27  C   UNL     1       9.405  -3.300  24.403  0.00  0.00    +0.277 C 
ENDBRANCH  11  26
TORSDOF 6
ENDMDL
MODEL 3
REMARK VINA RESULT:      -6.7      2.067      8.164
REMARK  Name = 
REMARK  11 active torsions:
REMARK  status: ('A' for Active; 'I' for Inactive)
REMARK    1  A    between atoms: C_1  and  O_2
REMARK    2  A    between atoms: O_2  and  C_3
REMARK    3  A    between atoms: C_4  and  O_26
REMARK    4  A    between atoms: C_6  and  C_9
REMARK    5  A    between atoms: C_10  and  O_24
REMARK    6  A    between atoms: C_17  and  O_22
REMARK    7  A    between atoms: C_19  and  O_20
REMARK    8  A    between atoms: O_20  and  C_21
REMARK    9  A    between atoms: O_22  and  C_23
REMARK   10  A    between atoms: O_24  and  C_25
REMARK   11  A    between atoms: O_26  and  C_27
REMARK                            x       y       z     vdW  Elec       q    Type
REMARK                         _______ _______ _______ _____ _____    ______ ____
ROOT
ATOM      1  C   UNL     1       7.986  -0.020  23.918  0.00  0.00    +0.181 A 
ATOM      2  O   UNL     1       9.183   0.605  23.584  0.00  0.00    -0.451 OA
ATOM      3  C   UNL     1       9.291   1.979  23.708  0.00  0.00    +0.147 A 
ATOM      4  C   UNL     1      10.570   2.509  23.506  0.00  0.00    +0.092 A 
ATOM      5  C   UNL     1      10.784   3.882  23.572  0.00  0.00    +0.127 A 
ATOM      6  C   UNL     1       9.701   4.711  23.848  0.00  0.00    +0.092 A 
ATOM      7  C   UNL     1       8.399   4.208  24.054  0.00  0.00    +0.138 A 
ATOM      8  C   UNL     1       8.197   2.820  23.969  0.00  0.00    +0.109 A 
ATOM      9  C   UNL     1       6.902   2.128  24.065  0.00  0.00    +0.238 A 
ATOM     10  O   UNL     1       5.835   2.705  23.890  0.00  0.00    -0.283 OA
ATOM     11  C   UNL     1       6.863   0.651  24.265  0.00  0.00    +0.211 A 
ENDROOT
BRANCH   1  15
ATOM     12  C   UNL     1       7.700  -4.214  23.080  0.00  0.00    +0.162 A 
ATOM     13  C   UNL     1       6.953  -3.276  22.373  0.00  0.00    +0.050 A 
ATOM     14  C   UNL     1       7.114  -1.911  22.631  0.00  0.00    +0.015 A 
ATOM     15  C   UNL     1       8.006  -1.464  23.613  0.00  0.00    +0.025 A 
ATOM     16  C   UNL     1       8.824  -2.398  24.269  0.00  0.00    +0.061 A 
ATOM     17  C   UNL     1       8.671  -3.772  24.006  0.00  0.00    +0.162 A 
BRANCH  12  19
ATOM     18  C   UNL     1       6.867  -6.064  21.819  0.00  0.00    +0.277 C 
ATOM     19  O   UNL     1       7.527  -5.572  22.977  0.00  0.00    -0.491 OA
ENDBRANCH  12  19
BRANCH  17  20
ATOM     20  O   UNL     1       9.394  -4.771  24.614  0.00  0.00    -0.491 OA
ATOM     21  C   UNL     1       9.338  -4.867  26.028  0.00  0.00    +0.277 C 
ENDBRANCH  17  20
ENDBRANCH   1  15
BRANCH   5  22
ATOM     22  O   UNL     1      12.063   4.313  23.348  0.00  0.00    -0.495 OA
ATOM     23  C   UNL     1      12.374   5.644  23.758  0.00  0.00    +0.277 C 
ENDBRANCH   5  22
BRANCH   7  24
ATOM     24  O   UNL     1       7.576   5.267  24.315  0.00  0.00    -0.494 OA
ATOM     25  C   UNL     1       7.735   6.552  23.755  0.00  0.00    +0.277 C 
ENDBRANCH   7  24
BRANCH  11  26
ATOM     26  O   UNL     1       5.616   0.228  24.630  0.00  0.00    -0.488 OA
ATOM     27  C   UNL     1       5.260  -0.458  25.805  0.00  0.00    +0.277 C 
ENDBRANCH  11  26
TORSDOF 6
ENDMDL
MODEL 4
REMARK VINA RESULT:      -6.6      2.440      3.547
REMARK  Name = 
REMARK  11 active torsions:
REMARK  status: ('A' for Active; 'I' for Inactive)
REMARK    1  A    between atoms: C_1  and  O_2
REMARK    2  A    between atoms: O_2  and  C_3
REMARK    3  A    between atoms: C_4  and  O_26
REMARK    4  A    between atoms: C_6  and  C_9
REMARK    5  A    between atoms: C_10  and  O_24
REMARK    6  A    between atoms: C_17  and  O_22
REMARK    7  A    between atoms: C_19  and  O_20
REMARK    8  A    between atoms: O_20  and  C_21
REMARK    9  A    between atoms: O_22  and  C_23
REMARK   10  A    between atoms: O_24  and  C_25
REMARK   11  A    between atoms: O_26  and  C_27
REMARK                            x       y       z     vdW  Elec       q    Type
REMARK                         _______ _______ _______ _____ _____    ______ ____
ROOT
ATOM      1  C   UNL     1       7.371  -2.369  24.184  0.00  0.00    +0.181 A 
ATOM      2  O   UNL     1       6.457  -3.032  23.373  0.00  0.00    -0.451 OA
ATOM      3  C   UNL     1       5.807  -4.154  23.856  0.00  0.00    +0.147 A 
ATOM      4  C   UNL     1       4.791  -4.667  23.042  0.00  0.00    +0.092 A 
ATOM      5  C   UNL     1       4.097  -5.814  23.415  0.00  0.00    +0.127 A 
ATOM      6  C   UNL     1       4.433  -6.433  24.615  0.00  0.00    +0.092 A 
ATOM      7  C   UNL     1       5.454  -5.943  25.456  0.00  0.00    +0.138 A 
ATOM      8  C   UNL     1       6.155  -4.792  25.058  0.00  0.00    +0.109 A 
ATOM      9  C   UNL     1       7.303  -4.193  25.759  0.00  0.00    +0.238 A 
ATOM     10  O   UNL     1       7.976  -4.820  26.568  0.00  0.00    -0.283 OA
ATOM     11  C   UNL     1       7.753  -2.818  25.403  0.00  0.00    +0.211 A 
ENDROOT
BRANCH   1  15
ATOM     12  C   UNL     1       9.571   0.844  22.393  0.00  0.00    +0.162 A 
ATOM     13  C   UNL     1      10.203  -0.317  22.832  0.00  0.00    +0.050 A 
ATOM     14  C   UNL     1       9.447  -1.371  23.357  0.00  0.00    +0.015 A 
ATOM     15  C   UNL     1       8.055  -1.272  23.473  0.00  0.00    +0.025 A 
ATOM     16  C   UNL     1       7.406  -0.141  22.954  0.00  0.00    +0.061 A 
ATOM     17  C   UNL     1       8.160   0.918  22.416  0.00  0.00    +0.162 A 
BRANCH  12  19
ATOM     18  C   UNL     1      10.736   2.848  22.969  0.00  0.00    +0.277 C 
ATOM     19  O   UNL     1      10.236   1.969  21.972  0.00  0.00    -0.491 OA
ENDBRANCH  12  19
BRANCH  17  20
ATOM     20  O   UNL     1       7.629   2.082  21.913  0.00  0.00    -0.491 OA
ATOM     21  C   UNL     1       6.399   2.540  22.450  0.00  0.00    +0.277 C 
ENDBRANCH  17  20
ENDBRANCH   1  15
BRANCH   5  22
ATOM     22  O   UNL     1       3.129  -6.251  22.552  0.00  0.00    -0.495 OA
ATOM     23  C   UNL     1       1.836  -6.493  23.105  0.00  0.00    +0.277 C 
ENDBRANCH   5  22
BRANCH   7  24
ATOM     24  O   UNL     1       5.524  -6.759  26.550  0.00  0.00    -0.494 OA
ATOM     25  C   UNL     1       4.897  -6.486  27.784  0.00  0.00    +0.277 C 
ENDBRANCH   7  24
BRANCH  11  26
ATOM     26  O   UNL     1       8.614  -2.316  26.339  0.00  0.00    -0.488 OA
ATOM     27  C   UNL     1       8.576  -1.041  26.932  0.00  0.00    +0.277 C 
ENDBRANCH  11  26
TORSDOF 6
ENDMDL
MODEL 5
REMARK VINA RESULT:      -6.5      1.808      7.554
REMARK  Name = 
REMARK  11 active torsions:
REMARK  status: ('A' for Active; 'I' for Inactive)
REMARK    1  A    between atoms: C_1  and  O_2
REMARK    2  A    between atoms: O_2  and  C_3
REMARK    3  A    between atoms: C_4  and  O_26
REMARK    4  A    between atoms: C_6  and  C_9
REMARK    5  A    between atoms: C_10  and  O_24
REMARK    6  A    between atoms: C_17  and  O_22
REMARK    7  A    between atoms: C_19  and  O_20
REMARK    8  A    between atoms: O_20  and  C_21
REMARK    9  A    between atoms: O_22  and  C_23
REMARK   10  A    between atoms: O_24  and  C_25
REMARK   11  A    between atoms: O_26  and  C_27
REMARK                            x       y       z     vdW  Elec       q    Type
REMARK                         _______ _______ _______ _____ _____    ______ ____
ROOT
ATOM      1  C   UNL     1       7.588  -0.247  23.371  0.00  0.00    +0.181 A 
ATOM      2  O   UNL     1       7.067   1.024  23.583  0.00  0.00    -0.451 OA
ATOM      3  C   UNL     1       7.916   2.117  23.582  0.00  0.00    +0.147 A 
ATOM      4  C   UNL     1       7.295   3.370  23.643  0.00  0.00    +0.092 A 
ATOM      5  C   UNL     1       8.056   4.534  23.683  0.00  0.00    +0.127 A 
ATOM      6  C   UNL     1       9.443   4.423  23.657  0.00  0.00    +0.092 A 
ATOM      7  C   UNL     1      10.098   3.175  23.600  0.00  0.00    +0.138 A 
ATOM      8  C   UNL     1       9.315   2.008  23.574  0.00  0.00    +0.109 A 
ATOM      9  C   UNL     1       9.823   0.626  23.604  0.00  0.00    +0.238 A 
ATOM     10  O   UNL     1      10.951   0.351  23.994  0.00  0.00    -0.283 OA
ATOM     11  C   UNL     1       8.913  -0.505  23.266  0.00  0.00    +0.211 A 
ENDROOT
BRANCH   1  15
ATOM     12  C   UNL     1       4.776  -3.397  24.113  0.00  0.00    +0.162 A 
ATOM     13  C   UNL     1       4.994  -2.380  25.039  0.00  0.00    +0.050 A 
ATOM     14  C   UNL     1       5.875  -1.336  24.740  0.00  0.00    +0.015 A 
ATOM     15  C   UNL     1       6.567  -1.302  23.524  0.00  0.00    +0.025 A 
ATOM     16  C   UNL     1       6.288  -2.276  22.553  0.00  0.00    +0.061 A 
ATOM     17  C   UNL     1       5.396  -3.325  22.845  0.00  0.00    +0.162 A 
BRANCH  12  19
ATOM     18  C   UNL     1       4.428  -5.355  25.436  0.00  0.00    +0.277 C 
ATOM     19  O   UNL     1       4.023  -4.517  24.363  0.00  0.00    -0.491 OA
ENDBRANCH  12  19
BRANCH  17  20
ATOM     20  O   UNL     1       5.078  -4.346  21.981  0.00  0.00    -0.491 OA
ATOM     21  C   UNL     1       6.122  -5.204  21.550  0.00  0.00    +0.277 C 
ENDBRANCH  17  20
ENDBRANCH   1  15
BRANCH   5  22
ATOM     22  O   UNL     1       7.365   5.713  23.755  0.00  0.00    -0.495 OA
ATOM     23  C   UNL     1       6.122   5.688  24.455  0.00  0.00    +0.277 C 
ENDBRANCH   5  22
BRANCH   7  24
ATOM     24  O   UNL     1      11.444   3.409  23.572  0.00  0.00    -0.494 OA
ATOM     25  C   UNL     1      12.025   4.669  23.320  0.00  0.00    +0.277 C 
ENDBRANCH   7  24
BRANCH  11  26
ATOM     26  O   UNL     1       9.610  -1.661  23.052  0.00  0.00    -0.488 OA
ATOM     27  C   UNL     1       9.765  -2.739  23.941  0.00  0.00    +0.277 C 
ENDBRANCH  11  26
TORSDOF 6
ENDMDL
MODEL 6
REMARK VINA RESULT:      -6.4      2.897      5.641
REMARK  Name = 
REMARK  11 active torsions:
REMARK  status: ('A' for Active; 'I' for Inactive)
REMARK    1  A    between atoms: C_1  and  O_2
REMARK    2  A    between atoms: O_2  and  C_3
REMARK    3  A    between atoms: C_4  and  O_26
REMARK    4  A    between atoms: C_6  and  C_9
REMARK    5  A    between atoms: C_10  and  O_24
REMARK    6  A    between atoms: C_17  and  O_22
REMARK    7  A    between atoms: C_19  and  O_20
REMARK    8  A    between atoms: O_20  and  C_21
REMARK    9  A    between atoms: O_22  and  C_23
REMARK   10  A    between atoms: O_24  and  C_25
REMARK   11  A    between atoms: O_26  and  C_27
REMARK                            x       y       z     vdW  Elec       q    Type
REMARK                         _______ _______ _______ _____ _____    ______ ____
ROOT
ATOM      1  C   UNL     1       7.015  -3.998  24.007  0.00  0.00    +0.181 A 
ATOM      2  O   UNL     1       7.004  -4.172  25.386  0.00  0.00    -0.451 OA
ATOM      3  C   UNL     1       6.213  -5.163  25.942  0.00  0.00    +0.147 A 
ATOM      4  C   UNL     1       6.380  -5.376  27.314  0.00  0.00    +0.092 A 
ATOM      5  C   UNL     1       5.609  -6.324  27.981  0.00  0.00    +0.127 A 
ATOM      6  C   UNL     1       4.676  -7.054  27.251  0.00  0.00    +0.092 A 
ATOM      7  C   UNL     1       4.482  -6.860  25.867  0.00  0.00    +0.138 A 
ATOM      8  C   UNL     1       5.259  -5.889  25.212  0.00  0.00    +0.109 A 
ATOM      9  C   UNL     1       5.132  -5.489  23.801  0.00  0.00    +0.238 A 
ATOM     10  O   UNL     1       4.122  -5.713  23.144  0.00  0.00    -0.283 OA
ATOM     11  C   UNL     1       6.206  -4.679  23.161  0.00  0.00    +0.211 A 
ENDROOT
BRANCH   1  15
ATOM     12  C   UNL     1       9.472  -0.595  23.138  0.00  0.00    +0.162 A 
ATOM     13  C   UNL     1      10.015  -1.782  23.623  0.00  0.00    +0.050 A 
ATOM     14  C   UNL     1       9.193  -2.893  23.840  0.00  0.00    +0.015 A 
ATOM     15  C   UNL     1       7.815  -2.828  23.597  0.00  0.00    +0.025 A 
ATOM     16  C   UNL     1       7.277  -1.663  23.029  0.00  0.00    +0.061 A 
ATOM     17  C   UNL     1       8.101  -0.546  22.800  0.00  0.00    +0.162 A 
BRANCH  12  19
ATOM     18  C   UNL     1      10.732   1.146  24.182  0.00  0.00    +0.277 C 
ATOM     19  O   UNL     1      10.177   0.575  23.005  0.00  0.00    -0.491 OA
ENDBRANCH  12  19
BRANCH  17  20
ATOM     20  O   UNL     1       7.671   0.652  22.281  0.00  0.00    -0.491 OA
ATOM     21  C   UNL     1       6.710   1.391  23.017  0.00  0.00    +0.277 C 
ENDBRANCH  17  20
ENDBRANCH   1  15
BRANCH   5  22
ATOM     22  O   UNL     1       5.830  -6.456  29.324  0.00  0.00    -0.495 OA
ATOM     23  C   UNL     1       5.256  -5.461  30.171  0.00  0.00    +0.277 C 
ENDBRANCH   5  22
BRANCH   7  24
ATOM     24  O   UNL     1       3.516  -7.732  25.452  0.00  0.00    -0.494 OA
ATOM     25  C   UNL     1       2.144  -7.599  25.753  0.00  0.00    +0.277 C 
ENDBRANCH   7  24
BRANCH  11  26
ATOM     26  O   UNL     1       6.075  -4.659  21.800  0.00  0.00    -0.488 OA
ATOM     27  C   UNL     1       6.449  -5.668  20.894  0.00  0.00    +0.277 C 
ENDBRANCH  11  26
TORSDOF 6
ENDMDL
MODEL 7
REMARK VINA RESULT:      -6.2      2.915      8.393
REMARK  Name = 
REMARK  11 active torsions:
REMARK  status: ('A' for Active; 'I' for Inactive)
REMARK    1  A    between atoms: C_1  and  O_2
REMARK    2  A    between atoms: O_2  and  C_3
REMARK    3  A    between atoms: C_4  and  O_26
REMARK    4  A    between atoms: C_6  and  C_9
REMARK    5  A    between atoms: C_10  and  O_24
REMARK    6  A    between atoms: C_17  and  O_22
REMARK    7  A    between atoms: C_19  and  O_20
REMARK    8  A    between atoms: O_20  and  C_21
REMARK    9  A    between atoms: O_22  and  C_23
REMARK   10  A    between atoms: O_24  and  C_25
REMARK   11  A    between atoms: O_26  and  C_27
REMARK                            x       y       z     vdW  Elec       q    Type
REMARK                         _______ _______ _______ _____ _____    ______ ____
ROOT
ATOM      1  C   UNL     1       6.060  -4.089  24.239  0.00  0.00    +0.181 A 
ATOM      2  O   UNL     1       5.722  -2.949  24.960  0.00  0.00    -0.451 OA
ATOM      3  C   UNL     1       6.638  -1.917  25.070  0.00  0.00    +0.147 A 
ATOM      4  C   UNL     1       6.165  -0.746  25.674  0.00  0.00    +0.092 A 
ATOM      5  C   UNL     1       7.012   0.340  25.867  0.00  0.00    +0.127 A 
ATOM      6  C   UNL     1       8.333   0.237  25.443  0.00  0.00    +0.092 A 
ATOM      7  C   UNL     1       8.841  -0.930  24.834  0.00  0.00    +0.138 A 
ATOM      8  C   UNL     1       7.976  -2.024  24.659  0.00  0.00    +0.109 A 
ATOM      9  C   UNL     1       8.350  -3.345  24.129  0.00  0.00    +0.238 A 
ATOM     10  O   UNL     1       9.512  -3.736  24.103  0.00  0.00    -0.283 OA
ATOM     11  C   UNL     1       7.289  -4.305  23.714  0.00  0.00    +0.211 A 
ENDROOT
BRANCH   1  15
ATOM     12  C   UNL     1       3.294  -7.354  24.493  0.00  0.00    +0.162 A 
ATOM     13  C   UNL     1       4.306  -7.180  25.433  0.00  0.00    +0.050 A 
ATOM     14  C   UNL     1       5.154  -6.070  25.355  0.00  0.00    +0.015 A 
ATOM     15  C   UNL     1       5.020  -5.132  24.324  0.00  0.00    +0.025 A 
ATOM     16  C   UNL     1       3.950  -5.256  23.424  0.00  0.00    +0.061 A 
ATOM     17  C   UNL     1       3.088  -6.365  23.504  0.00  0.00    +0.162 A 
BRANCH  12  19
ATOM     18  C   UNL     1       1.505  -8.629  25.431  0.00  0.00    +0.277 C 
ATOM     19  O   UNL     1       2.492  -8.466  24.422  0.00  0.00    -0.491 OA
ENDBRANCH  12  19
BRANCH  17  20
ATOM     20  O   UNL     1       2.033  -6.601  22.655  0.00  0.00    -0.491 OA
ATOM     21  C   UNL     1       0.887  -5.773  22.770  0.00  0.00    +0.277 C 
ENDBRANCH  17  20
ENDBRANCH   1  15
BRANCH   5  22
ATOM     22  O   UNL     1       6.469   1.438  26.477  0.00  0.00    -0.495 OA
ATOM     23  C   UNL     1       6.814   1.650  27.846  0.00  0.00    +0.277 C 
ENDBRANCH   5  22
BRANCH   7  24
ATOM     24  O   UNL     1      10.153  -0.706  24.525  0.00  0.00    -0.494 OA
ATOM     25  C   UNL     1      10.827   0.510  24.764  0.00  0.00    +0.277 C 
ENDBRANCH   7  24
BRANCH  11  26
ATOM     26  O   UNL     1       7.805  -5.335  22.979  0.00  0.00    -0.488 OA
ATOM     27  C   UNL     1       7.302  -5.857  21.773  0.00  0.00    +0.277 C 
ENDBRANCH  11  26
TORSDOF 6
ENDMDL
MODEL 8
REMARK VINA RESULT:      -6.2      2.158      2.967
REMARK  Name = 
REMARK  11 active torsions:
REMARK  status: ('A' for Active; 'I' for Inactive)
REMARK    1  A    between atoms: C_1  and  O_2
REMARK    2  A    between atoms: O_2  and  C_3
REMARK    3  A    between atoms: C_4  and  O_26
REMARK    4  A    between atoms: C_6  and  C_9
REMARK    5  A    between atoms: C_10  and  O_24
REMARK    6  A    between atoms: C_17  and  O_22
REMARK    7  A    between atoms: C_19  and  O_20
REMARK    8  A    between atoms: O_20  and  C_21
REMARK    9  A    between atoms: O_22  and  C_23
REMARK   10  A    between atoms: O_24  and  C_25
REMARK   11  A    between atoms: O_26  and  C_27
REMARK                            x       y       z     vdW  Elec       q    Type
REMARK                         _______ _______ _______ _____ _____    ______ ____
ROOT
ATOM      1  C   UNL     1       8.815  -0.058  24.559  0.00  0.00    +0.181 A 
ATOM      2  O   UNL     1       8.184  -0.728  25.601  0.00  0.00    -0.451 OA
ATOM      3  C   UNL     1       8.017  -2.099  25.528  0.00  0.00    +0.147 A 
ATOM      4  C   UNL     1       7.519  -2.715  26.681  0.00  0.00    +0.092 A 
ATOM      5  C   UNL     1       7.280  -4.085  26.704  0.00  0.00    +0.127 A 
ATOM      6  C   UNL     1       7.552  -4.826  25.558  0.00  0.00    +0.092 A 
ATOM      7  C   UNL     1       8.051  -4.236  24.379  0.00  0.00    +0.138 A 
ATOM      8  C   UNL     1       8.274  -2.847  24.367  0.00  0.00    +0.109 A 
ATOM      9  C   UNL     1       8.703  -2.050  23.207  0.00  0.00    +0.238 A 
ATOM     10  O   UNL     1       8.585  -2.453  22.055  0.00  0.00    -0.283 OA
ATOM     11  C   UNL     1       9.192  -0.657  23.405  0.00  0.00    +0.211 A 
ENDROOT
BRANCH   1  15
ATOM     12  C   UNL     1       8.443   4.190  24.994  0.00  0.00    +0.162 A 
ATOM     13  C   UNL     1       7.570   3.312  25.632  0.00  0.00    +0.050 A 
ATOM     14  C   UNL     1       7.756   1.931  25.517  0.00  0.00    +0.015 A 
ATOM     15  C   UNL     1       8.800   1.406  24.745  0.00  0.00    +0.025 A 
ATOM     16  C   UNL     1       9.733   2.284  24.171  0.00  0.00    +0.061 A 
ATOM     17  C   UNL     1       9.556   3.675  24.292  0.00  0.00    +0.162 A 
BRANCH  12  19
ATOM     18  C   UNL     1       7.106   6.051  24.316  0.00  0.00    +0.277 C 
ATOM     19  O   UNL     1       8.273   5.552  24.956  0.00  0.00    -0.491 OA
ENDBRANCH  12  19
BRANCH  17  20
ATOM     20  O   UNL     1      10.388   4.621  23.742  0.00  0.00    -0.491 OA
ATOM     21  C   UNL     1      11.686   4.215  23.342  0.00  0.00    +0.277 C 
ENDBRANCH  17  20
ENDBRANCH   1  15
BRANCH   5  22
ATOM     22  O   UNL     1       6.781  -4.599  27.870  0.00  0.00    -0.495 OA
ATOM     23  C   UNL     1       6.480  -5.995  27.880  0.00  0.00    +0.277 C 
ENDBRANCH   5  22
BRANCH   7  24
ATOM     24  O   UNL     1       8.223  -5.225  23.453  0.00  0.00    -0.494 OA
ATOM     25  C   UNL     1       7.237  -5.624  22.526  0.00  0.00    +0.277 C 
ENDBRANCH   7  24
BRANCH  11  26
ATOM     26  O   UNL     1       9.821  -0.184  22.287  0.00  0.00    -0.488 OA
ATOM     27  C   UNL     1       9.259   0.592  21.257  0.00  0.00    +0.277 C 
ENDBRANCH  11  26
TORSDOF 6
ENDMDL
MODEL 9
REMARK VINA RESULT:      -6.1      1.813      7.318
REMARK  Name = 
REMARK  11 active torsions:
REMARK  status: ('A' for Active; 'I' for Inactive)
REMARK    1  A    between atoms: C_1  and  O_2
REMARK    2  A    between atoms: O_2  and  C_3
REMARK    3  A    between atoms: C_4  and  O_26
REMARK    4  A    between atoms: C_6  and  C_9
REMARK    5  A    between atoms: C_10  and  O_24
REMARK    6  A    between atoms: C_17  and  O_22
REMARK    7  A    between atoms: C_19  and  O_20
REMARK    8  A    between atoms: O_20  and  C_21
REMARK    9  A    between atoms: O_22  and  C_23
REMARK   10  A    between atoms: O_24  and  C_25
REMARK   11  A    between atoms: O_26  and  C_27
REMARK                            x       y       z     vdW  Elec       q    Type
REMARK                         _______ _______ _______ _____ _____    ______ ____
ROOT
ATOM      1  C   UNL     1       7.661  -0.597  23.271  0.00  0.00    +0.181 A 
ATOM      2  O   UNL     1       7.041   0.647  23.280  0.00  0.00    -0.451 OA
ATOM      3  C   UNL     1       7.815   1.794  23.262  0.00  0.00    +0.147 A 
ATOM      4  C   UNL     1       7.116   2.997  23.111  0.00  0.00    +0.092 A 
ATOM      5  C   UNL     1       7.794   4.213  23.116  0.00  0.00    +0.127 A 
ATOM      6  C   UNL     1       9.177   4.202  23.268  0.00  0.00    +0.092 A 
ATOM      7  C   UNL     1       9.909   3.007  23.425  0.00  0.00    +0.138 A 
ATOM      8  C   UNL     1       9.208   1.788  23.432  0.00  0.00    +0.109 A 
ATOM      9  C   UNL     1       9.791   0.458  23.673  0.00  0.00    +0.238 A 
ATOM     10  O   UNL     1      10.876   0.307  24.222  0.00  0.00    -0.283 OA
ATOM     11  C   UNL     1       9.002  -0.765  23.353  0.00  0.00    +0.211 A 
ENDROOT
BRANCH   1  15
ATOM     12  C   UNL     1       4.698  -3.692  23.400  0.00  0.00    +0.162 A 
ATOM     13  C   UNL     1       5.483  -3.481  22.270  0.00  0.00    +0.050 A 
ATOM     14  C   UNL     1       6.482  -2.501  22.282  0.00  0.00    +0.015 A 
ATOM     15  C   UNL     1       6.695  -1.704  23.414  0.00  0.00    +0.025 A 
ATOM     16  C   UNL     1       5.966  -1.969  24.583  0.00  0.00    +0.061 A 
ATOM     17  C   UNL     1       4.967  -2.960  24.579  0.00  0.00    +0.162 A 
BRANCH  12  19
ATOM     18  C   UNL     1       3.868  -5.922  23.181  0.00  0.00    +0.277 C 
ATOM     19  O   UNL     1       3.624  -4.547  23.442  0.00  0.00    -0.491 OA
ENDBRANCH  12  19
BRANCH  17  20
ATOM     20  O   UNL     1       4.173  -3.277  25.656  0.00  0.00    -0.491 OA
ATOM     21  C   UNL     1       3.695  -2.216  26.466  0.00  0.00    +0.277 C 
ENDBRANCH  17  20
ENDBRANCH   1  15
BRANCH   5  22
ATOM     22  O   UNL     1       7.029   5.339  22.977  0.00  0.00    -0.495 OA
ATOM     23  C   UNL     1       7.632   6.446  22.306  0.00  0.00    +0.277 C 
ENDBRANCH   5  22
BRANCH   7  24
ATOM     24  O   UNL     1      11.231   3.335  23.534  0.00  0.00    -0.494 OA
ATOM     25  C   UNL     1      11.730   4.652  23.451  0.00  0.00    +0.277 C 
ENDBRANCH   7  24
BRANCH  11  26
ATOM     26  O   UNL     1       9.790  -1.882  23.350  0.00  0.00    -0.488 OA
ATOM     27  C   UNL     1       9.703  -2.987  24.216  0.00  0.00    +0.277 C 
ENDBRANCH  11  26
TORSDOF 6
ENDMDL
