MODEL 1
REMARK VINA RESULT:      -7.6      0.000      0.000
REMARK  Name = 
REMARK  17 active torsions:
REMARK  status: ('A' for Active; 'I' for Inactive)
REMARK    1  A    between atoms: C_1  and  C_2
REMARK    2  A    between atoms: C_4  and  O_53
REMARK    3  A    between atoms: C_6  and  O_16
REMARK    4  A    between atoms: C_8  and  O_15
REMARK    5  A    between atoms: C_10  and  C_13
REMARK    6  A    between atoms: C_13  and  O_14
REMARK    7  A    between atoms: O_16  and  C_17
REMARK    8  A    between atoms: C_19  and  O_52
REMARK    9  A    between atoms: C_21  and  O_51
REMARK   10  A    between atoms: C_23  and  O_50
REMARK   11  A    between atoms: C_25  and  O_28
REMARK   12  A    between atoms: O_28  and  C_29
REMARK   13  A    between atoms: C_30  and  C_42
REMARK   14  A    between atoms: C_34  and  O_41
REMARK   15  A    between atoms: C_36  and  O_40
REMARK   16  A    between atoms: C_44  and  O_49
REMARK   17  A    between atoms: C_45  and  O_48
REMARK                            x       y       z     vdW  Elec       q    Type
REMARK                         _______ _______ _______ _____ _____    ______ ____
ROOT
ATOM      1  C   UNL     1       7.266   2.744  26.213  0.00  0.00    +0.286 C 
ATOM      2  O   UNL     1       7.813   1.471  25.793  0.00  0.00    -0.307 OA
ATOM      3  C   UNL     1       7.002   0.295  25.897  0.00  0.00    +0.341 C 
ATOM      4  C   UNL     1       6.238   0.209  27.255  0.00  0.00    +0.214 C 
ATOM      5  C   UNL     1       5.601   1.539  27.657  0.00  0.00    +0.182 C 
ATOM      6  C   UNL     1       6.650   2.644  27.628  0.00  0.00    +0.201 C 
ENDROOT
BRANCH   6   7
ATOM      7  O   UNL     1       7.667   2.378  28.607  0.00  0.00    -0.384 OA
ATOM      8  H   UNL     1       7.480   2.912  29.401  0.00  0.00    +0.210 HD
ENDBRANCH   6   7
BRANCH   5   9
ATOM      9  O   UNL     1       4.467   1.802  26.815  0.00  0.00    -0.386 OA
ATOM     10  H   UNL     1       4.767   2.237  25.993  0.00  0.00    +0.210 HD
ENDBRANCH   5   9
BRANCH   4  11
ATOM     11  O   UNL     1       5.217  -0.808  27.241  0.00  0.00    -0.383 OA
ATOM     12  H   UNL     1       5.030  -0.986  26.297  0.00  0.00    +0.210 HD
ENDBRANCH   4  11
BRANCH   3  13
ATOM     13  O   UNL     1       7.862  -0.887  25.911  0.00  0.00    -0.453 OA
BRANCH  13  14
ATOM     14  C   UNL     1       7.683  -2.006  25.119  0.00  0.00    +0.214 A 
ATOM     15  C   UNL     1       6.914  -3.227  25.519  0.00  0.00    +0.238 A 
ATOM     16  O   UNL     1       6.570  -3.416  26.676  0.00  0.00    -0.283 OA
ATOM     17  C   UNL     1       6.628  -4.216  24.430  0.00  0.00    +0.109 A 
ATOM     18  C   UNL     1       7.351  -4.102  23.245  0.00  0.00    +0.147 A 
ATOM     19  C   UNL     1       7.145  -4.952  22.154  0.00  0.00    +0.092 A 
ATOM     20  C   UNL     1       6.186  -5.941  22.252  0.00  0.00    +0.124 A 
ATOM     21  C   UNL     1       5.453  -6.093  23.425  0.00  0.00    +0.091 A 
ATOM     22  O   UNL     1       8.304  -3.151  23.060  0.00  0.00    -0.451 OA
ATOM     23  C   UNL     1       5.675  -5.235  24.514  0.00  0.00    +0.135 A 
ATOM     24  C   UNL     1       8.300  -2.083  23.916  0.00  0.00    +0.181 A 
BRANCH  24  25
ATOM     25  C   UNL     1       9.003  -0.954  23.330  0.00  0.00    +0.025 A 
ATOM     26  C   UNL     1       8.581  -0.512  22.067  0.00  0.00    +0.015 A 
ATOM     27  C   UNL     1       9.105   0.656  21.537  0.00  0.00    +0.050 A 
ATOM     28  C   UNL     1      10.045   1.358  22.279  0.00  0.00    +0.158 A 
ATOM     29  C   UNL     1      10.542   0.854  23.482  0.00  0.00    +0.159 A 
ATOM     30  C   UNL     1      10.048  -0.326  24.009  0.00  0.00    +0.060 A 
BRANCH  29  31
ATOM     31  O   UNL     1      11.475   1.601  24.146  0.00  0.00    -0.503 OA
ATOM     32  H   UNL     1      12.206   1.008  24.393  0.00  0.00    +0.292 HD
ENDBRANCH  29  31
BRANCH  28  33
ATOM     33  O   UNL     1      10.434   2.591  21.854  0.00  0.00    -0.503 OA
ATOM     34  H   UNL     1      11.235   2.777  22.383  0.00  0.00    +0.292 HD
ENDBRANCH  28  33
ENDBRANCH  24  25
BRANCH  20  35
ATOM     35  O   UNL     1       5.929  -6.776  21.205  0.00  0.00    -0.507 OA
ATOM     36  H   UNL     1       6.629  -6.676  20.538  0.00  0.00    +0.292 HD
ENDBRANCH  20  35
BRANCH  23  37
ATOM     37  O   UNL     1       4.920  -5.396  25.640  0.00  0.00    -0.506 OA
ATOM     38  H   UNL     1       5.492  -5.402  26.424  0.00  0.00    +0.292 HD
ENDBRANCH  23  37
ENDBRANCH  13  14
ENDBRANCH   3  13
BRANCH   1  39
ATOM     39  O   UNL     1       6.419   3.373  25.230  0.00  0.00    -0.340 OA
BRANCH  39  45
ATOM     40  C   UNL     1       6.050   7.040  23.192  0.00  0.00    +0.040 C 
ATOM     41  C   UNL     1       6.235   5.624  22.640  0.00  0.00    +0.147 C 
ATOM     42  O   UNL     1       4.934   5.046  22.692  0.00  0.00    -0.366 OA
ATOM     43  C   UNL     1       4.809   3.662  22.361  0.00  0.00    +0.175 C 
ATOM     44  C   UNL     1       6.049   2.823  22.728  0.00  0.00    +0.177 C 
ATOM     45  C   UNL     1       6.924   3.406  23.864  0.00  0.00    +0.183 C 
ATOM     46  C   UNL     1       7.313   4.854  23.452  0.00  0.00    +0.174 C 
BRANCH  46  47
ATOM     47  O   UNL     1       8.508   4.802  22.638  0.00  0.00    -0.387 OA
ATOM     48  H   UNL     1       8.267   4.578  21.719  0.00  0.00    +0.210 HD
ENDBRANCH  46  47
BRANCH  44  49
ATOM     49  O   UNL     1       5.834   1.419  22.826  0.00  0.00    -0.386 OA
ATOM     50  H   UNL     1       6.686   0.957  22.895  0.00  0.00    +0.210 HD
ENDBRANCH  44  49
BRANCH  43  51
ATOM     51  C   UNL     1       3.478   3.217  22.982  0.00  0.00    +0.190 C 
BRANCH  51  52
ATOM     52  O   UNL     1       3.671   2.420  24.143  0.00  0.00    -0.392 OA
ATOM     53  H   UNL     1       2.813   2.393  24.610  0.00  0.00    +0.210 HD
ENDBRANCH  51  52
ENDBRANCH  43  51
ENDBRANCH  39  45
ENDBRANCH   1  39
TORSDOF 16
ENDMDL
MODEL 2
REMARK VINA RESULT:      -6.9      2.583      4.675
REMARK  Name = 
REMARK  17 active torsions:
REMARK  status: ('A' for Active; 'I' for Inactive)
REMARK    1  A    between atoms: C_1  and  C_2
REMARK    2  A    between atoms: C_4  and  O_53
REMARK    3  A    between atoms: C_6  and  O_16
REMARK    4  A    between atoms: C_8  and  O_15
REMARK    5  A    between atoms: C_10  and  C_13
REMARK    6  A    between atoms: C_13  and  O_14
REMARK    7  A    between atoms: O_16  and  C_17
REMARK    8  A    between atoms: C_19  and  O_52
REMARK    9  A    between atoms: C_21  and  O_51
REMARK   10  A    between atoms: C_23  and  O_50
REMARK   11  A    between atoms: C_25  and  O_28
REMARK   12  A    between atoms: O_28  and  C_29
REMARK   13  A    between atoms: C_30  and  C_42
REMARK   14  A    between atoms: C_34  and  O_41
REMARK   15  A    between atoms: C_36  and  O_40
REMARK   16  A    between atoms: C_44  and  O_49
REMARK   17  A    between atoms: C_45  and  O_48
REMARK                            x       y       z     vdW  Elec       q    Type
REMARK                         _______ _______ _______ _____ _____    ______ ____
ROOT
ATOM      1  C   UNL     1       7.484  -0.249  26.367  0.00  0.00    +0.286 C 
ATOM      2  O   UNL     1       7.067  -1.607  26.647  0.00  0.00    -0.307 OA
ATOM      3  C   UNL     1       5.700  -1.975  26.431  0.00  0.00    +0.341 C 
ATOM      4  C   UNL     1       4.697  -0.910  26.971  0.00  0.00    +0.214 C 
ATOM      5  C   UNL     1       5.104   0.519  26.610  0.00  0.00    +0.182 C 
ATOM      6  C   UNL     1       6.543   0.771  27.048  0.00  0.00    +0.201 C 
ENDROOT
BRANCH   6   7
ATOM      7  O   UNL     1       6.641   0.679  28.478  0.00  0.00    -0.384 OA
ATOM      8  H   UNL     1       5.744   0.744  28.854  0.00  0.00    +0.210 HD
ENDBRANCH   6   7
BRANCH   5   9
ATOM      9  O   UNL     1       4.884   0.741  25.208  0.00  0.00    -0.386 OA
ATOM     10  H   UNL     1       4.939  -0.111  24.731  0.00  0.00    +0.210 HD
ENDBRANCH   5   9
BRANCH   4  11
ATOM     11  O   UNL     1       3.354  -1.140  26.502  0.00  0.00    -0.383 OA
ATOM     12  H   UNL     1       3.219  -0.516  25.761  0.00  0.00    +0.210 HD
ENDBRANCH   4  11
BRANCH   3  13
ATOM     13  O   UNL     1       5.389  -3.169  27.215  0.00  0.00    -0.453 OA
BRANCH  13  14
ATOM     14  C   UNL     1       4.721  -4.280  26.737  0.00  0.00    +0.214 A 
ATOM     15  C   UNL     1       3.323  -4.668  27.109  0.00  0.00    +0.238 A 
ATOM     16  O   UNL     1       2.741  -4.143  28.047  0.00  0.00    -0.283 OA
ATOM     17  C   UNL     1       2.698  -5.758  26.292  0.00  0.00    +0.109 A 
ATOM     18  C   UNL     1       3.538  -6.533  25.497  0.00  0.00    +0.147 A 
ATOM     19  C   UNL     1       3.060  -7.557  24.673  0.00  0.00    +0.092 A 
ATOM     20  C   UNL     1       1.701  -7.808  24.643  0.00  0.00    +0.124 A 
ATOM     21  C   UNL     1       0.833  -7.061  25.435  0.00  0.00    +0.091 A 
ATOM     22  O   UNL     1       4.883  -6.346  25.456  0.00  0.00    -0.451 OA
ATOM     23  C   UNL     1       1.330  -6.040  26.260  0.00  0.00    +0.135 A 
ATOM     24  C   UNL     1       5.367  -5.158  25.934  0.00  0.00    +0.181 A 
BRANCH  24  25
ATOM     25  C   UNL     1       6.690  -4.890  25.396  0.00  0.00    +0.025 A 
ATOM     26  C   UNL     1       6.766  -4.253  24.148  0.00  0.00    +0.015 A 
ATOM     27  C   UNL     1       7.994  -3.829  23.666  0.00  0.00    +0.050 A 
ATOM     28  C   UNL     1       9.123  -4.053  24.440  0.00  0.00    +0.158 A 
ATOM     29  C   UNL     1       9.056  -4.785  25.627  0.00  0.00    +0.159 A 
ATOM     30  C   UNL     1       7.840  -5.240  26.105  0.00  0.00    +0.060 A 
BRANCH  29  31
ATOM     31  O   UNL     1      10.216  -4.971  26.325  0.00  0.00    -0.503 OA
ATOM     32  H   UNL     1      10.072  -4.644  27.230  0.00  0.00    +0.292 HD
ENDBRANCH  29  31
BRANCH  28  33
ATOM     33  O   UNL     1      10.303  -3.487  24.065  0.00  0.00    -0.503 OA
ATOM     34  H   UNL     1      10.035  -2.640  23.656  0.00  0.00    +0.292 HD
ENDBRANCH  28  33
ENDBRANCH  24  25
BRANCH  20  35
ATOM     35  O   UNL     1       1.184  -8.777  23.835  0.00  0.00    -0.507 OA
ATOM     36  H   UNL     1       0.358  -9.109  24.224  0.00  0.00    +0.292 HD
ENDBRANCH  20  35
BRANCH  23  37
ATOM     37  O   UNL     1       0.447  -5.311  27.004  0.00  0.00    -0.506 OA
ATOM     38  H   UNL     1       0.111  -4.566  26.482  0.00  0.00    +0.292 HD
ENDBRANCH  23  37
ENDBRANCH  13  14
ENDBRANCH   3  13
BRANCH   1  39
ATOM     39  O   UNL     1       7.749   0.010  24.974  0.00  0.00    -0.340 OA
BRANCH  39  45
ATOM     40  C   UNL     1       6.729   2.969  22.157  0.00  0.00    +0.040 C 
ATOM     41  C   UNL     1       8.106   2.492  22.625  0.00  0.00    +0.147 C 
ATOM     42  O   UNL     1       8.336   1.289  21.898  0.00  0.00    -0.366 OA
ATOM     43  C   UNL     1       9.500   0.529  22.223  0.00  0.00    +0.175 C 
ATOM     44  C   UNL     1       9.915   0.635  23.704  0.00  0.00    +0.177 C 
ATOM     45  C   UNL     1       8.774   1.003  24.681  0.00  0.00    +0.183 C 
ATOM     46  C   UNL     1       8.134   2.324  24.171  0.00  0.00    +0.174 C 
BRANCH  46  47
ATOM     47  O   UNL     1       8.877   3.442  24.710  0.00  0.00    -0.387 OA
ATOM     48  H   UNL     1       9.693   3.116  25.137  0.00  0.00    +0.210 HD
ENDBRANCH  46  47
BRANCH  44  49
ATOM     49  O   UNL     1      10.772  -0.399  24.178  0.00  0.00    -0.386 OA
ATOM     50  H   UNL     1      11.269  -0.784  23.437  0.00  0.00    +0.210 HD
ENDBRANCH  44  49
BRANCH  43  51
ATOM     51  C   UNL     1       9.221  -0.884  21.693  0.00  0.00    +0.190 C 
BRANCH  51  52
ATOM     52  O   UNL     1      10.382  -1.704  21.725  0.00  0.00    -0.392 OA
ATOM     53  H   UNL     1      10.935  -1.435  20.964  0.00  0.00    +0.210 HD
ENDBRANCH  51  52
ENDBRANCH  43  51
ENDBRANCH  39  45
ENDBRANCH   1  39
TORSDOF 16
ENDMDL
MODEL 3
REMARK VINA RESULT:      -6.9      2.324      8.025
REMARK  Name = 
REMARK  17 active torsions:
REMARK  status: ('A' for Active; 'I' for Inactive)
REMARK    1  A    between atoms: C_1  and  C_2
REMARK    2  A    between atoms: C_4  and  O_53
REMARK    3  A    between atoms: C_6  and  O_16
REMARK    4  A    between atoms: C_8  and  O_15
REMARK    5  A    between atoms: C_10  and  C_13
REMARK    6  A    between atoms: C_13  and  O_14
REMARK    7  A    between atoms: O_16  and  C_17
REMARK    8  A    between atoms: C_19  and  O_52
REMARK    9  A    between atoms: C_21  and  O_51
REMARK   10  A    between atoms: C_23  and  O_50
REMARK   11  A    between atoms: C_25  and  O_28
REMARK   12  A    between atoms: O_28  and  C_29
REMARK   13  A    between atoms: C_30  and  C_42
REMARK   14  A    between atoms: C_34  and  O_41
REMARK   15  A    between atoms: C_36  and  O_40
REMARK   16  A    between atoms: C_44  and  O_49
REMARK   17  A    between atoms: C_45  and  O_48
REMARK                            x       y       z     vdW  Elec       q    Type
REMARK                         _______ _______ _______ _____ _____    ______ ____
ROOT
ATOM      1  C   UNL     1       5.802  -1.451  24.713  0.00  0.00    +0.286 C 
ATOM      2  O   UNL     1       6.239  -0.261  24.013  0.00  0.00    -0.307 OA
ATOM      3  C   UNL     1       7.111   0.660  24.679  0.00  0.00    +0.341 C 
ATOM      4  C   UNL     1       6.675   0.947  26.149  0.00  0.00    +0.214 C 
ATOM      5  C   UNL     1       6.283  -0.322  26.906  0.00  0.00    +0.182 C 
ATOM      6  C   UNL     1       5.239  -1.097  26.109  0.00  0.00    +0.201 C 
ENDROOT
BRANCH   6   7
ATOM      7  O   UNL     1       4.038  -0.317  25.992  0.00  0.00    -0.384 OA
ATOM      8  H   UNL     1       3.272  -0.917  26.058  0.00  0.00    +0.210 HD
ENDBRANCH   6   7
BRANCH   5   9
ATOM      9  O   UNL     1       7.462  -1.088  27.202  0.00  0.00    -0.386 OA
ATOM     10  H   UNL     1       7.423  -1.399  28.128  0.00  0.00    +0.210 HD
ENDBRANCH   5   9
BRANCH   4  11
ATOM     11  O   UNL     1       7.698   1.634  26.896  0.00  0.00    -0.383 OA
ATOM     12  H   UNL     1       8.251   2.092  26.232  0.00  0.00    +0.210 HD
ENDBRANCH   4  11
BRANCH   3  13
ATOM     13  O   UNL     1       7.023   1.967  24.032  0.00  0.00    -0.453 OA
BRANCH  13  14
ATOM     14  C   UNL     1       8.049   2.889  23.965  0.00  0.00    +0.214 A 
ATOM     15  C   UNL     1       7.894   4.365  24.172  0.00  0.00    +0.238 A 
ATOM     16  O   UNL     1       6.793   4.895  24.198  0.00  0.00    -0.283 OA
ATOM     17  C   UNL     1       9.162   5.153  24.307  0.00  0.00    +0.109 A 
ATOM     18  C   UNL     1      10.349   4.541  23.914  0.00  0.00    +0.147 A 
ATOM     19  C   UNL     1      11.593   5.171  24.023  0.00  0.00    +0.092 A 
ATOM     20  C   UNL     1      11.647   6.449  24.544  0.00  0.00    +0.124 A 
ATOM     21  C   UNL     1      10.479   7.098  24.936  0.00  0.00    +0.091 A 
ATOM     22  O   UNL     1      10.388   3.282  23.403  0.00  0.00    -0.451 OA
ATOM     23  C   UNL     1       9.238   6.453  24.815  0.00  0.00    +0.135 A 
ATOM     24  C   UNL     1       9.293   2.487  23.607  0.00  0.00    +0.181 A 
BRANCH  24  25
ATOM     25  C   UNL     1       9.643   1.084  23.465  0.00  0.00    +0.025 A 
ATOM     26  C   UNL     1      10.046   0.396  24.620  0.00  0.00    +0.015 A 
ATOM     27  C   UNL     1      10.234  -0.975  24.573  0.00  0.00    +0.050 A 
ATOM     28  C   UNL     1      10.018  -1.633  23.371  0.00  0.00    +0.158 A 
ATOM     29  C   UNL     1       9.726  -0.930  22.201  0.00  0.00    +0.159 A 
ATOM     30  C   UNL     1       9.565   0.444  22.228  0.00  0.00    +0.060 A 
BRANCH  29  31
ATOM     31  O   UNL     1       9.540  -1.652  21.055  0.00  0.00    -0.503 OA
ATOM     32  H   UNL     1      10.327  -2.211  20.927  0.00  0.00    +0.292 HD
ENDBRANCH  29  31
BRANCH  28  33
ATOM     33  O   UNL     1      10.025  -2.995  23.353  0.00  0.00    -0.503 OA
ATOM     34  H   UNL     1      10.566  -3.235  24.130  0.00  0.00    +0.292 HD
ENDBRANCH  28  33
ENDBRANCH  24  25
BRANCH  20  35
ATOM     35  O   UNL     1      12.838   7.095  24.696  0.00  0.00    -0.507 OA
ATOM     36  H   UNL     1      13.548   6.549  24.319  0.00  0.00    +0.292 HD
ENDBRANCH  20  35
BRANCH  23  37
ATOM     37  O   UNL     1       8.115   7.108  25.232  0.00  0.00    -0.506 OA
ATOM     38  H   UNL     1       7.376   6.911  24.635  0.00  0.00    +0.292 HD
ENDBRANCH  23  37
ENDBRANCH  13  14
ENDBRANCH   3  13
BRANCH   1  39
ATOM     39  O   UNL     1       6.763  -2.525  24.704  0.00  0.00    -0.340 OA
BRANCH  39  45
ATOM     40  C   UNL     1       2.834  -3.937  25.253  0.00  0.00    +0.040 C 
ATOM     41  C   UNL     1       4.077  -4.668  24.738  0.00  0.00    +0.147 C 
ATOM     42  O   UNL     1       4.807  -5.006  25.913  0.00  0.00    -0.366 OA
ATOM     43  C   UNL     1       6.101  -5.587  25.747  0.00  0.00    +0.175 C 
ATOM     44  C   UNL     1       6.840  -5.102  24.484  0.00  0.00    +0.177 C 
ATOM     45  C   UNL     1       6.396  -3.718  23.954  0.00  0.00    +0.183 C 
ATOM     46  C   UNL     1       4.859  -3.779  23.730  0.00  0.00    +0.174 C 
BRANCH  46  47
ATOM     47  O   UNL     1       4.600  -4.304  22.407  0.00  0.00    -0.387 OA
ATOM     48  H   UNL     1       5.225  -5.029  22.215  0.00  0.00    +0.210 HD
ENDBRANCH  46  47
BRANCH  44  49
ATOM     49  O   UNL     1       8.250  -5.296  24.485  0.00  0.00    -0.386 OA
ATOM     50  H   UNL     1       8.547  -5.586  23.606  0.00  0.00    +0.210 HD
ENDBRANCH  44  49
BRANCH  43  51
ATOM     51  C   UNL     1       6.819  -5.364  27.085  0.00  0.00    +0.190 C 
BRANCH  51  52
ATOM     52  O   UNL     1       8.079  -6.023  27.129  0.00  0.00    -0.392 OA
ATOM     53  H   UNL     1       8.549  -5.673  27.912  0.00  0.00    +0.210 HD
ENDBRANCH  51  52
ENDBRANCH  43  51
ENDBRANCH  39  45
ENDBRANCH   1  39
TORSDOF 16
ENDMDL
MODEL 4
REMARK VINA RESULT:      -6.9      2.220      5.730
REMARK  Name = 
REMARK  17 active torsions:
REMARK  status: ('A' for Active; 'I' for Inactive)
REMARK    1  A    between atoms: C_1  and  C_2
REMARK    2  A    between atoms: C_4  and  O_53
REMARK    3  A    between atoms: C_6  and  O_16
REMARK    4  A    between atoms: C_8  and  O_15
REMARK    5  A    between atoms: C_10  and  C_13
REMARK    6  A    between atoms: C_13  and  O_14
REMARK    7  A    between atoms: O_16  and  C_17
REMARK    8  A    between atoms: C_19  and  O_52
REMARK    9  A    between atoms: C_21  and  O_51
REMARK   10  A    between atoms: C_23  and  O_50
REMARK   11  A    between atoms: C_25  and  O_28
REMARK   12  A    between atoms: O_28  and  C_29
REMARK   13  A    between atoms: C_30  and  C_42
REMARK   14  A    between atoms: C_34  and  O_41
REMARK   15  A    between atoms: C_36  and  O_40
REMARK   16  A    between atoms: C_44  and  O_49
REMARK   17  A    between atoms: C_45  and  O_48
REMARK                            x       y       z     vdW  Elec       q    Type
REMARK                         _______ _______ _______ _____ _____    ______ ____
ROOT
ATOM      1  C   UNL     1       8.354   1.374  21.681  0.00  0.00    +0.286 C 
ATOM      2  O   UNL     1       7.347   0.664  22.443  0.00  0.00    -0.307 OA
ATOM      3  C   UNL     1       7.702   0.099  23.710  0.00  0.00    +0.341 C 
ATOM      4  C   UNL     1       9.073  -0.644  23.677  0.00  0.00    +0.214 C 
ATOM      5  C   UNL     1      10.152   0.144  22.933  0.00  0.00    +0.182 C 
ATOM      6  C   UNL     1       9.645   0.533  21.549  0.00  0.00    +0.201 C 
ENDROOT
BRANCH   6   7
ATOM      7  O   UNL     1       9.405  -0.648  20.767  0.00  0.00    -0.384 OA
ATOM      8  H   UNL     1       9.030  -1.334  21.350  0.00  0.00    +0.210 HD
ENDBRANCH   6   7
BRANCH   5   9
ATOM      9  O   UNL     1      10.562   1.267  23.730  0.00  0.00    -0.386 OA
ATOM     10  H   UNL     1      11.493   1.149  24.004  0.00  0.00    +0.210 HD
ENDBRANCH   5   9
BRANCH   4  11
ATOM     11  O   UNL     1       9.556  -0.955  24.998  0.00  0.00    -0.383 OA
ATOM     12  H   UNL     1      10.403  -1.428  24.869  0.00  0.00    +0.210 HD
ENDBRANCH   4  11
BRANCH   3  13
ATOM     13  O   UNL     1       6.749  -0.954  24.057  0.00  0.00    -0.453 OA
BRANCH  13  14
ATOM     14  C   UNL     1       6.014  -1.004  25.225  0.00  0.00    +0.214 A 
ATOM     15  C   UNL     1       5.057   0.053  25.684  0.00  0.00    +0.238 A 
ATOM     16  O   UNL     1       5.022   1.156  25.160  0.00  0.00    -0.283 OA
ATOM     17  C   UNL     1       4.177  -0.308  26.843  0.00  0.00    +0.109 A 
ATOM     18  C   UNL     1       4.523  -1.427  27.595  0.00  0.00    +0.147 A 
ATOM     19  C   UNL     1       3.759  -1.871  28.679  0.00  0.00    +0.092 A 
ATOM     20  C   UNL     1       2.614  -1.176  29.014  0.00  0.00    +0.124 A 
ATOM     21  C   UNL     1       2.243  -0.045  28.293  0.00  0.00    +0.091 A 
ATOM     22  O   UNL     1       5.626  -2.175  27.326  0.00  0.00    -0.451 OA
ATOM     23  C   UNL     1       3.024   0.391  27.211  0.00  0.00    +0.135 A 
ATOM     24  C   UNL     1       6.199  -2.028  26.093  0.00  0.00    +0.181 A 
BRANCH  24  25
ATOM     25  C   UNL     1       7.014  -3.185  25.764  0.00  0.00    +0.025 A 
ATOM     26  C   UNL     1       6.718  -3.870  24.575  0.00  0.00    +0.015 A 
ATOM     27  C   UNL     1       7.561  -4.877  24.133  0.00  0.00    +0.050 A 
ATOM     28  C   UNL     1       8.683  -5.182  24.890  0.00  0.00    +0.158 A 
ATOM     29  C   UNL     1       8.910  -4.575  26.127  0.00  0.00    +0.159 A 
ATOM     30  C   UNL     1       8.060  -3.589  26.594  0.00  0.00    +0.060 A 
BRANCH  29  31
ATOM     31  O   UNL     1      10.033  -4.941  26.816  0.00  0.00    -0.503 OA
ATOM     32  H   UNL     1      10.793  -4.840  26.217  0.00  0.00    +0.292 HD
ENDBRANCH  29  31
BRANCH  28  33
ATOM     33  O   UNL     1       9.609  -6.040  24.381  0.00  0.00    -0.503 OA
ATOM     34  H   UNL     1       9.824  -5.657  23.507  0.00  0.00    +0.292 HD
ENDBRANCH  28  33
ENDBRANCH  24  25
BRANCH  20  35
ATOM     35  O   UNL     1       1.820  -1.586  30.045  0.00  0.00    -0.507 OA
ATOM     36  H   UNL     1       0.893  -1.390  29.831  0.00  0.00    +0.292 HD
ENDBRANCH  20  35
BRANCH  23  37
ATOM     37  O   UNL     1       2.618   1.490  26.509  0.00  0.00    -0.506 OA
ATOM     38  H   UNL     1       2.566   2.259  27.099  0.00  0.00    +0.292 HD
ENDBRANCH  23  37
ENDBRANCH  13  14
ENDBRANCH   3  13
BRANCH   1  39
ATOM     39  O   UNL     1       8.561   2.736  22.106  0.00  0.00    -0.340 OA
BRANCH  39  45
ATOM     40  C   UNL     1       6.997   6.599  21.503  0.00  0.00    +0.040 C 
ATOM     41  C   UNL     1       7.133   5.784  22.792  0.00  0.00    +0.147 C 
ATOM     42  O   UNL     1       8.496   5.944  23.175  0.00  0.00    -0.366 OA
ATOM     43  C   UNL     1       8.967   5.182  24.287  0.00  0.00    +0.175 C 
ATOM     44  C   UNL     1       8.270   3.815  24.440  0.00  0.00    +0.177 C 
ATOM     45  C   UNL     1       7.665   3.237  23.139  0.00  0.00    +0.183 C 
ATOM     46  C   UNL     1       6.700   4.310  22.560  0.00  0.00    +0.174 C 
BRANCH  46  47
ATOM     47  O   UNL     1       5.398   4.145  23.170  0.00  0.00    -0.387 OA
ATOM     48  H   UNL     1       5.441   4.411  24.108  0.00  0.00    +0.210 HD
ENDBRANCH  46  47
BRANCH  44  49
ATOM     49  O   UNL     1       8.965   2.856  25.230  0.00  0.00    -0.386 OA
ATOM     50  H   UNL     1       8.684   2.923  26.158  0.00  0.00    +0.210 HD
ENDBRANCH  44  49
BRANCH  43  51
ATOM     51  C   UNL     1      10.494   5.155  24.140  0.00  0.00    +0.190 C 
BRANCH  51  52
ATOM     52  O   UNL     1      10.930   4.097  23.296  0.00  0.00    -0.392 OA
ATOM     53  H   UNL     1      11.169   3.352  23.883  0.00  0.00    +0.210 HD
ENDBRANCH  51  52
ENDBRANCH  43  51
ENDBRANCH  39  45
ENDBRANCH   1  39
TORSDOF 16
ENDMDL
MODEL 5
REMARK VINA RESULT:      -6.9      0.916      1.343
REMARK  Name = 
REMARK  17 active torsions:
REMARK  status: ('A' for Active; 'I' for Inactive)
REMARK    1  A    between atoms: C_1  and  C_2
REMARK    2  A    between atoms: C_4  and  O_53
REMARK    3  A    between atoms: C_6  and  O_16
REMARK    4  A    between atoms: C_8  and  O_15
REMARK    5  A    between atoms: C_10  and  C_13
REMARK    6  A    between atoms: C_13  and  O_14
REMARK    7  A    between atoms: O_16  and  C_17
REMARK    8  A    between atoms: C_19  and  O_52
REMARK    9  A    between atoms: C_21  and  O_51
REMARK   10  A    between atoms: C_23  and  O_50
REMARK   11  A    between atoms: C_25  and  O_28
REMARK   12  A    between atoms: O_28  and  C_29
REMARK   13  A    between atoms: C_30  and  C_42
REMARK   14  A    between atoms: C_34  and  O_41
REMARK   15  A    between atoms: C_36  and  O_40
REMARK   16  A    between atoms: C_44  and  O_49
REMARK   17  A    between atoms: C_45  and  O_48
REMARK                            x       y       z     vdW  Elec       q    Type
REMARK                         _______ _______ _______ _____ _____    ______ ____
ROOT
ATOM      1  C   UNL     1       7.158   2.746  26.475  0.00  0.00    +0.286 C 
ATOM      2  O   UNL     1       7.662   1.459  26.042  0.00  0.00    -0.307 OA
ATOM      3  C   UNL     1       6.833   0.301  26.186  0.00  0.00    +0.341 C 
ATOM      4  C   UNL     1       6.120   0.238  27.572  0.00  0.00    +0.214 C 
ATOM      5  C   UNL     1       5.526   1.583  27.991  0.00  0.00    +0.182 C 
ATOM      6  C   UNL     1       6.596   2.666  27.913  0.00  0.00    +0.201 C 
ENDROOT
BRANCH   6   7
ATOM      7  O   UNL     1       7.644   2.385  28.854  0.00  0.00    -0.384 OA
ATOM      8  H   UNL     1       7.238   2.096  29.692  0.00  0.00    +0.210 HD
ENDBRANCH   6   7
BRANCH   5   9
ATOM      9  O   UNL     1       4.366   1.865  27.191  0.00  0.00    -0.386 OA
ATOM     10  H   UNL     1       3.670   2.257  27.756  0.00  0.00    +0.210 HD
ENDBRANCH   5   9
BRANCH   4  11
ATOM     11  O   UNL     1       5.079  -0.758  27.605  0.00  0.00    -0.383 OA
ATOM     12  H   UNL     1       5.044  -1.078  28.528  0.00  0.00    +0.210 HD
ENDBRANCH   4  11
BRANCH   3  13
ATOM     13  O   UNL     1       7.667  -0.899  26.174  0.00  0.00    -0.453 OA
BRANCH  13  14
ATOM     14  C   UNL     1       7.491  -1.979  25.330  0.00  0.00    +0.214 A 
ATOM     15  C   UNL     1       6.827  -3.266  25.710  0.00  0.00    +0.238 A 
ATOM     16  O   UNL     1       6.586  -3.542  26.876  0.00  0.00    -0.283 OA
ATOM     17  C   UNL     1       6.512  -4.207  24.587  0.00  0.00    +0.109 A 
ATOM     18  C   UNL     1       7.132  -3.981  23.360  0.00  0.00    +0.147 A 
ATOM     19  C   UNL     1       6.890  -4.777  22.236  0.00  0.00    +0.092 A 
ATOM     20  C   UNL     1       5.999  -5.827  22.345  0.00  0.00    +0.124 A 
ATOM     21  C   UNL     1       5.370  -6.091  23.558  0.00  0.00    +0.091 A 
ATOM     22  O   UNL     1       8.012  -2.964  23.163  0.00  0.00    -0.451 OA
ATOM     23  C   UNL     1       5.628  -5.285  24.679  0.00  0.00    +0.135 A 
ATOM     24  C   UNL     1       8.015  -1.949  24.081  0.00  0.00    +0.181 A 
BRANCH  24  25
ATOM     25  C   UNL     1       8.604  -0.747  23.516  0.00  0.00    +0.025 A 
ATOM     26  C   UNL     1       9.927  -0.444  23.871  0.00  0.00    +0.015 A 
ATOM     27  C   UNL     1      10.589   0.595  23.237  0.00  0.00    +0.050 A 
ATOM     28  C   UNL     1       9.913   1.314  22.262  0.00  0.00    +0.158 A 
ATOM     29  C   UNL     1       8.563   1.081  21.993  0.00  0.00    +0.159 A 
ATOM     30  C   UNL     1       7.882   0.066  22.640  0.00  0.00    +0.060 A 
BRANCH  29  31
ATOM     31  O   UNL     1       7.968   1.842  21.026  0.00  0.00    -0.503 OA
ATOM     32  H   UNL     1       7.394   2.490  21.472  0.00  0.00    +0.292 HD
ENDBRANCH  29  31
BRANCH  28  33
ATOM     33  O   UNL     1      10.603   2.216  21.510  0.00  0.00    -0.503 OA
ATOM     34  H   UNL     1      10.356   3.079  21.898  0.00  0.00    +0.292 HD
ENDBRANCH  28  33
ENDBRANCH  24  25
BRANCH  20  35
ATOM     35  O   UNL     1       5.708  -6.615  21.270  0.00  0.00    -0.507 OA
ATOM     36  H   UNL     1       4.759  -6.822  21.274  0.00  0.00    +0.292 HD
ENDBRANCH  20  35
BRANCH  23  37
ATOM     37  O   UNL     1       4.975  -5.557  25.846  0.00  0.00    -0.506 OA
ATOM     38  H   UNL     1       5.249  -6.424  26.184  0.00  0.00    +0.292 HD
ENDBRANCH  23  37
ENDBRANCH  13  14
ENDBRANCH   3  13
BRANCH   1  39
ATOM     39  O   UNL     1       6.287   3.387  25.521  0.00  0.00    -0.340 OA
BRANCH  39  45
ATOM     40  C   UNL     1       7.773   7.105  24.218  0.00  0.00    +0.040 C 
ATOM     41  C   UNL     1       7.254   5.916  23.406  0.00  0.00    +0.147 C 
ATOM     42  O   UNL     1       5.835   6.033  23.463  0.00  0.00    -0.366 OA
ATOM     43  C   UNL     1       5.058   4.976  22.901  0.00  0.00    +0.175 C 
ATOM     44  C   UNL     1       5.729   3.592  23.003  0.00  0.00    +0.177 C 
ATOM     45  C   UNL     1       6.762   3.445  24.145  0.00  0.00    +0.183 C 
ATOM     46  C   UNL     1       7.811   4.579  23.970  0.00  0.00    +0.174 C 
BRANCH  46  47
ATOM     47  O   UNL     1       8.841   4.125  23.061  0.00  0.00    -0.387 OA
ATOM     48  H   UNL     1       8.668   4.481  22.168  0.00  0.00    +0.210 HD
ENDBRANCH  46  47
BRANCH  44  49
ATOM     49  O   UNL     1       4.858   2.475  22.863  0.00  0.00    -0.386 OA
ATOM     50  H   UNL     1       5.331   1.655  23.082  0.00  0.00    +0.210 HD
ENDBRANCH  44  49
BRANCH  43  51
ATOM     51  C   UNL     1       3.670   5.109  23.542  0.00  0.00    +0.190 C 
BRANCH  51  52
ATOM     52  O   UNL     1       3.732   5.722  24.824  0.00  0.00    -0.392 OA
ATOM     53  H   UNL     1       4.680   5.863  25.020  0.00  0.00    +0.210 HD
ENDBRANCH  51  52
ENDBRANCH  43  51
ENDBRANCH  39  45
ENDBRANCH   1  39
TORSDOF 16
ENDMDL
MODEL 6
REMARK VINA RESULT:      -6.8      1.905      8.031
REMARK  Name = 
REMARK  17 active torsions:
REMARK  status: ('A' for Active; 'I' for Inactive)
REMARK    1  A    between atoms: C_1  and  C_2
REMARK    2  A    between atoms: C_4  and  O_53
REMARK    3  A    between atoms: C_6  and  O_16
REMARK    4  A    between atoms: C_8  and  O_15
REMARK    5  A    between atoms: C_10  and  C_13
REMARK    6  A    between atoms: C_13  and  O_14
REMARK    7  A    between atoms: O_16  and  C_17
REMARK    8  A    between atoms: C_19  and  O_52
REMARK    9  A    between atoms: C_21  and  O_51
REMARK   10  A    between atoms: C_23  and  O_50
REMARK   11  A    between atoms: C_25  and  O_28
REMARK   12  A    between atoms: O_28  and  C_29
REMARK   13  A    between atoms: C_30  and  C_42
REMARK   14  A    between atoms: C_34  and  O_41
REMARK   15  A    between atoms: C_36  and  O_40
REMARK   16  A    between atoms: C_44  and  O_49
REMARK   17  A    between atoms: C_45  and  O_48
REMARK                            x       y       z     vdW  Elec       q    Type
REMARK                         _______ _______ _______ _____ _____    ______ ____
ROOT
ATOM      1  C   UNL     1       7.245  -4.310  26.129  0.00  0.00    +0.286 C 
ATOM      2  O   UNL     1       7.282  -2.870  26.276  0.00  0.00    -0.307 OA
ATOM      3  C   UNL     1       8.023  -2.092  25.329  0.00  0.00    +0.341 C 
ATOM      4  C   UNL     1       9.421  -2.705  25.008  0.00  0.00    +0.214 C 
ATOM      5  C   UNL     1       9.364  -4.216  24.783  0.00  0.00    +0.182 C 
ATOM      6  C   UNL     1       8.670  -4.888  25.963  0.00  0.00    +0.201 C 
ENDROOT
BRANCH   6   7
ATOM      7  O   UNL     1       9.441  -4.692  27.159  0.00  0.00    -0.384 OA
ATOM      8  H   UNL     1      10.137  -5.375  27.193  0.00  0.00    +0.210 HD
ENDBRANCH   6   7
BRANCH   5   9
ATOM      9  O   UNL     1       8.740  -4.490  23.518  0.00  0.00    -0.386 OA
ATOM     10  H   UNL     1       7.781  -4.626  23.652  0.00  0.00    +0.210 HD
ENDBRANCH   5   9
BRANCH   4  11
ATOM     11  O   UNL     1      10.035  -2.089  23.859  0.00  0.00    -0.383 OA
ATOM     12  H   UNL     1      10.420  -1.249  24.180  0.00  0.00    +0.210 HD
ENDBRANCH   4  11
BRANCH   3  13
ATOM     13  O   UNL     1       8.344  -0.792  25.915  0.00  0.00    -0.453 OA
BRANCH  13  14
ATOM     14  C   UNL     1       7.958   0.429  25.395  0.00  0.00    +0.214 A 
ATOM     15  C   UNL     1       8.592   1.099  24.216  0.00  0.00    +0.238 A 
ATOM     16  O   UNL     1       9.657   0.714  23.756  0.00  0.00    -0.283 OA
ATOM     17  C   UNL     1       7.868   2.288  23.660  0.00  0.00    +0.109 A 
ATOM     18  C   UNL     1       6.875   2.867  24.446  0.00  0.00    +0.147 A 
ATOM     19  C   UNL     1       6.116   3.960  24.016  0.00  0.00    +0.092 A 
ATOM     20  C   UNL     1       6.358   4.485  22.761  0.00  0.00    +0.124 A 
ATOM     21  C   UNL     1       7.351   3.940  21.952  0.00  0.00    +0.091 A 
ATOM     22  O   UNL     1       6.564   2.406  25.686  0.00  0.00    -0.451 OA
ATOM     23  C   UNL     1       8.107   2.846  22.401  0.00  0.00    +0.135 A 
ATOM     24  C   UNL     1       6.992   1.149  26.015  0.00  0.00    +0.181 A 
BRANCH  24  25
ATOM     25  C   UNL     1       6.205   0.609  27.110  0.00  0.00    +0.025 A 
ATOM     26  C   UNL     1       6.536   1.020  28.411  0.00  0.00    +0.015 A 
ATOM     27  C   UNL     1       5.719   0.665  29.473  0.00  0.00    +0.050 A 
ATOM     28  C   UNL     1       4.589  -0.097  29.214  0.00  0.00    +0.158 A 
ATOM     29  C   UNL     1       4.327  -0.596  27.937  0.00  0.00    +0.159 A 
ATOM     30  C   UNL     1       5.150  -0.274  26.873  0.00  0.00    +0.060 A 
BRANCH  29  31
ATOM     31  O   UNL     1       3.199  -1.349  27.769  0.00  0.00    -0.503 OA
ATOM     32  H   UNL     1       3.345  -1.933  27.004  0.00  0.00    +0.292 HD
ENDBRANCH  29  31
BRANCH  28  33
ATOM     33  O   UNL     1       3.688  -0.301  30.214  0.00  0.00    -0.503 OA
ATOM     34  H   UNL     1       2.992   0.363  30.039  0.00  0.00    +0.292 HD
ENDBRANCH  28  33
ENDBRANCH  24  25
BRANCH  20  35
ATOM     35  O   UNL     1       5.625   5.532  22.285  0.00  0.00    -0.507 OA
ATOM     36  H   UNL     1       5.434   6.145  23.015  0.00  0.00    +0.292 HD
ENDBRANCH  20  35
BRANCH  23  37
ATOM     37  O   UNL     1       9.056   2.321  21.572  0.00  0.00    -0.506 OA
ATOM     38  H   UNL     1       9.235   1.399  21.815  0.00  0.00    +0.292 HD
ENDBRANCH  23  37
ENDBRANCH  13  14
ENDBRANCH   3  13
BRANCH   1  39
ATOM     39  O   UNL     1       6.287  -4.779  25.160  0.00  0.00    -0.340 OA
BRANCH  39  45
ATOM     40  C   UNL     1       2.291  -5.959  24.545  0.00  0.00    +0.040 C 
ATOM     41  C   UNL     1       3.088  -4.819  23.905  0.00  0.00    +0.147 C 
ATOM     42  O   UNL     1       3.867  -5.450  22.893  0.00  0.00    -0.366 OA
ATOM     43  C   UNL     1       4.827  -4.652  22.201  0.00  0.00    +0.175 C 
ATOM     44  C   UNL     1       5.434  -3.526  23.062  0.00  0.00    +0.177 C 
ATOM     45  C   UNL     1       5.398  -3.776  24.588  0.00  0.00    +0.183 C 
ATOM     46  C   UNL     1       3.920  -4.060  24.977  0.00  0.00    +0.174 C 
BRANCH  46  47
ATOM     47  O   UNL     1       3.252  -2.802  25.226  0.00  0.00    -0.387 OA
ATOM     48  H   UNL     1       2.285  -2.938  25.216  0.00  0.00    +0.210 HD
ENDBRANCH  46  47
BRANCH  44  49
ATOM     49  O   UNL     1       6.666  -2.989  22.592  0.00  0.00    -0.386 OA
ATOM     50  H   UNL     1       6.749  -3.136  21.635  0.00  0.00    +0.210 HD
ENDBRANCH  44  49
BRANCH  43  51
ATOM     51  C   UNL     1       5.818  -5.651  21.589  0.00  0.00    +0.190 C 
BRANCH  51  52
ATOM     52  O   UNL     1       6.789  -6.084  22.533  0.00  0.00    -0.392 OA
ATOM     53  H   UNL     1       6.781  -7.062  22.514  0.00  0.00    +0.210 HD
ENDBRANCH  51  52
ENDBRANCH  43  51
ENDBRANCH  39  45
ENDBRANCH   1  39
TORSDOF 16
ENDMDL
MODEL 7
REMARK VINA RESULT:      -6.7      1.778      4.782
REMARK  Name = 
REMARK  17 active torsions:
REMARK  status: ('A' for Active; 'I' for Inactive)
REMARK    1  A    between atoms: C_1  and  C_2
REMARK    2  A    between atoms: C_4  and  O_53
REMARK    3  A    between atoms: C_6  and  O_16
REMARK    4  A    between atoms: C_8  and  O_15
REMARK    5  A    between atoms: C_10  and  C_13
REMARK    6  A    between atoms: C_13  and  O_14
REMARK    7  A    between atoms: O_16  and  C_17
REMARK    8  A    between atoms: C_19  and  O_52
REMARK    9  A    between atoms: C_21  and  O_51
REMARK   10  A    between atoms: C_23  and  O_50
REMARK   11  A    between atoms: C_25  and  O_28
REMARK   12  A    between atoms: O_28  and  C_29
REMARK   13  A    between atoms: C_30  and  C_42
REMARK   14  A    between atoms: C_34  and  O_41
REMARK   15  A    between atoms: C_36  and  O_40
REMARK   16  A    between atoms: C_44  and  O_49
REMARK   17  A    between atoms: C_45  and  O_48
REMARK                            x       y       z     vdW  Elec       q    Type
REMARK                         _______ _______ _______ _____ _____    ______ ____
ROOT
ATOM      1  C   UNL     1       8.042   1.759  22.341  0.00  0.00    +0.286 C 
ATOM      2  O   UNL     1       7.562   0.878  23.386  0.00  0.00    -0.307 OA
ATOM      3  C   UNL     1       8.390   0.639  24.530  0.00  0.00    +0.341 C 
ATOM      4  C   UNL     1       9.880   0.376  24.152  0.00  0.00    +0.214 C 
ATOM      5  C   UNL     1      10.402   1.355  23.101  0.00  0.00    +0.182 C 
ATOM      6  C   UNL     1       9.469   1.365  21.895  0.00  0.00    +0.201 C 
ENDROOT
BRANCH   6   7
ATOM      7  O   UNL     1       9.468   0.072  21.269  0.00  0.00    -0.384 OA
ATOM      8  H   UNL     1       9.082  -0.573  21.891  0.00  0.00    +0.210 HD
ENDBRANCH   6   7
BRANCH   5   9
ATOM      9  O   UNL     1      10.582   2.650  23.697  0.00  0.00    -0.386 OA
ATOM     10  H   UNL     1      10.416   3.342  23.027  0.00  0.00    +0.210 HD
ENDBRANCH   5   9
BRANCH   4  11
ATOM     11  O   UNL     1      10.749   0.423  25.300  0.00  0.00    -0.383 OA
ATOM     12  H   UNL     1      11.527   0.948  25.025  0.00  0.00    +0.210 HD
ENDBRANCH   4  11
BRANCH   3  13
ATOM     13  O   UNL     1       7.975  -0.604  25.178  0.00  0.00    -0.453 OA
BRANCH  13  14
ATOM     14  C   UNL     1       7.099  -1.525  24.638  0.00  0.00    +0.214 A 
ATOM     15  C   UNL     1       7.457  -2.547  23.603  0.00  0.00    +0.238 A 
ATOM     16  O   UNL     1       8.513  -2.494  22.990  0.00  0.00    -0.283 OA
ATOM     17  C   UNL     1       6.434  -3.609  23.337  0.00  0.00    +0.109 A 
ATOM     18  C   UNL     1       5.140  -3.393  23.806  0.00  0.00    +0.147 A 
ATOM     19  C   UNL     1       4.114  -4.329  23.640  0.00  0.00    +0.092 A 
ATOM     20  C   UNL     1       4.394  -5.515  22.990  0.00  0.00    +0.124 A 
ATOM     21  C   UNL     1       5.672  -5.760  22.496  0.00  0.00    +0.091 A 
ATOM     22  O   UNL     1       4.782  -2.261  24.466  0.00  0.00    -0.451 OA
ATOM     23  C   UNL     1       6.690  -4.808  22.667  0.00  0.00    +0.135 A 
ATOM     24  C   UNL     1       5.788  -1.488  24.978  0.00  0.00    +0.181 A 
BRANCH  24  25
ATOM     25  C   UNL     1       5.286  -0.628  26.038  0.00  0.00    +0.025 A 
ATOM     26  C   UNL     1       5.159  -1.185  27.319  0.00  0.00    +0.015 A 
ATOM     27  C   UNL     1       4.842  -0.371  28.395  0.00  0.00    +0.050 A 
ATOM     28  C   UNL     1       4.655   0.985  28.167  0.00  0.00    +0.158 A 
ATOM     29  C   UNL     1       4.673   1.513  26.875  0.00  0.00    +0.159 A 
ATOM     30  C   UNL     1       4.959   0.705  25.789  0.00  0.00    +0.060 A 
BRANCH  29  31
ATOM     31  O   UNL     1       4.467   2.857  26.735  0.00  0.00    -0.503 OA
ATOM     32  H   UNL     1       5.281   3.311  27.016  0.00  0.00    +0.292 HD
ENDBRANCH  29  31
BRANCH  28  33
ATOM     33  O   UNL     1       4.520   1.820  29.233  0.00  0.00    -0.503 OA
ATOM     34  H   UNL     1       3.572   1.753  29.462  0.00  0.00    +0.292 HD
ENDBRANCH  28  33
ENDBRANCH  24  25
BRANCH  20  35
ATOM     35  O   UNL     1       3.434  -6.470  22.828  0.00  0.00    -0.507 OA
ATOM     36  H   UNL     1       3.482  -6.821  21.923  0.00  0.00    +0.292 HD
ENDBRANCH  20  35
BRANCH  23  37
ATOM     37  O   UNL     1       7.939  -5.091  22.193  0.00  0.00    -0.506 OA
ATOM     38  H   UNL     1       8.548  -5.241  22.933  0.00  0.00    +0.292 HD
ENDBRANCH  23  37
ENDBRANCH  13  14
ENDBRANCH   3  13
BRANCH   1  39
ATOM     39  O   UNL     1       7.864   3.161  22.626  0.00  0.00    -0.340 OA
BRANCH  39  45
ATOM     40  C   UNL     1       5.339   6.490  22.102  0.00  0.00    +0.040 C 
ATOM     41  C   UNL     1       5.813   5.810  23.389  0.00  0.00    +0.147 C 
ATOM     42  O   UNL     1       7.128   6.316  23.599  0.00  0.00    -0.366 OA
ATOM     43  C   UNL     1       7.892   5.756  24.668  0.00  0.00    +0.175 C 
ATOM     44  C   UNL     1       7.575   4.272  24.945  0.00  0.00    +0.177 C 
ATOM     45  C   UNL     1       6.991   3.490  23.744  0.00  0.00    +0.183 C 
ATOM     46  C   UNL     1       5.734   4.263  23.256  0.00  0.00    +0.174 C 
BRANCH  46  47
ATOM     47  O   UNL     1       4.589   3.824  24.023  0.00  0.00    -0.387 OA
ATOM     48  H   UNL     1       3.768   4.117  23.582  0.00  0.00    +0.210 HD
ENDBRANCH  46  47
BRANCH  44  49
ATOM     49  O   UNL     1       8.568   3.558  25.673  0.00  0.00    -0.386 OA
ATOM     50  H   UNL     1       8.500   2.607  25.483  0.00  0.00    +0.210 HD
ENDBRANCH  44  49
BRANCH  43  51
ATOM     51  C   UNL     1       9.353   6.090  24.338  0.00  0.00    +0.190 C 
BRANCH  51  52
ATOM     52  O   UNL     1       9.875   5.248  23.319  0.00  0.00    -0.392 OA
ATOM     53  H   UNL     1       9.558   4.343  23.514  0.00  0.00    +0.210 HD
ENDBRANCH  51  52
ENDBRANCH  43  51
ENDBRANCH  39  45
ENDBRANCH   1  39
TORSDOF 16
ENDMDL
MODEL 8
REMARK VINA RESULT:      -6.7      1.918      5.385
REMARK  Name = 
REMARK  17 active torsions:
REMARK  status: ('A' for Active; 'I' for Inactive)
REMARK    1  A    between atoms: C_1  and  C_2
REMARK    2  A    between atoms: C_4  and  O_53
REMARK    3  A    between atoms: C_6  and  O_16
REMARK    4  A    between atoms: C_8  and  O_15
REMARK    5  A    between atoms: C_10  and  C_13
REMARK    6  A    between atoms: C_13  and  O_14
REMARK    7  A    between atoms: O_16  and  C_17
REMARK    8  A    between atoms: C_19  and  O_52
REMARK    9  A    between atoms: C_21  and  O_51
REMARK   10  A    between atoms: C_23  and  O_50
REMARK   11  A    between atoms: C_25  and  O_28
REMARK   12  A    between atoms: O_28  and  C_29
REMARK   13  A    between atoms: C_30  and  C_42
REMARK   14  A    between atoms: C_34  and  O_41
REMARK   15  A    between atoms: C_36  and  O_40
REMARK   16  A    between atoms: C_44  and  O_49
REMARK   17  A    between atoms: C_45  and  O_48
REMARK                            x       y       z     vdW  Elec       q    Type
REMARK                         _______ _______ _______ _____ _____    ______ ____
ROOT
ATOM      1  C   UNL     1       7.733   1.127  22.140  0.00  0.00    +0.286 C 
ATOM      2  O   UNL     1       7.472   0.212  23.231  0.00  0.00    -0.307 OA
ATOM      3  C   UNL     1       8.327   0.234  24.380  0.00  0.00    +0.341 C 
ATOM      4  C   UNL     1       9.839   0.313  24.004  0.00  0.00    +0.214 C 
ATOM      5  C   UNL     1      10.119   1.334  22.900  0.00  0.00    +0.182 C 
ATOM      6  C   UNL     1       9.215   1.061  21.703  0.00  0.00    +0.201 C 
ENDROOT
BRANCH   6   7
ATOM      7  O   UNL     1       9.523  -0.226  21.143  0.00  0.00    -0.384 OA
ATOM      8  H   UNL     1      10.137  -0.098  20.396  0.00  0.00    +0.210 HD
ENDBRANCH   6   7
BRANCH   5   9
ATOM      9  O   UNL     1       9.983   2.663  23.430  0.00  0.00    -0.386 OA
ATOM     10  H   UNL     1      10.870   3.052  23.562  0.00  0.00    +0.210 HD
ENDBRANCH   5   9
BRANCH   4  11
ATOM     11  O   UNL     1      10.667   0.624  25.141  0.00  0.00    -0.383 OA
ATOM     12  H   UNL     1      10.893  -0.236  25.550  0.00  0.00    +0.210 HD
ENDBRANCH   4  11
BRANCH   3  13
ATOM     13  O   UNL     1       8.216  -1.037  25.093  0.00  0.00    -0.453 OA
BRANCH  13  14
ATOM     14  C   UNL     1       7.134  -1.424  25.859  0.00  0.00    +0.214 A 
ATOM     15  C   UNL     1       6.662  -0.722  27.096  0.00  0.00    +0.238 A 
ATOM     16  O   UNL     1       7.344   0.128  27.648  0.00  0.00    -0.283 OA
ATOM     17  C   UNL     1       5.330  -1.149  27.633  0.00  0.00    +0.109 A 
ATOM     18  C   UNL     1       4.796  -2.347  27.164  0.00  0.00    +0.147 A 
ATOM     19  C   UNL     1       3.548  -2.826  27.574  0.00  0.00    +0.092 A 
ATOM     20  C   UNL     1       2.814  -2.083  28.478  0.00  0.00    +0.124 A 
ATOM     21  C   UNL     1       3.321  -0.887  28.978  0.00  0.00    +0.091 A 
ATOM     22  O   UNL     1       5.445  -3.133  26.266  0.00  0.00    -0.451 OA
ATOM     23  C   UNL     1       4.578  -0.421  28.560  0.00  0.00    +0.135 A 
ATOM     24  C   UNL     1       6.469  -2.565  25.557  0.00  0.00    +0.181 A 
BRANCH  24  25
ATOM     25  C   UNL     1       6.729  -3.315  24.340  0.00  0.00    +0.025 A 
ATOM     26  C   UNL     1       7.629  -4.389  24.420  0.00  0.00    +0.015 A 
ATOM     27  C   UNL     1       7.789  -5.234  23.334  0.00  0.00    +0.050 A 
ATOM     28  C   UNL     1       7.048  -4.987  22.187  0.00  0.00    +0.158 A 
ATOM     29  C   UNL     1       6.240  -3.855  22.075  0.00  0.00    +0.159 A 
ATOM     30  C   UNL     1       6.095  -2.986  23.142  0.00  0.00    +0.060 A 
BRANCH  29  31
ATOM     31  O   UNL     1       5.553  -3.678  20.907  0.00  0.00    -0.503 OA
ATOM     32  H   UNL     1       4.609  -3.828  21.094  0.00  0.00    +0.292 HD
ENDBRANCH  29  31
BRANCH  28  33
ATOM     33  O   UNL     1       7.061  -5.907  21.183  0.00  0.00    -0.503 OA
ATOM     34  H   UNL     1       6.146  -5.886  20.837  0.00  0.00    +0.292 HD
ENDBRANCH  28  33
ENDBRANCH  24  25
BRANCH  20  35
ATOM     35  O   UNL     1       1.580  -2.494  28.887  0.00  0.00    -0.507 OA
ATOM     36  H   UNL     1       1.621  -3.436  29.125  0.00  0.00    +0.292 HD
ENDBRANCH  20  35
BRANCH  23  37
ATOM     37  O   UNL     1       5.034   0.768  29.051  0.00  0.00    -0.506 OA
ATOM     38  H   UNL     1       4.880   0.811  30.009  0.00  0.00    +0.292 HD
ENDBRANCH  23  37
ENDBRANCH  13  14
ENDBRANCH   3  13
BRANCH   1  39
ATOM     39  O   UNL     1       7.226   2.459  22.355  0.00  0.00    -0.340 OA
BRANCH  39  45
ATOM     40  C   UNL     1       3.503   4.369  21.878  0.00  0.00    +0.040 C 
ATOM     41  C   UNL     1       4.381   4.225  23.125  0.00  0.00    +0.147 C 
ATOM     42  O   UNL     1       5.382   5.226  22.977  0.00  0.00    -0.366 OA
ATOM     43  C   UNL     1       6.442   5.251  23.934  0.00  0.00    +0.175 C 
ATOM     44  C   UNL     1       6.808   3.860  24.490  0.00  0.00    +0.177 C 
ATOM     45  C   UNL     1       6.449   2.670  23.569  0.00  0.00    +0.183 C 
ATOM     46  C   UNL     1       4.933   2.776  23.244  0.00  0.00    +0.174 C 
BRANCH  46  47
ATOM     47  O   UNL     1       4.184   2.116  24.290  0.00  0.00    -0.387 OA
ATOM     48  H   UNL     1       3.755   1.316  23.930  0.00  0.00    +0.210 HD
ENDBRANCH  46  47
BRANCH  44  49
ATOM     49  O   UNL     1       8.093   3.759  25.093  0.00  0.00    -0.386 OA
ATOM     50  H   UNL     1       8.285   4.562  25.604  0.00  0.00    +0.210 HD
ENDBRANCH  44  49
BRANCH  43  51
ATOM     51  C   UNL     1       7.577   6.035  23.260  0.00  0.00    +0.190 C 
BRANCH  51  52
ATOM     52  O   UNL     1       8.484   5.179  22.579  0.00  0.00    -0.392 OA
ATOM     53  H   UNL     1       8.025   4.324  22.458  0.00  0.00    +0.210 HD
ENDBRANCH  51  52
ENDBRANCH  43  51
ENDBRANCH  39  45
ENDBRANCH   1  39
TORSDOF 16
ENDMDL
MODEL 9
REMARK VINA RESULT:      -6.6      2.345      7.965
REMARK  Name = 
REMARK  17 active torsions:
REMARK  status: ('A' for Active; 'I' for Inactive)
REMARK    1  A    between atoms: C_1  and  C_2
REMARK    2  A    between atoms: C_4  and  O_53
REMARK    3  A    between atoms: C_6  and  O_16
REMARK    4  A    between atoms: C_8  and  O_15
REMARK    5  A    between atoms: C_10  and  C_13
REMARK    6  A    between atoms: C_13  and  O_14
REMARK    7  A    between atoms: O_16  and  C_17
REMARK    8  A    between atoms: C_19  and  O_52
REMARK    9  A    between atoms: C_21  and  O_51
REMARK   10  A    between atoms: C_23  and  O_50
REMARK   11  A    between atoms: C_25  and  O_28
REMARK   12  A    between atoms: O_28  and  C_29
REMARK   13  A    between atoms: C_30  and  C_42
REMARK   14  A    between atoms: C_34  and  O_41
REMARK   15  A    between atoms: C_36  and  O_40
REMARK   16  A    between atoms: C_44  and  O_49
REMARK   17  A    between atoms: C_45  and  O_48
REMARK                            x       y       z     vdW  Elec       q    Type
REMARK                         _______ _______ _______ _____ _____    ______ ____
ROOT
ATOM      1  C   UNL     1       4.794  -1.122  25.979  0.00  0.00    +0.286 C 
ATOM      2  O   UNL     1       5.467  -0.441  24.893  0.00  0.00    -0.307 OA
ATOM      3  C   UNL     1       6.488   0.517  25.197  0.00  0.00    +0.341 C 
ATOM      4  C   UNL     1       6.087   1.476  26.359  0.00  0.00    +0.214 C 
ATOM      5  C   UNL     1       5.442   0.741  27.535  0.00  0.00    +0.182 C 
ATOM      6  C   UNL     1       4.283  -0.115  27.034  0.00  0.00    +0.201 C 
ENDROOT
BRANCH   6   7
ATOM      7  O   UNL     1       3.259   0.727  26.481  0.00  0.00    -0.384 OA
ATOM      8  H   UNL     1       3.374   0.759  25.513  0.00  0.00    +0.210 HD
ENDBRANCH   6   7
BRANCH   5   9
ATOM      9  O   UNL     1       6.444  -0.008  28.241  0.00  0.00    -0.386 OA
ATOM     10  H   UNL     1       6.216  -0.958  28.218  0.00  0.00    +0.210 HD
ENDBRANCH   5   9
BRANCH   4  11
ATOM     11  O   UNL     1       7.209   2.236  26.850  0.00  0.00    -0.383 OA
ATOM     12  H   UNL     1       7.166   2.177  27.825  0.00  0.00    +0.210 HD
ENDBRANCH   4  11
BRANCH   3  13
ATOM     13  O   UNL     1       6.668   1.414  24.057  0.00  0.00    -0.453 OA
BRANCH  13  14
ATOM     14  C   UNL     1       7.807   2.151  23.801  0.00  0.00    +0.214 A 
ATOM     15  C   UNL     1       7.903   3.643  23.890  0.00  0.00    +0.238 A 
ATOM     16  O   UNL     1       6.906   4.344  23.983  0.00  0.00    -0.283 OA
ATOM     17  C   UNL     1       9.283   4.225  23.821  0.00  0.00    +0.109 A 
ATOM     18  C   UNL     1      10.309   3.403  23.362  0.00  0.00    +0.147 A 
ATOM     19  C   UNL     1      11.638   3.831  23.284  0.00  0.00    +0.092 A 
ATOM     20  C   UNL     1      11.946   5.118  23.680  0.00  0.00    +0.124 A 
ATOM     21  C   UNL     1      10.945   5.973  24.132  0.00  0.00    +0.091 A 
ATOM     22  O   UNL     1      10.096   2.121  22.965  0.00  0.00    -0.451 OA
ATOM     23  C   UNL     1       9.614   5.529  24.200  0.00  0.00    +0.135 A 
ATOM     24  C   UNL     1       8.924   1.530  23.352  0.00  0.00    +0.181 A 
BRANCH  24  25
ATOM     25  C   UNL     1       9.039   0.082  23.301  0.00  0.00    +0.025 A 
ATOM     26  C   UNL     1       9.987  -0.524  24.138  0.00  0.00    +0.015 A 
ATOM     27  C   UNL     1      10.025  -1.905  24.248  0.00  0.00    +0.050 A 
ATOM     28  C   UNL     1       9.115  -2.653  23.516  0.00  0.00    +0.158 A 
ATOM     29  C   UNL     1       8.250  -2.051  22.601  0.00  0.00    +0.159 A 
ATOM     30  C   UNL     1       8.222  -0.675  22.459  0.00  0.00    +0.060 A 
BRANCH  29  31
ATOM     31  O   UNL     1       7.393  -2.861  21.909  0.00  0.00    -0.503 OA
ATOM     32  H   UNL     1       7.417  -3.740  22.326  0.00  0.00    +0.292 HD
ENDBRANCH  29  31
BRANCH  28  33
ATOM     33  O   UNL     1       9.023  -3.992  23.748  0.00  0.00    -0.503 OA
ATOM     34  H   UNL     1       9.954  -4.292  23.746  0.00  0.00    +0.292 HD
ENDBRANCH  28  33
ENDBRANCH  24  25
BRANCH  20  35
ATOM     35  O   UNL     1      13.231   5.573  23.649  0.00  0.00    -0.507 OA
ATOM     36  H   UNL     1      13.746   5.035  23.025  0.00  0.00    +0.292 HD
ENDBRANCH  20  35
BRANCH  23  37
ATOM     37  O   UNL     1       8.661   6.384  24.672  0.00  0.00    -0.506 OA
ATOM     38  H   UNL     1       9.062   7.020  25.285  0.00  0.00    +0.292 HD
ENDBRANCH  23  37
ENDBRANCH  13  14
ENDBRANCH   3  13
BRANCH   1  39
ATOM     39  O   UNL     1       5.528  -2.240  26.517  0.00  0.00    -0.340 OA
BRANCH  39  45
ATOM     40  C   UNL     1       4.899  -4.659  29.906  0.00  0.00    +0.040 C 
ATOM     41  C   UNL     1       5.040  -5.050  28.433  0.00  0.00    +0.147 C 
ATOM     42  O   UNL     1       6.444  -5.034  28.190  0.00  0.00    -0.366 OA
ATOM     43  C   UNL     1       6.887  -5.231  26.847  0.00  0.00    +0.175 C 
ATOM     44  C   UNL     1       5.907  -4.693  25.785  0.00  0.00    +0.177 C 
ATOM     45  C   UNL     1       4.969  -3.563  26.271  0.00  0.00    +0.183 C 
ATOM     46  C   UNL     1       4.220  -4.089  27.527  0.00  0.00    +0.174 C 
BRANCH  46  47
ATOM     47  O   UNL     1       3.039  -4.806  27.100  0.00  0.00    -0.387 OA
ATOM     48  H   UNL     1       2.495  -4.230  26.529  0.00  0.00    +0.210 HD
ENDBRANCH  46  47
BRANCH  44  49
ATOM     49  O   UNL     1       6.463  -4.470  24.494  0.00  0.00    -0.386 OA
ATOM     50  H   UNL     1       6.049  -3.692  24.084  0.00  0.00    +0.210 HD
ENDBRANCH  44  49
BRANCH  43  51
ATOM     51  C   UNL     1       8.314  -4.666  26.806  0.00  0.00    +0.190 C 
BRANCH  51  52
ATOM     52  O   UNL     1       9.231  -5.577  26.215  0.00  0.00    -0.392 OA
ATOM     53  H   UNL     1      10.068  -5.088  26.085  0.00  0.00    +0.210 HD
ENDBRANCH  51  52
ENDBRANCH  43  51
ENDBRANCH  39  45
ENDBRANCH   1  39
TORSDOF 16
ENDMDL
