MODEL 1
REMARK VINA RESULT:      -7.5      0.000      0.000
REMARK  Name = 
REMARK  12 active torsions:
REMARK  status: ('A' for Active; 'I' for Inactive)
REMARK    1  A    between atoms: C_3  and  O_39
REMARK    2  A    between atoms: C_4  and  O_38
REMARK    3  A    between atoms: C_6  and  C_7
REMARK    4  A    between atoms: C_8  and  O_20
REMARK    5  A    between atoms: C_12  and  O_19
REMARK    6  A    between atoms: C_14  and  O_18
REMARK    7  A    between atoms: O_20  and  C_21
REMARK    8  A    between atoms: C_23  and  O_37
REMARK    9  A    between atoms: C_25  and  O_36
REMARK   10  A    between atoms: C_27  and  O_35
REMARK   11  A    between atoms: C_29  and  C_32
REMARK   12  A    between atoms: C_32  and  O_34
REMARK                            x       y       z     vdW  Elec       q    Type
REMARK                         _______ _______ _______ _____ _____    ______ ____
ROOT
ATOM      1  C   UNL     1       5.712  -2.100  24.961  0.00  0.00    +0.181 A 
ATOM      2  O   UNL     1       5.051  -3.172  25.547  0.00  0.00    -0.451 OA
ATOM      3  C   UNL     1       4.943  -4.337  24.821  0.00  0.00    +0.147 A 
ATOM      4  C   UNL     1       5.271  -4.406  23.470  0.00  0.00    +0.109 A 
ATOM      5  C   UNL     1       5.147  -5.609  22.764  0.00  0.00    +0.135 A 
ATOM      6  C   UNL     1       4.689  -6.753  23.406  0.00  0.00    +0.091 A 
ATOM      7  C   UNL     1       4.355  -6.678  24.755  0.00  0.00    +0.124 A 
ATOM      8  C   UNL     1       5.757  -3.198  22.807  0.00  0.00    +0.238 A 
ATOM      9  O   UNL     1       5.829  -3.165  21.583  0.00  0.00    -0.283 OA
ATOM     10  C   UNL     1       4.482  -5.483  25.468  0.00  0.00    +0.092 A 
ATOM     11  C   UNL     1       6.138  -2.057  23.679  0.00  0.00    +0.214 A 
ENDROOT
BRANCH   1  13
ATOM     12  C   UNL     1       5.327   0.245  25.791  0.00  0.00    +0.015 A 
ATOM     13  C   UNL     1       6.013  -0.981  25.883  0.00  0.00    +0.025 A 
ATOM     14  C   UNL     1       7.111  -1.078  26.746  0.00  0.00    +0.060 A 
ATOM     15  C   UNL     1       7.582   0.063  27.383  0.00  0.00    +0.159 A 
ATOM     16  C   UNL     1       6.967   1.298  27.200  0.00  0.00    +0.158 A 
ATOM     17  C   UNL     1       5.812   1.392  26.439  0.00  0.00    +0.050 A 
BRANCH  15  18
ATOM     18  O   UNL     1       8.709  -0.026  28.151  0.00  0.00    -0.503 OA
ATOM     19  H   UNL     1       9.446   0.110  27.521  0.00  0.00    +0.292 HD
ENDBRANCH  15  18
BRANCH  16  20
ATOM     20  O   UNL     1       7.563   2.395  27.755  0.00  0.00    -0.503 OA
ATOM     21  H   UNL     1       8.221   2.738  27.124  0.00  0.00    +0.292 HD
ENDBRANCH  16  20
ENDBRANCH   1  13
BRANCH   5  22
ATOM     22  O   UNL     1       5.468  -5.738  21.440  0.00  0.00    -0.506 OA
ATOM     23  H   UNL     1       5.189  -6.630  21.138  0.00  0.00    +0.292 HD
ENDBRANCH   5  22
BRANCH   7  24
ATOM     24  O   UNL     1       3.893  -7.776  25.418  0.00  0.00    -0.507 OA
ATOM     25  H   UNL     1       3.367  -7.487  26.185  0.00  0.00    +0.292 HD
ENDBRANCH   7  24
BRANCH  11  26
ATOM     26  O   UNL     1       6.914  -1.006  23.219  0.00  0.00    -0.453 OA
BRANCH  26  27
ATOM     27  C   UNL     1       8.348  -1.082  23.245  0.00  0.00    +0.340 C 
ATOM     28  O   UNL     1       8.736   0.131  23.912  0.00  0.00    -0.322 OA
ATOM     29  C   UNL     1       9.926   0.837  23.470  0.00  0.00    +0.261 C 
ATOM     30  C   UNL     1      10.038   1.017  21.940  0.00  0.00    +0.185 C 
ATOM     31  C   UNL     1       8.932   0.252  21.221  0.00  0.00    +0.180 C 
ATOM     32  C   UNL     1       8.870  -1.168  21.801  0.00  0.00    +0.214 C 
BRANCH  29  33
ATOM     33  C   UNL     1       9.837   2.168  24.227  0.00  0.00    +0.337 C 
ATOM     34  O   UNL     1       8.919   2.530  24.947  0.00  0.00    -0.248 OA
BRANCH  33  35
ATOM     35  O   UNL     1      10.910   2.973  23.976  0.00  0.00    -0.479 OA
ATOM     36  H   UNL     1      11.726   2.427  24.059  0.00  0.00    +0.295 HD
ENDBRANCH  33  35
ENDBRANCH  29  33
BRANCH  30  37
ATOM     37  O   UNL     1      10.030   2.367  21.479  0.00  0.00    -0.386 OA
ATOM     38  H   UNL     1       9.174   2.760  21.733  0.00  0.00    +0.210 HD
ENDBRANCH  30  37
BRANCH  31  39
ATOM     39  O   UNL     1       7.696   0.987  21.356  0.00  0.00    -0.386 OA
ATOM     40  H   UNL     1       7.492   1.140  22.302  0.00  0.00    +0.210 HD
ENDBRANCH  31  39
BRANCH  32  41
ATOM     41  O   UNL     1      10.181  -1.750  21.772  0.00  0.00    -0.383 OA
ATOM     42  H   UNL     1      10.716  -1.256  21.121  0.00  0.00    +0.210 HD
ENDBRANCH  32  41
ENDBRANCH  26  27
ENDBRANCH  11  26
TORSDOF 12
ENDMDL
MODEL 2
REMARK VINA RESULT:      -7.5      2.111      7.038
REMARK  Name = 
REMARK  12 active torsions:
REMARK  status: ('A' for Active; 'I' for Inactive)
REMARK    1  A    between atoms: C_3  and  O_39
REMARK    2  A    between atoms: C_4  and  O_38
REMARK    3  A    between atoms: C_6  and  C_7
REMARK    4  A    between atoms: C_8  and  O_20
REMARK    5  A    between atoms: C_12  and  O_19
REMARK    6  A    between atoms: C_14  and  O_18
REMARK    7  A    between atoms: O_20  and  C_21
REMARK    8  A    between atoms: C_23  and  O_37
REMARK    9  A    between atoms: C_25  and  O_36
REMARK   10  A    between atoms: C_27  and  O_35
REMARK   11  A    between atoms: C_29  and  C_32
REMARK   12  A    between atoms: C_32  and  O_34
REMARK                            x       y       z     vdW  Elec       q    Type
REMARK                         _______ _______ _______ _____ _____    ______ ____
ROOT
ATOM      1  C   UNL     1       8.504  -1.799  24.752  0.00  0.00    +0.181 A 
ATOM      2  O   UNL     1       8.816  -0.560  25.297  0.00  0.00    -0.451 OA
ATOM      3  C   UNL     1       8.856   0.524  24.450  0.00  0.00    +0.147 A 
ATOM      4  C   UNL     1       8.815   0.391  23.065  0.00  0.00    +0.109 A 
ATOM      5  C   UNL     1       8.860   1.518  22.236  0.00  0.00    +0.135 A 
ATOM      6  C   UNL     1       8.950   2.789  22.788  0.00  0.00    +0.091 A 
ATOM      7  C   UNL     1       8.999   2.919  24.172  0.00  0.00    +0.124 A 
ATOM      8  C   UNL     1       8.714  -0.952  22.497  0.00  0.00    +0.238 A 
ATOM      9  O   UNL     1       8.909  -1.118  21.298  0.00  0.00    -0.283 OA
ATOM     10  C   UNL     1       8.949   1.799  25.008  0.00  0.00    +0.092 A 
ATOM     11  C   UNL     1       8.375  -2.057  23.431  0.00  0.00    +0.214 A 
ENDROOT
BRANCH   1  13
ATOM     12  C   UNL     1       9.046  -4.004  25.840  0.00  0.00    +0.015 A 
ATOM     13  C   UNL     1       8.229  -2.860  25.746  0.00  0.00    +0.025 A 
ATOM     14  C   UNL     1       7.043  -2.815  26.488  0.00  0.00    +0.060 A 
ATOM     15  C   UNL     1       6.631  -3.943  27.188  0.00  0.00    +0.159 A 
ATOM     16  C   UNL     1       7.388  -5.111  27.185  0.00  0.00    +0.158 A 
ATOM     17  C   UNL     1       8.620  -5.138  26.549  0.00  0.00    +0.050 A 
BRANCH  15  18
ATOM     18  O   UNL     1       5.427  -3.918  27.833  0.00  0.00    -0.503 OA
ATOM     19  H   UNL     1       4.825  -3.458  27.213  0.00  0.00    +0.292 HD
ENDBRANCH  15  18
BRANCH  16  20
ATOM     20  O   UNL     1       6.857  -6.217  27.786  0.00  0.00    -0.503 OA
ATOM     21  H   UNL     1       7.522  -6.581  28.398  0.00  0.00    +0.292 HD
ENDBRANCH  16  20
ENDBRANCH   1  13
BRANCH   5  22
ATOM     22  O   UNL     1       8.808   1.446  20.870  0.00  0.00    -0.506 OA
ATOM     23  H   UNL     1       8.789   2.360  20.511  0.00  0.00    +0.292 HD
ENDBRANCH   5  22
BRANCH   7  24
ATOM     24  O   UNL     1       9.098   4.149  24.752  0.00  0.00    -0.507 OA
ATOM     25  H   UNL     1       8.582   4.789  24.229  0.00  0.00    +0.292 HD
ENDBRANCH   7  24
BRANCH  11  26
ATOM     26  O   UNL     1       7.923  -3.286  22.984  0.00  0.00    -0.453 OA
BRANCH  26  27
ATOM     27  C   UNL     1       6.677  -3.403  22.281  0.00  0.00    +0.340 C 
ATOM     28  O   UNL     1       5.709  -3.538  23.335  0.00  0.00    -0.322 OA
ATOM     29  C   UNL     1       4.578  -4.431  23.153  0.00  0.00    +0.261 C 
ATOM     30  C   UNL     1       4.941  -5.822  22.589  0.00  0.00    +0.185 C 
ATOM     31  C   UNL     1       6.411  -5.880  22.190  0.00  0.00    +0.180 C 
ATOM     32  C   UNL     1       6.736  -4.632  21.357  0.00  0.00    +0.214 C 
BRANCH  29  33
ATOM     33  C   UNL     1       3.960  -4.494  24.556  0.00  0.00    +0.337 C 
ATOM     34  O   UNL     1       4.315  -5.223  25.469  0.00  0.00    -0.248 OA
BRANCH  33  35
ATOM     35  O   UNL     1       2.895  -3.651  24.685  0.00  0.00    -0.479 OA
ATOM     36  H   UNL     1       2.979  -2.947  24.000  0.00  0.00    +0.295 HD
ENDBRANCH  33  35
ENDBRANCH  29  33
BRANCH  30  37
ATOM     37  O   UNL     1       4.659  -6.926  23.448  0.00  0.00    -0.386 OA
ATOM     38  H   UNL     1       3.703  -6.909  23.646  0.00  0.00    +0.210 HD
ENDBRANCH  30  37
BRANCH  31  39
ATOM     39  O   UNL     1       7.212  -6.005  23.385  0.00  0.00    -0.386 OA
ATOM     40  H   UNL     1       8.144  -6.198  23.152  0.00  0.00    +0.210 HD
ENDBRANCH  31  39
BRANCH  32  41
ATOM     41  O   UNL     1       5.783  -4.510  20.292  0.00  0.00    -0.383 OA
ATOM     42  H   UNL     1       5.060  -5.145  20.460  0.00  0.00    +0.210 HD
ENDBRANCH  32  41
ENDBRANCH  26  27
ENDBRANCH  11  26
TORSDOF 12
ENDMDL
MODEL 3
REMARK VINA RESULT:      -7.3      2.042      4.488
REMARK  Name = 
REMARK  12 active torsions:
REMARK  status: ('A' for Active; 'I' for Inactive)
REMARK    1  A    between atoms: C_3  and  O_39
REMARK    2  A    between atoms: C_4  and  O_38
REMARK    3  A    between atoms: C_6  and  C_7
REMARK    4  A    between atoms: C_8  and  O_20
REMARK    5  A    between atoms: C_12  and  O_19
REMARK    6  A    between atoms: C_14  and  O_18
REMARK    7  A    between atoms: O_20  and  C_21
REMARK    8  A    between atoms: C_23  and  O_37
REMARK    9  A    between atoms: C_25  and  O_36
REMARK   10  A    between atoms: C_27  and  O_35
REMARK   11  A    between atoms: C_29  and  C_32
REMARK   12  A    between atoms: C_32  and  O_34
REMARK                            x       y       z     vdW  Elec       q    Type
REMARK                         _______ _______ _______ _____ _____    ______ ____
ROOT
ATOM      1  C   UNL     1       7.682  -1.364  23.896  0.00  0.00    +0.181 A 
ATOM      2  O   UNL     1       7.842  -2.601  23.285  0.00  0.00    -0.451 OA
ATOM      3  C   UNL     1       6.743  -3.426  23.205  0.00  0.00    +0.147 A 
ATOM      4  C   UNL     1       5.561  -3.163  23.892  0.00  0.00    +0.109 A 
ATOM      5  C   UNL     1       4.465  -4.027  23.786  0.00  0.00    +0.135 A 
ATOM      6  C   UNL     1       4.544  -5.164  22.993  0.00  0.00    +0.091 A 
ATOM      7  C   UNL     1       5.728  -5.428  22.313  0.00  0.00    +0.124 A 
ATOM      8  C   UNL     1       5.488  -1.961  24.719  0.00  0.00    +0.238 A 
ATOM      9  O   UNL     1       4.562  -1.825  25.511  0.00  0.00    -0.283 OA
ATOM     10  C   UNL     1       6.826  -4.568  22.408  0.00  0.00    +0.092 A 
ATOM     11  C   UNL     1       6.570  -0.956  24.546  0.00  0.00    +0.214 A 
ENDROOT
BRANCH   1  13
ATOM     12  C   UNL     1       9.716  -0.170  24.777  0.00  0.00    +0.015 A 
ATOM     13  C   UNL     1       8.823  -0.437  23.721  0.00  0.00    +0.025 A 
ATOM     14  C   UNL     1       8.919   0.320  22.548  0.00  0.00    +0.060 A 
ATOM     15  C   UNL     1       9.793   1.399  22.500  0.00  0.00    +0.159 A 
ATOM     16  C   UNL     1      10.594   1.728  23.589  0.00  0.00    +0.158 A 
ATOM     17  C   UNL     1      10.595   0.923  24.719  0.00  0.00    +0.050 A 
BRANCH  15  18
ATOM     18  O   UNL     1       9.813   2.186  21.383  0.00  0.00    -0.503 OA
ATOM     19  H   UNL     1      10.638   2.706  21.463  0.00  0.00    +0.292 HD
ENDBRANCH  15  18
BRANCH  16  20
ATOM     20  O   UNL     1      11.331   2.876  23.516  0.00  0.00    -0.503 OA
ATOM     21  H   UNL     1      10.893   3.482  22.892  0.00  0.00    +0.292 HD
ENDBRANCH  16  20
ENDBRANCH   1  13
BRANCH   5  22
ATOM     22  O   UNL     1       3.275  -3.810  24.428  0.00  0.00    -0.506 OA
ATOM     23  H   UNL     1       3.261  -2.884  24.753  0.00  0.00    +0.292 HD
ENDBRANCH   5  22
BRANCH   7  24
ATOM     24  O   UNL     1       5.848  -6.539  21.532  0.00  0.00    -0.507 OA
ATOM     25  H   UNL     1       5.948  -6.265  20.602  0.00  0.00    +0.292 HD
ENDBRANCH   7  24
BRANCH  11  26
ATOM     26  O   UNL     1       6.445   0.345  25.002  0.00  0.00    -0.453 OA
BRANCH  26  27
ATOM     27  C   UNL     1       5.666   1.309  24.277  0.00  0.00    +0.340 C 
ATOM     28  O   UNL     1       6.654   2.213  23.753  0.00  0.00    -0.322 OA
ATOM     29  C   UNL     1       6.358   3.634  23.695  0.00  0.00    +0.261 C 
ATOM     30  C   UNL     1       5.741   4.217  24.986  0.00  0.00    +0.185 C 
ATOM     31  C   UNL     1       5.425   3.109  25.985  0.00  0.00    +0.180 C 
ATOM     32  C   UNL     1       4.682   1.988  25.245  0.00  0.00    +0.214 C 
BRANCH  29  33
ATOM     33  C   UNL     1       7.718   4.254  23.346  0.00  0.00    +0.337 C 
ATOM     34  O   UNL     1       8.631   4.475  24.125  0.00  0.00    -0.248 OA
BRANCH  33  35
ATOM     35  O   UNL     1       7.802   4.595  22.027  0.00  0.00    -0.479 OA
ATOM     36  H   UNL     1       7.780   3.764  21.496  0.00  0.00    +0.295 HD
ENDBRANCH  33  35
ENDBRANCH  29  33
BRANCH  30  37
ATOM     37  O   UNL     1       6.521   5.213  25.644  0.00  0.00    -0.386 OA
ATOM     38  H   UNL     1       7.417   4.848  25.773  0.00  0.00    +0.210 HD
ENDBRANCH  30  37
BRANCH  31  39
ATOM     39  O   UNL     1       6.656   2.679  26.605  0.00  0.00    -0.386 OA
ATOM     40  H   UNL     1       6.652   1.706  26.731  0.00  0.00    +0.210 HD
ENDBRANCH  31  39
BRANCH  32  41
ATOM     41  O   UNL     1       3.572   2.546  24.530  0.00  0.00    -0.383 OA
ATOM     42  H   UNL     1       2.750   2.224  24.948  0.00  0.00    +0.210 HD
ENDBRANCH  32  41
ENDBRANCH  26  27
ENDBRANCH  11  26
TORSDOF 12
ENDMDL
MODEL 4
REMARK VINA RESULT:      -7.2      2.258      7.659
REMARK  Name = 
REMARK  12 active torsions:
REMARK  status: ('A' for Active; 'I' for Inactive)
REMARK    1  A    between atoms: C_3  and  O_39
REMARK    2  A    between atoms: C_4  and  O_38
REMARK    3  A    between atoms: C_6  and  C_7
REMARK    4  A    between atoms: C_8  and  O_20
REMARK    5  A    between atoms: C_12  and  O_19
REMARK    6  A    between atoms: C_14  and  O_18
REMARK    7  A    between atoms: O_20  and  C_21
REMARK    8  A    between atoms: C_23  and  O_37
REMARK    9  A    between atoms: C_25  and  O_36
REMARK   10  A    between atoms: C_27  and  O_35
REMARK   11  A    between atoms: C_29  and  C_32
REMARK   12  A    between atoms: C_32  and  O_34
REMARK                            x       y       z     vdW  Elec       q    Type
REMARK                         _______ _______ _______ _____ _____    ______ ____
ROOT
ATOM      1  C   UNL     1       7.056  -1.331  23.168  0.00  0.00    +0.181 A 
ATOM      2  O   UNL     1       7.983  -0.529  22.514  0.00  0.00    -0.451 OA
ATOM      3  C   UNL     1       8.343   0.657  23.113  0.00  0.00    +0.147 A 
ATOM      4  C   UNL     1       7.664   1.175  24.212  0.00  0.00    +0.109 A 
ATOM      5  C   UNL     1       8.059   2.386  24.792  0.00  0.00    +0.135 A 
ATOM      6  C   UNL     1       9.137   3.091  24.273  0.00  0.00    +0.091 A 
ATOM      7  C   UNL     1       9.809   2.576  23.170  0.00  0.00    +0.124 A 
ATOM      8  C   UNL     1       6.535   0.420  24.753  0.00  0.00    +0.238 A 
ATOM      9  O   UNL     1       5.781   0.953  25.559  0.00  0.00    -0.283 OA
ATOM     10  C   UNL     1       9.425   1.364  22.588  0.00  0.00    +0.092 A 
ATOM     11  C   UNL     1       6.368  -0.978  24.277  0.00  0.00    +0.214 A 
ENDROOT
BRANCH   1  13
ATOM     12  C   UNL     1       5.760  -3.064  21.882  0.00  0.00    +0.015 A 
ATOM     13  C   UNL     1       6.910  -2.692  22.605  0.00  0.00    +0.025 A 
ATOM     14  C   UNL     1       7.846  -3.678  22.939  0.00  0.00    +0.060 A 
ATOM     15  C   UNL     1       7.558  -5.012  22.675  0.00  0.00    +0.159 A 
ATOM     16  C   UNL     1       6.366  -5.385  22.060  0.00  0.00    +0.158 A 
ATOM     17  C   UNL     1       5.479  -4.414  21.620  0.00  0.00    +0.050 A 
BRANCH  15  18
ATOM     18  O   UNL     1       8.437  -5.972  23.088  0.00  0.00    -0.503 OA
ATOM     19  H   UNL     1       8.090  -6.267  23.954  0.00  0.00    +0.292 HD
ENDBRANCH  15  18
BRANCH  16  20
ATOM     20  O   UNL     1       6.096  -6.719  21.950  0.00  0.00    -0.503 OA
ATOM     21  H   UNL     1       6.528  -7.181  22.691  0.00  0.00    +0.292 HD
ENDBRANCH  16  20
ENDBRANCH   1  13
BRANCH   5  22
ATOM     22  O   UNL     1       7.437   2.933  25.882  0.00  0.00    -0.506 OA
ATOM     23  H   UNL     1       8.117   3.365  26.443  0.00  0.00    +0.292 HD
ENDBRANCH   5  22
BRANCH   7  24
ATOM     24  O   UNL     1      10.866   3.244  22.625  0.00  0.00    -0.507 OA
ATOM     25  H   UNL     1      11.150   2.784  21.815  0.00  0.00    +0.292 HD
ENDBRANCH   7  24
BRANCH  11  26
ATOM     26  O   UNL     1       5.570  -1.892  24.943  0.00  0.00    -0.453 OA
BRANCH  26  27
ATOM     27  C   UNL     1       5.819  -2.224  26.318  0.00  0.00    +0.340 C 
ATOM     28  O   UNL     1       6.949  -3.110  26.250  0.00  0.00    -0.322 OA
ATOM     29  C   UNL     1       7.022  -4.241  27.157  0.00  0.00    +0.261 C 
ATOM     30  C   UNL     1       5.717  -5.059  27.274  0.00  0.00    +0.185 C 
ATOM     31  C   UNL     1       4.580  -4.378  26.519  0.00  0.00    +0.180 C 
ATOM     32  C   UNL     1       4.565  -2.893  26.906  0.00  0.00    +0.214 C 
BRANCH  29  33
ATOM     33  C   UNL     1       8.194  -5.057  26.596  0.00  0.00    +0.337 C 
ATOM     34  O   UNL     1       8.119  -5.962  25.781  0.00  0.00    -0.248 OA
BRANCH  33  35
ATOM     35  O   UNL     1       9.386  -4.691  27.153  0.00  0.00    -0.479 OA
ATOM     36  H   UNL     1      10.009  -5.450  27.065  0.00  0.00    +0.295 HD
ENDBRANCH  33  35
ENDBRANCH  29  33
BRANCH  30  37
ATOM     37  O   UNL     1       5.802  -6.415  26.840  0.00  0.00    -0.386 OA
ATOM     38  H   UNL     1       5.699  -6.983  27.628  0.00  0.00    +0.210 HD
ENDBRANCH  30  37
BRANCH  31  39
ATOM     39  O   UNL     1       4.759  -4.607  25.105  0.00  0.00    -0.386 OA
ATOM     40  H   UNL     1       4.512  -5.528  24.875  0.00  0.00    +0.210 HD
ENDBRANCH  31  39
BRANCH  32  41
ATOM     41  O   UNL     1       4.552  -2.774  28.335  0.00  0.00    -0.383 OA
ATOM     42  H   UNL     1       3.717  -2.338  28.595  0.00  0.00    +0.210 HD
ENDBRANCH  32  41
ENDBRANCH  26  27
ENDBRANCH  11  26
TORSDOF 12
ENDMDL
MODEL 5
REMARK VINA RESULT:      -7.0      1.903      4.825
REMARK  Name = 
REMARK  12 active torsions:
REMARK  status: ('A' for Active; 'I' for Inactive)
REMARK    1  A    between atoms: C_3  and  O_39
REMARK    2  A    between atoms: C_4  and  O_38
REMARK    3  A    between atoms: C_6  and  C_7
REMARK    4  A    between atoms: C_8  and  O_20
REMARK    5  A    between atoms: C_12  and  O_19
REMARK    6  A    between atoms: C_14  and  O_18
REMARK    7  A    between atoms: O_20  and  C_21
REMARK    8  A    between atoms: C_23  and  O_37
REMARK    9  A    between atoms: C_25  and  O_36
REMARK   10  A    between atoms: C_27  and  O_35
REMARK   11  A    between atoms: C_29  and  C_32
REMARK   12  A    between atoms: C_32  and  O_34
REMARK                            x       y       z     vdW  Elec       q    Type
REMARK                         _______ _______ _______ _____ _____    ______ ____
ROOT
ATOM      1  C   UNL     1       8.348  -1.584  23.989  0.00  0.00    +0.181 A 
ATOM      2  O   UNL     1       8.322  -2.638  23.085  0.00  0.00    -0.451 OA
ATOM      3  C   UNL     1       7.414  -3.650  23.301  0.00  0.00    +0.147 A 
ATOM      4  C   UNL     1       6.691  -3.763  24.485  0.00  0.00    +0.109 A 
ATOM      5  C   UNL     1       5.777  -4.807  24.668  0.00  0.00    +0.135 A 
ATOM      6  C   UNL     1       5.582  -5.750  23.667  0.00  0.00    +0.091 A 
ATOM      7  C   UNL     1       6.313  -5.640  22.488  0.00  0.00    +0.124 A 
ATOM      8  C   UNL     1       6.900  -2.761  25.528  0.00  0.00    +0.238 A 
ATOM      9  O   UNL     1       6.462  -2.960  26.656  0.00  0.00    -0.283 OA
ATOM     10  C   UNL     1       7.223  -4.596  22.294  0.00  0.00    +0.092 A 
ATOM     11  C   UNL     1       7.651  -1.536  25.147  0.00  0.00    +0.214 A 
ENDROOT
BRANCH   1  13
ATOM     12  C   UNL     1      10.337  -0.061  24.242  0.00  0.00    +0.015 A 
ATOM     13  C   UNL     1       9.158  -0.421  23.561  0.00  0.00    +0.025 A 
ATOM     14  C   UNL     1       8.658   0.437  22.575  0.00  0.00    +0.060 A 
ATOM     15  C   UNL     1       9.252   1.680  22.385  0.00  0.00    +0.159 A 
ATOM     16  C   UNL     1      10.351   2.077  23.141  0.00  0.00    +0.158 A 
ATOM     17  C   UNL     1      10.929   1.196  24.043  0.00  0.00    +0.050 A 
BRANCH  15  18
ATOM     18  O   UNL     1       8.700   2.546  21.484  0.00  0.00    -0.503 OA
ATOM     19  H   UNL     1       9.078   2.277  20.622  0.00  0.00    +0.292 HD
ENDBRANCH  15  18
BRANCH  16  20
ATOM     20  O   UNL     1      10.799   3.359  22.990  0.00  0.00    -0.503 OA
ATOM     21  H   UNL     1      11.693   3.326  22.605  0.00  0.00    +0.292 HD
ENDBRANCH  16  20
ENDBRANCH   1  13
BRANCH   5  22
ATOM     22  O   UNL     1       5.029  -4.958  25.804  0.00  0.00    -0.506 OA
ATOM     23  H   UNL     1       5.559  -5.459  26.462  0.00  0.00    +0.292 HD
ENDBRANCH   5  22
BRANCH   7  24
ATOM     24  O   UNL     1       6.157  -6.551  21.487  0.00  0.00    -0.507 OA
ATOM     25  H   UNL     1       6.703  -6.284  20.726  0.00  0.00    +0.292 HD
ENDBRANCH   7  24
BRANCH  11  26
ATOM     26  O   UNL     1       7.626  -0.387  25.919  0.00  0.00    -0.453 OA
BRANCH  26  27
ATOM     27  C   UNL     1       6.380   0.204  26.319  0.00  0.00    +0.340 C 
ATOM     28  O   UNL     1       5.886   0.799  25.107  0.00  0.00    -0.322 OA
ATOM     29  C   UNL     1       5.194   2.074  25.171  0.00  0.00    +0.261 C 
ATOM     30  C   UNL     1       5.895   3.145  26.036  0.00  0.00    +0.185 C 
ATOM     31  C   UNL     1       7.091   2.551  26.772  0.00  0.00    +0.180 C 
ATOM     32  C   UNL     1       6.650   1.235  27.429  0.00  0.00    +0.214 C 
BRANCH  29  33
ATOM     33  C   UNL     1       5.077   2.476  23.695  0.00  0.00    +0.337 C 
ATOM     34  O   UNL     1       6.003   2.713  22.936  0.00  0.00    -0.248 OA
BRANCH  33  35
ATOM     35  O   UNL     1       3.777   2.594  23.298  0.00  0.00    -0.479 OA
ATOM     36  H   UNL     1       3.443   3.469  23.605  0.00  0.00    +0.295 HD
ENDBRANCH  33  35
ENDBRANCH  29  33
BRANCH  30  37
ATOM     37  O   UNL     1       6.325   4.312  25.338  0.00  0.00    -0.386 OA
ATOM     38  H   UNL     1       5.957   4.268  24.435  0.00  0.00    +0.210 HD
ENDBRANCH  30  37
BRANCH  31  39
ATOM     39  O   UNL     1       8.181   2.395  25.837  0.00  0.00    -0.386 OA
ATOM     40  H   UNL     1       8.363   3.244  25.382  0.00  0.00    +0.210 HD
ENDBRANCH  31  39
BRANCH  32  41
ATOM     41  O   UNL     1       5.466   1.466  28.204  0.00  0.00    -0.383 OA
ATOM     42  H   UNL     1       5.169   0.608  28.564  0.00  0.00    +0.210 HD
ENDBRANCH  32  41
ENDBRANCH  26  27
ENDBRANCH  11  26
TORSDOF 12
ENDMDL
MODEL 6
REMARK VINA RESULT:      -6.8      1.699      4.816
REMARK  Name = 
REMARK  12 active torsions:
REMARK  status: ('A' for Active; 'I' for Inactive)
REMARK    1  A    between atoms: C_3  and  O_39
REMARK    2  A    between atoms: C_4  and  O_38
REMARK    3  A    between atoms: C_6  and  C_7
REMARK    4  A    between atoms: C_8  and  O_20
REMARK    5  A    between atoms: C_12  and  O_19
REMARK    6  A    between atoms: C_14  and  O_18
REMARK    7  A    between atoms: O_20  and  C_21
REMARK    8  A    between atoms: C_23  and  O_37
REMARK    9  A    between atoms: C_25  and  O_36
REMARK   10  A    between atoms: C_27  and  O_35
REMARK   11  A    between atoms: C_29  and  C_32
REMARK   12  A    between atoms: C_32  and  O_34
REMARK                            x       y       z     vdW  Elec       q    Type
REMARK                         _______ _______ _______ _____ _____    ______ ____
ROOT
ATOM      1  C   UNL     1       8.235  -1.798  23.958  0.00  0.00    +0.181 A 
ATOM      2  O   UNL     1       8.191  -2.829  23.027  0.00  0.00    -0.451 OA
ATOM      3  C   UNL     1       7.246  -3.816  23.204  0.00  0.00    +0.147 A 
ATOM      4  C   UNL     1       6.500  -3.933  24.373  0.00  0.00    +0.109 A 
ATOM      5  C   UNL     1       5.550  -4.951  24.516  0.00  0.00    +0.135 A 
ATOM      6  C   UNL     1       5.342  -5.863  23.490  0.00  0.00    +0.091 A 
ATOM      7  C   UNL     1       6.095  -5.749  22.325  0.00  0.00    +0.124 A 
ATOM      8  C   UNL     1       6.724  -2.963  25.443  0.00  0.00    +0.238 A 
ATOM      9  O   UNL     1       6.260  -3.175  26.559  0.00  0.00    -0.283 OA
ATOM     10  C   UNL     1       7.042  -4.731  22.172  0.00  0.00    +0.092 A 
ATOM     11  C   UNL     1       7.521  -1.756  25.104  0.00  0.00    +0.214 A 
ENDROOT
BRANCH   1  13
ATOM     12  C   UNL     1      10.171  -0.244  24.374  0.00  0.00    +0.015 A 
ATOM     13  C   UNL     1       9.089  -0.653  23.571  0.00  0.00    +0.025 A 
ATOM     14  C   UNL     1       8.716   0.145  22.483  0.00  0.00    +0.060 A 
ATOM     15  C   UNL     1       9.325   1.381  22.301  0.00  0.00    +0.159 A 
ATOM     16  C   UNL     1      10.318   1.830  23.166  0.00  0.00    +0.158 A 
ATOM     17  C   UNL     1      10.779   1.006  24.182  0.00  0.00    +0.050 A 
BRANCH  15  18
ATOM     18  O   UNL     1       8.890   2.190  21.290  0.00  0.00    -0.503 OA
ATOM     19  H   UNL     1       9.671   2.302  20.711  0.00  0.00    +0.292 HD
ENDBRANCH  15  18
BRANCH  16  20
ATOM     20  O   UNL     1      10.778   3.106  23.002  0.00  0.00    -0.503 OA
ATOM     21  H   UNL     1      10.224   3.702  23.537  0.00  0.00    +0.292 HD
ENDBRANCH  16  20
ENDBRANCH   1  13
BRANCH   5  22
ATOM     22  O   UNL     1       4.779  -5.105  25.636  0.00  0.00    -0.506 OA
ATOM     23  H   UNL     1       3.890  -5.419  25.361  0.00  0.00    +0.292 HD
ENDBRANCH   5  22
BRANCH   7  24
ATOM     24  O   UNL     1       5.927  -6.630  21.299  0.00  0.00    -0.507 OA
ATOM     25  H   UNL     1       5.569  -7.464  21.652  0.00  0.00    +0.292 HD
ENDBRANCH   7  24
BRANCH  11  26
ATOM     26  O   UNL     1       7.519  -0.625  25.903  0.00  0.00    -0.453 OA
BRANCH  26  27
ATOM     27  C   UNL     1       6.411   0.288  25.887  0.00  0.00    +0.340 C 
ATOM     28  O   UNL     1       7.019   1.548  25.557  0.00  0.00    -0.322 OA
ATOM     29  C   UNL     1       6.528   2.761  26.186  0.00  0.00    +0.261 C 
ATOM     30  C   UNL     1       6.325   2.659  27.713  0.00  0.00    +0.185 C 
ATOM     31  C   UNL     1       6.534   1.227  28.194  0.00  0.00    +0.180 C 
ATOM     32  C   UNL     1       5.742   0.287  27.273  0.00  0.00    +0.214 C 
BRANCH  29  33
ATOM     33  C   UNL     1       7.581   3.805  25.788  0.00  0.00    +0.337 C 
ATOM     34  O   UNL     1       8.679   3.575  25.306  0.00  0.00    -0.248 OA
BRANCH  33  35
ATOM     35  O   UNL     1       7.177   5.076  26.078  0.00  0.00    -0.479 OA
ATOM     36  H   UNL     1       7.983   5.626  26.221  0.00  0.00    +0.295 HD
ENDBRANCH  33  35
ENDBRANCH  29  33
BRANCH  30  37
ATOM     37  O   UNL     1       7.140   3.525  28.501  0.00  0.00    -0.386 OA
ATOM     38  H   UNL     1       6.664   4.372  28.595  0.00  0.00    +0.210 HD
ENDBRANCH  30  37
BRANCH  31  39
ATOM     39  O   UNL     1       7.951   0.950  28.225  0.00  0.00    -0.386 OA
ATOM     40  H   UNL     1       8.191   0.323  27.510  0.00  0.00    +0.210 HD
ENDBRANCH  31  39
BRANCH  32  41
ATOM     41  O   UNL     1       4.386   0.745  27.180  0.00  0.00    -0.383 OA
ATOM     42  H   UNL     1       3.927   0.497  28.006  0.00  0.00    +0.210 HD
ENDBRANCH  32  41
ENDBRANCH  26  27
ENDBRANCH  11  26
TORSDOF 12
ENDMDL
MODEL 7
REMARK VINA RESULT:      -6.5      3.017      5.244
REMARK  Name = 
REMARK  12 active torsions:
REMARK  status: ('A' for Active; 'I' for Inactive)
REMARK    1  A    between atoms: C_3  and  O_39
REMARK    2  A    between atoms: C_4  and  O_38
REMARK    3  A    between atoms: C_6  and  C_7
REMARK    4  A    between atoms: C_8  and  O_20
REMARK    5  A    between atoms: C_12  and  O_19
REMARK    6  A    between atoms: C_14  and  O_18
REMARK    7  A    between atoms: O_20  and  C_21
REMARK    8  A    between atoms: C_23  and  O_37
REMARK    9  A    between atoms: C_25  and  O_36
REMARK   10  A    between atoms: C_27  and  O_35
REMARK   11  A    between atoms: C_29  and  C_32
REMARK   12  A    between atoms: C_32  and  O_34
REMARK                            x       y       z     vdW  Elec       q    Type
REMARK                         _______ _______ _______ _____ _____    ______ ____
ROOT
ATOM      1  C   UNL     1       7.711  -0.964  25.078  0.00  0.00    +0.181 A 
ATOM      2  O   UNL     1       8.257  -2.084  25.693  0.00  0.00    -0.451 OA
ATOM      3  C   UNL     1       7.400  -2.943  26.343  0.00  0.00    +0.147 A 
ATOM      4  C   UNL     1       6.069  -2.622  26.592  0.00  0.00    +0.109 A 
ATOM      5  C   UNL     1       5.228  -3.521  27.259  0.00  0.00    +0.135 A 
ATOM      6  C   UNL     1       5.716  -4.750  27.686  0.00  0.00    +0.091 A 
ATOM      7  C   UNL     1       7.050  -5.065  27.443  0.00  0.00    +0.124 A 
ATOM      8  C   UNL     1       5.565  -1.329  26.132  0.00  0.00    +0.238 A 
ATOM      9  O   UNL     1       4.481  -0.924  26.535  0.00  0.00    -0.283 OA
ATOM     10  C   UNL     1       7.894  -4.175  26.772  0.00  0.00    +0.092 A 
ATOM     11  C   UNL     1       6.423  -0.569  25.186  0.00  0.00    +0.214 A 
ENDROOT
BRANCH   1  13
ATOM     12  C   UNL     1       9.723   0.504  24.712  0.00  0.00    +0.015 A 
ATOM     13  C   UNL     1       8.641  -0.231  24.190  0.00  0.00    +0.025 A 
ATOM     14  C   UNL     1       8.346  -0.121  22.827  0.00  0.00    +0.060 A 
ATOM     15  C   UNL     1       9.031   0.806  22.051  0.00  0.00    +0.159 A 
ATOM     16  C   UNL     1      10.025   1.612  22.599  0.00  0.00    +0.158 A 
ATOM     17  C   UNL     1      10.409   1.438  23.920  0.00  0.00    +0.050 A 
BRANCH  15  18
ATOM     18  O   UNL     1       8.672   0.969  20.743  0.00  0.00    -0.503 OA
ATOM     19  H   UNL     1       8.738   0.072  20.356  0.00  0.00    +0.292 HD
ENDBRANCH  15  18
BRANCH  16  20
ATOM     20  O   UNL     1      10.563   2.587  21.809  0.00  0.00    -0.503 OA
ATOM     21  H   UNL     1       9.904   3.296  21.706  0.00  0.00    +0.292 HD
ENDBRANCH  16  20
ENDBRANCH   1  13
BRANCH   5  22
ATOM     22  O   UNL     1       3.909  -3.265  27.517  0.00  0.00    -0.506 OA
ATOM     23  H   UNL     1       3.600  -3.887  28.211  0.00  0.00    +0.292 HD
ENDBRANCH   5  22
BRANCH   7  24
ATOM     24  O   UNL     1       7.569  -6.256  27.855  0.00  0.00    -0.507 OA
ATOM     25  H   UNL     1       8.537  -6.174  27.925  0.00  0.00    +0.292 HD
ENDBRANCH   7  24
BRANCH  11  26
ATOM     26  O   UNL     1       5.930   0.479  24.426  0.00  0.00    -0.453 OA
BRANCH  26  27
ATOM     27  C   UNL     1       5.707   1.772  25.010  0.00  0.00    +0.340 C 
ATOM     28  O   UNL     1       4.358   2.085  24.626  0.00  0.00    -0.322 OA
ATOM     29  C   UNL     1       4.017   3.453  24.278  0.00  0.00    +0.261 C 
ATOM     30  C   UNL     1       5.012   4.141  23.318  0.00  0.00    +0.185 C 
ATOM     31  C   UNL     1       6.236   3.262  23.082  0.00  0.00    +0.180 C 
ATOM     32  C   UNL     1       6.740   2.761  24.444  0.00  0.00    +0.214 C 
BRANCH  29  33
ATOM     33  C   UNL     1       2.608   3.316  23.686  0.00  0.00    +0.337 C 
ATOM     34  O   UNL     1       2.326   2.850  22.593  0.00  0.00    -0.248 OA
BRANCH  33  35
ATOM     35  O   UNL     1       1.652   3.829  24.514  0.00  0.00    -0.479 OA
ATOM     36  H   UNL     1       1.510   4.773  24.266  0.00  0.00    +0.295 HD
ENDBRANCH  33  35
ENDBRANCH  29  33
BRANCH  30  37
ATOM     37  O   UNL     1       4.478   4.524  22.051  0.00  0.00    -0.386 OA
ATOM     38  H   UNL     1       3.571   4.852  22.201  0.00  0.00    +0.210 HD
ENDBRANCH  30  37
BRANCH  31  39
ATOM     39  O   UNL     1       5.877   2.201  22.171  0.00  0.00    -0.386 OA
ATOM     40  H   UNL     1       6.649   1.622  22.001  0.00  0.00    +0.210 HD
ENDBRANCH  31  39
BRANCH  32  41
ATOM     41  O   UNL     1       6.908   3.878  25.328  0.00  0.00    -0.383 OA
ATOM     42  H   UNL     1       6.542   3.631  26.198  0.00  0.00    +0.210 HD
ENDBRANCH  32  41
ENDBRANCH  26  27
ENDBRANCH  11  26
TORSDOF 12
ENDMDL
MODEL 8
REMARK VINA RESULT:      -6.5      2.209      4.961
REMARK  Name = 
REMARK  12 active torsions:
REMARK  status: ('A' for Active; 'I' for Inactive)
REMARK    1  A    between atoms: C_3  and  O_39
REMARK    2  A    between atoms: C_4  and  O_38
REMARK    3  A    between atoms: C_6  and  C_7
REMARK    4  A    between atoms: C_8  and  O_20
REMARK    5  A    between atoms: C_12  and  O_19
REMARK    6  A    between atoms: C_14  and  O_18
REMARK    7  A    between atoms: O_20  and  C_21
REMARK    8  A    between atoms: C_23  and  O_37
REMARK    9  A    between atoms: C_25  and  O_36
REMARK   10  A    between atoms: C_27  and  O_35
REMARK   11  A    between atoms: C_29  and  C_32
REMARK   12  A    between atoms: C_32  and  O_34
REMARK                            x       y       z     vdW  Elec       q    Type
REMARK                         _______ _______ _______ _____ _____    ______ ____
ROOT
ATOM      1  C   UNL     1       7.678  -1.517  23.815  0.00  0.00    +0.181 A 
ATOM      2  O   UNL     1       7.986  -2.802  23.384  0.00  0.00    -0.451 OA
ATOM      3  C   UNL     1       6.956  -3.709  23.280  0.00  0.00    +0.147 A 
ATOM      4  C   UNL     1       5.685  -3.457  23.789  0.00  0.00    +0.109 A 
ATOM      5  C   UNL     1       4.664  -4.406  23.665  0.00  0.00    +0.135 A 
ATOM      6  C   UNL     1       4.908  -5.619  23.033  0.00  0.00    +0.091 A 
ATOM      7  C   UNL     1       6.182  -5.871  22.533  0.00  0.00    +0.124 A 
ATOM      8  C   UNL     1       5.439  -2.175  24.446  0.00  0.00    +0.238 A 
ATOM      9  O   UNL     1       4.415  -2.018  25.103  0.00  0.00    -0.283 OA
ATOM     10  C   UNL     1       7.206  -4.927  22.647  0.00  0.00    +0.092 A 
ATOM     11  C   UNL     1       6.472  -1.120  24.276  0.00  0.00    +0.214 A 
ENDROOT
BRANCH   1  13
ATOM     12  C   UNL     1       9.665  -0.259  24.715  0.00  0.00    +0.015 A 
ATOM     13  C   UNL     1       8.774  -0.534  23.659  0.00  0.00    +0.025 A 
ATOM     14  C   UNL     1       8.825   0.262  22.509  0.00  0.00    +0.060 A 
ATOM     15  C   UNL     1       9.649   1.380  22.487  0.00  0.00    +0.159 A 
ATOM     16  C   UNL     1      10.445   1.712  23.579  0.00  0.00    +0.158 A 
ATOM     17  C   UNL     1      10.493   0.873  24.683  0.00  0.00    +0.050 A 
BRANCH  15  18
ATOM     18  O   UNL     1       9.622   2.200  21.394  0.00  0.00    -0.503 OA
ATOM     19  H   UNL     1       9.624   3.106  21.767  0.00  0.00    +0.292 HD
ENDBRANCH  15  18
BRANCH  16  20
ATOM     20  O   UNL     1      11.129   2.893  23.535  0.00  0.00    -0.503 OA
ATOM     21  H   UNL     1      10.585   3.578  23.963  0.00  0.00    +0.292 HD
ENDBRANCH  16  20
ENDBRANCH   1  13
BRANCH   5  22
ATOM     22  O   UNL     1       3.393  -4.206  24.133  0.00  0.00    -0.506 OA
ATOM     23  H   UNL     1       3.307  -4.655  25.001  0.00  0.00    +0.292 HD
ENDBRANCH   5  22
BRANCH   7  24
ATOM     24  O   UNL     1       6.464  -7.053  21.915  0.00  0.00    -0.507 OA
ATOM     25  H   UNL     1       7.094  -6.891  21.190  0.00  0.00    +0.292 HD
ENDBRANCH   7  24
BRANCH  11  26
ATOM     26  O   UNL     1       6.214   0.212  24.550  0.00  0.00    -0.453 OA
BRANCH  26  27
ATOM     27  C   UNL     1       6.190   0.697  25.901  0.00  0.00    +0.340 C 
ATOM     28  O   UNL     1       4.798   0.965  26.137  0.00  0.00    -0.322 OA
ATOM     29  C   UNL     1       4.420   2.121  26.931  0.00  0.00    +0.261 C 
ATOM     30  C   UNL     1       5.153   3.428  26.554  0.00  0.00    +0.185 C 
ATOM     31  C   UNL     1       6.246   3.161  25.525  0.00  0.00    +0.180 C 
ATOM     32  C   UNL     1       7.070   1.955  25.997  0.00  0.00    +0.214 C 
BRANCH  29  33
ATOM     33  C   UNL     1       2.902   2.201  26.721  0.00  0.00    +0.337 C 
ATOM     34  O   UNL     1       2.049   2.123  27.591  0.00  0.00    -0.248 OA
BRANCH  33  35
ATOM     35  O   UNL     1       2.573   2.329  25.403  0.00  0.00    -0.479 OA
ATOM     36  H   UNL     1       2.412   3.285  25.221  0.00  0.00    +0.295 HD
ENDBRANCH  33  35
ENDBRANCH  29  33
BRANCH  30  37
ATOM     37  O   UNL     1       4.321   4.481  26.070  0.00  0.00    -0.386 OA
ATOM     38  H   UNL     1       3.759   4.111  25.363  0.00  0.00    +0.210 HD
ENDBRANCH  30  37
BRANCH  31  39
ATOM     39  O   UNL     1       5.630   2.972  24.233  0.00  0.00    -0.386 OA
ATOM     40  H   UNL     1       6.152   3.424  23.537  0.00  0.00    +0.210 HD
ENDBRANCH  31  39
BRANCH  32  41
ATOM     41  O   UNL     1       7.497   2.171  27.349  0.00  0.00    -0.383 OA
ATOM     42  H   UNL     1       7.266   1.378  27.869  0.00  0.00    +0.210 HD
ENDBRANCH  32  41
ENDBRANCH  26  27
ENDBRANCH  11  26
TORSDOF 12
ENDMDL
MODEL 9
REMARK VINA RESULT:      -6.5      2.197      6.455
REMARK  Name = 
REMARK  12 active torsions:
REMARK  status: ('A' for Active; 'I' for Inactive)
REMARK    1  A    between atoms: C_3  and  O_39
REMARK    2  A    between atoms: C_4  and  O_38
REMARK    3  A    between atoms: C_6  and  C_7
REMARK    4  A    between atoms: C_8  and  O_20
REMARK    5  A    between atoms: C_12  and  O_19
REMARK    6  A    between atoms: C_14  and  O_18
REMARK    7  A    between atoms: O_20  and  C_21
REMARK    8  A    between atoms: C_23  and  O_37
REMARK    9  A    between atoms: C_25  and  O_36
REMARK   10  A    between atoms: C_27  and  O_35
REMARK   11  A    between atoms: C_29  and  C_32
REMARK   12  A    between atoms: C_32  and  O_34
REMARK                            x       y       z     vdW  Elec       q    Type
REMARK                         _______ _______ _______ _____ _____    ______ ____
ROOT
ATOM      1  C   UNL     1       6.661   0.126  25.187  0.00  0.00    +0.181 A 
ATOM      2  O   UNL     1       7.667   1.081  25.267  0.00  0.00    -0.451 OA
ATOM      3  C   UNL     1       8.493   1.239  24.177  0.00  0.00    +0.147 A 
ATOM      4  C   UNL     1       8.497   0.347  23.108  0.00  0.00    +0.109 A 
ATOM      5  C   UNL     1       9.354   0.540  22.018  0.00  0.00    +0.135 A 
ATOM      6  C   UNL     1      10.216   1.629  21.990  0.00  0.00    +0.091 A 
ATOM      7  C   UNL     1      10.215   2.515  23.063  0.00  0.00    +0.124 A 
ATOM      8  C   UNL     1       7.581  -0.791  23.147  0.00  0.00    +0.238 A 
ATOM      9  O   UNL     1       7.722  -1.710  22.347  0.00  0.00    -0.283 OA
ATOM     10  C   UNL     1       9.359   2.332  24.153  0.00  0.00    +0.092 A 
ATOM     11  C   UNL     1       6.512  -0.763  24.179  0.00  0.00    +0.214 A 
ENDROOT
BRANCH   1  13
ATOM     12  C   UNL     1       5.811  -0.584  27.447  0.00  0.00    +0.015 A 
ATOM     13  C   UNL     1       5.663   0.187  26.278  0.00  0.00    +0.025 A 
ATOM     14  C   UNL     1       4.467   0.885  26.077  0.00  0.00    +0.060 A 
ATOM     15  C   UNL     1       3.409   0.696  26.957  0.00  0.00    +0.159 A 
ATOM     16  C   UNL     1       3.523  -0.156  28.051  0.00  0.00    +0.158 A 
ATOM     17  C   UNL     1       4.736  -0.768  28.331  0.00  0.00    +0.050 A 
BRANCH  15  18
ATOM     18  O   UNL     1       2.217   1.312  26.700  0.00  0.00    -0.503 OA
ATOM     19  H   UNL     1       2.194   2.072  27.317  0.00  0.00    +0.292 HD
ENDBRANCH  15  18
BRANCH  16  20
ATOM     20  O   UNL     1       2.403  -0.391  28.797  0.00  0.00    -0.503 OA
ATOM     21  H   UNL     1       1.672   0.133  28.424  0.00  0.00    +0.292 HD
ENDBRANCH  16  20
ENDBRANCH   1  13
BRANCH   5  22
ATOM     22  O   UNL     1       9.389  -0.296  20.935  0.00  0.00    -0.506 OA
ATOM     23  H   UNL     1      10.263  -0.743  20.916  0.00  0.00    +0.292 HD
ENDBRANCH   5  22
BRANCH   7  24
ATOM     24  O   UNL     1      11.054   3.589  23.077  0.00  0.00    -0.507 OA
ATOM     25  H   UNL     1      10.528   4.405  22.995  0.00  0.00    +0.292 HD
ENDBRANCH   7  24
BRANCH  11  26
ATOM     26  O   UNL     1       5.400  -1.584  24.109  0.00  0.00    -0.453 OA
BRANCH  26  27
ATOM     27  C   UNL     1       5.349  -2.821  24.838  0.00  0.00    +0.340 C 
ATOM     28  O   UNL     1       6.684  -3.340  24.710  0.00  0.00    -0.322 OA
ATOM     29  C   UNL     1       6.878  -4.770  24.549  0.00  0.00    +0.261 C 
ATOM     30  C   UNL     1       5.952  -5.433  23.506  0.00  0.00    +0.185 C 
ATOM     31  C   UNL     1       4.913  -4.441  22.994  0.00  0.00    +0.180 C 
ATOM     32  C   UNL     1       4.285  -3.732  24.203  0.00  0.00    +0.214 C 
BRANCH  29  33
ATOM     33  C   UNL     1       8.365  -4.876  24.186  0.00  0.00    +0.337 C 
ATOM     34  O   UNL     1       9.010  -5.907  24.078  0.00  0.00    -0.248 OA
BRANCH  33  35
ATOM     35  O   UNL     1       8.944  -3.650  24.030  0.00  0.00    -0.479 OA
ATOM     36  H   UNL     1       9.513  -3.682  23.226  0.00  0.00    +0.295 HD
ENDBRANCH  33  35
ENDBRANCH  29  33
BRANCH  30  37
ATOM     37  O   UNL     1       6.611  -6.019  22.385  0.00  0.00    -0.386 OA
ATOM     38  H   UNL     1       6.076  -5.822  21.592  0.00  0.00    +0.210 HD
ENDBRANCH  30  37
BRANCH  31  39
ATOM     39  O   UNL     1       5.549  -3.543  22.060  0.00  0.00    -0.386 OA
ATOM     40  H   UNL     1       6.178  -2.953  22.529  0.00  0.00    +0.210 HD
ENDBRANCH  31  39
BRANCH  32  41
ATOM     41  O   UNL     1       3.831  -4.712  25.146  0.00  0.00    -0.383 OA
ATOM     42  H   UNL     1       3.984  -4.361  26.044  0.00  0.00    +0.210 HD
ENDBRANCH  32  41
ENDBRANCH  26  27
ENDBRANCH  11  26
TORSDOF 12
ENDMDL
