MODEL 1
REMARK VINA RESULT:      -6.5      0.000      0.000
REMARK  Name = 
REMARK  23 active torsions:
REMARK  status: ('A' for Active; 'I' for Inactive)
REMARK    1  A    between atoms: C_1  and  C_2
REMARK    2  A    between atoms: C_3  and  O_11
REMARK    3  A    between atoms: C_4  and  O_10
REMARK    4  A    between atoms: C_5  and  O_9
REMARK    5  A    between atoms: C_6  and  O_8
REMARK    6  A    between atoms: O_11  and  C_12
REMARK    7  A    between atoms: C_13  and  O_54
REMARK    8  A    between atoms: C_14  and  O_53
REMARK    9  A    between atoms: C_15  and  C_51
REMARK   10  A    between atoms: C_17  and  O_18
REMARK   11  A    between atoms: O_18  and  C_19
REMARK   12  A    between atoms: C_20  and  C_43
REMARK   13  A    between atoms: C_24  and  O_31
REMARK   14  A    between atoms: C_26  and  O_30
REMARK   15  A    between atoms: O_31  and  C_32
REMARK   16  A    between atoms: C_33  and  O_42
REMARK   17  A    between atoms: C_34  and  O_41
REMARK   18  A    between atoms: C_35  and  O_40
REMARK   19  A    between atoms: C_36  and  C_38
REMARK   20  A    between atoms: C_38  and  O_39
REMARK   21  A    between atoms: C_45  and  O_50
REMARK   22  A    between atoms: C_46  and  O_49
REMARK   23  A    between atoms: C_51  and  O_52
REMARK                            x       y       z     vdW  Elec       q    Type
REMARK                         _______ _______ _______ _____ _____    ______ ____
ROOT
ATOM      1  C   UNL     1       6.745  -0.833  24.824  0.00  0.00    +0.214 A 
ATOM      2  C   UNL     1       6.696  -2.049  23.976  0.00  0.00    +0.238 A 
ATOM      3  O   UNL     1       7.704  -2.483  23.433  0.00  0.00    -0.283 OA
ATOM      4  C   UNL     1       5.446  -2.801  23.964  0.00  0.00    +0.109 A 
ATOM      5  C   UNL     1       4.748  -2.792  25.154  0.00  0.00    +0.147 A 
ATOM      6  C   UNL     1       3.788  -3.775  25.389  0.00  0.00    +0.093 A 
ATOM      7  C   UNL     1       3.466  -4.703  24.394  0.00  0.00    +0.131 A 
ATOM      8  C   UNL     1       4.045  -4.576  23.123  0.00  0.00    +0.092 A 
ATOM      9  O   UNL     1       4.982  -1.854  26.126  0.00  0.00    -0.451 OA
ATOM     10  C   UNL     1       5.053  -3.636  22.918  0.00  0.00    +0.135 A 
ATOM     11  C   UNL     1       5.863  -0.796  25.854  0.00  0.00    +0.181 A 
ENDROOT
BRANCH  11  12
ATOM     12  C   UNL     1       5.749   0.304  26.847  0.00  0.00    +0.025 A 
ATOM     13  C   UNL     1       6.651   0.447  27.912  0.00  0.00    +0.015 A 
ATOM     14  C   UNL     1       6.531   1.486  28.851  0.00  0.00    +0.050 A 
ATOM     15  C   UNL     1       5.521   2.424  28.692  0.00  0.00    +0.158 A 
ATOM     16  C   UNL     1       4.645   2.338  27.619  0.00  0.00    +0.159 A 
ATOM     17  C   UNL     1       4.745   1.284  26.706  0.00  0.00    +0.060 A 
BRANCH  16  18
ATOM     18  O   UNL     1       3.696   3.312  27.493  0.00  0.00    -0.503 OA
ATOM     19  H   UNL     1       3.310   3.259  26.602  0.00  0.00    +0.292 HD
ENDBRANCH  16  18
BRANCH  15  20
ATOM     20  O   UNL     1       5.405   3.445  29.592  0.00  0.00    -0.503 OA
ATOM     21  H   UNL     1       6.258   3.460  30.056  0.00  0.00    +0.292 HD
ENDBRANCH  15  20
ENDBRANCH  11  12
BRANCH  10  22
ATOM     22  O   UNL     1       5.634  -3.493  21.697  0.00  0.00    -0.506 OA
ATOM     23  H   UNL     1       6.320  -4.164  21.544  0.00  0.00    +0.292 HD
ENDBRANCH  10  22
BRANCH   7  24
ATOM     24  O   UNL     1       2.587  -5.750  24.541  0.00  0.00    -0.461 OA
BRANCH  24  25
ATOM     25  C   UNL     1       3.173  -7.063  24.631  0.00  0.00    +0.339 C 
ATOM     26  O   UNL     1       2.642  -7.980  23.668  0.00  0.00    -0.331 OA
ATOM     27  C   UNL     1       1.237  -8.246  23.847  0.00  0.00    +0.179 C 
ATOM     28  C   UNL     1       1.018  -8.920  25.205  0.00  0.00    +0.177 C 
ATOM     29  C   UNL     1       1.560  -8.033  26.338  0.00  0.00    +0.180 C 
ATOM     30  C   UNL     1       3.018  -7.622  26.066  0.00  0.00    +0.214 C 
BRANCH  30  31
ATOM     31  O   UNL     1       3.496  -6.700  27.056  0.00  0.00    -0.383 OA
ATOM     32  H   UNL     1       3.952  -7.196  27.757  0.00  0.00    +0.210 HD
ENDBRANCH  30  31
BRANCH  29  33
ATOM     33  O   UNL     1       1.449  -8.746  27.580  0.00  0.00    -0.386 OA
ATOM     34  H   UNL     1       1.052  -8.134  28.231  0.00  0.00    +0.210 HD
ENDBRANCH  29  33
BRANCH  28  35
ATOM     35  O   UNL     1       1.680 -10.196  25.268  0.00  0.00    -0.386 OA
ATOM     36  H   UNL     1       2.021 -10.320  26.174  0.00  0.00    +0.210 HD
ENDBRANCH  28  35
BRANCH  27  37
ATOM     37  C   UNL     1       0.759  -9.141  22.693  0.00  0.00    +0.190 C 
BRANCH  37  38
ATOM     38  O   UNL     1       1.328  -8.729  21.450  0.00  0.00    -0.392 OA
ATOM     39  H   UNL     1       2.289  -8.859  21.491  0.00  0.00    +0.210 HD
ENDBRANCH  37  38
ENDBRANCH  27  37
ENDBRANCH  24  25
ENDBRANCH   7  24
BRANCH   1  40
ATOM     40  O   UNL     1       7.775   0.078  24.635  0.00  0.00    -0.453 OA
BRANCH  40  42
ATOM     41  C   UNL     1       6.956   1.610  22.791  0.00  0.00    +0.218 C 
ATOM     42  C   UNL     1       7.368   1.420  24.292  0.00  0.00    +0.340 C 
ATOM     43  O   UNL     1       8.427   2.333  24.643  0.00  0.00    -0.331 OA
ATOM     44  C   UNL     1       9.632   2.224  23.869  0.00  0.00    +0.179 C 
ATOM     45  C   UNL     1       9.366   2.355  22.362  0.00  0.00    +0.177 C 
ATOM     46  C   UNL     1       8.214   1.448  21.921  0.00  0.00    +0.180 C 
BRANCH  46  47
ATOM     47  O   UNL     1       7.926   1.722  20.538  0.00  0.00    -0.386 OA
ATOM     48  H   UNL     1       7.220   2.401  20.543  0.00  0.00    +0.210 HD
ENDBRANCH  46  47
BRANCH  45  49
ATOM     49  O   UNL     1      10.554   2.034  21.618  0.00  0.00    -0.386 OA
ATOM     50  H   UNL     1      11.316   2.255  22.189  0.00  0.00    +0.210 HD
ENDBRANCH  45  49
BRANCH  41  51
ATOM     51  O   UNL     1       6.333   2.893  22.466  0.00  0.00    -0.359 OA
BRANCH  51  58
ATOM     52  C   UNL     1       3.437   3.827  22.195  0.00  0.00    +0.041 C 
ATOM     53  C   UNL     1       4.101   3.449  23.519  0.00  0.00    +0.150 C 
ATOM     54  O   UNL     1       3.489   4.117  24.632  0.00  0.00    -0.343 OA
ATOM     55  C   UNL     1       3.790   5.497  24.756  0.00  0.00    +0.279 C 
ATOM     56  C   UNL     1       5.309   5.694  24.857  0.00  0.00    +0.201 C 
ATOM     57  C   UNL     1       6.016   5.053  23.647  0.00  0.00    +0.179 C 
ATOM     58  C   UNL     1       5.644   3.553  23.552  0.00  0.00    +0.179 C 
BRANCH  57  59
ATOM     59  O   UNL     1       7.432   5.212  23.794  0.00  0.00    -0.386 OA
ATOM     60  H   UNL     1       7.817   5.149  22.899  0.00  0.00    +0.210 HD
ENDBRANCH  57  59
BRANCH  56  61
ATOM     61  O   UNL     1       5.789   5.066  26.076  0.00  0.00    -0.384 OA
ATOM     62  H   UNL     1       5.016   4.661  26.517  0.00  0.00    +0.210 HD
ENDBRANCH  56  61
BRANCH  55  63
ATOM     63  O   UNL     1       3.149   5.955  25.940  0.00  0.00    -0.365 OA
ATOM     64  H   UNL     1       2.208   5.726  25.848  0.00  0.00    +0.213 HD
ENDBRANCH  55  63
ENDBRANCH  51  58
ENDBRANCH  41  51
BRANCH  44  65
ATOM     65  C   UNL     1      10.476   0.979  24.221  0.00  0.00    +0.190 C 
BRANCH  65  66
ATOM     66  O   UNL     1      10.350   0.586  25.584  0.00  0.00    -0.392 OA
ATOM     67  H   UNL     1      11.261   0.430  25.914  0.00  0.00    +0.210 HD
ENDBRANCH  65  66
ENDBRANCH  44  65
ENDBRANCH  40  42
ENDBRANCH   1  40
TORSDOF 22
ENDMDL
MODEL 2
REMARK VINA RESULT:      -6.4      2.286     10.866
REMARK  Name = 
REMARK  23 active torsions:
REMARK  status: ('A' for Active; 'I' for Inactive)
REMARK    1  A    between atoms: C_1  and  C_2
REMARK    2  A    between atoms: C_3  and  O_11
REMARK    3  A    between atoms: C_4  and  O_10
REMARK    4  A    between atoms: C_5  and  O_9
REMARK    5  A    between atoms: C_6  and  O_8
REMARK    6  A    between atoms: O_11  and  C_12
REMARK    7  A    between atoms: C_13  and  O_54
REMARK    8  A    between atoms: C_14  and  O_53
REMARK    9  A    between atoms: C_15  and  C_51
REMARK   10  A    between atoms: C_17  and  O_18
REMARK   11  A    between atoms: O_18  and  C_19
REMARK   12  A    between atoms: C_20  and  C_43
REMARK   13  A    between atoms: C_24  and  O_31
REMARK   14  A    between atoms: C_26  and  O_30
REMARK   15  A    between atoms: O_31  and  C_32
REMARK   16  A    between atoms: C_33  and  O_42
REMARK   17  A    between atoms: C_34  and  O_41
REMARK   18  A    between atoms: C_35  and  O_40
REMARK   19  A    between atoms: C_36  and  C_38
REMARK   20  A    between atoms: C_38  and  O_39
REMARK   21  A    between atoms: C_45  and  O_50
REMARK   22  A    between atoms: C_46  and  O_49
REMARK   23  A    between atoms: C_51  and  O_52
REMARK                            x       y       z     vdW  Elec       q    Type
REMARK                         _______ _______ _______ _____ _____    ______ ____
ROOT
ATOM      1  C   UNL     1       5.480  -2.561  26.472  0.00  0.00    +0.214 A 
ATOM      2  C   UNL     1       5.239  -1.279  27.178  0.00  0.00    +0.238 A 
ATOM      3  O   UNL     1       5.360  -1.193  28.394  0.00  0.00    -0.283 OA
ATOM      4  C   UNL     1       5.030  -0.094  26.354  0.00  0.00    +0.109 A 
ATOM      5  C   UNL     1       5.736  -0.077  25.168  0.00  0.00    +0.147 A 
ATOM      6  C   UNL     1       5.939   1.136  24.512  0.00  0.00    +0.093 A 
ATOM      7  C   UNL     1       5.354   2.311  24.998  0.00  0.00    +0.131 A 
ATOM      8  C   UNL     1       4.480   2.240  26.092  0.00  0.00    +0.092 A 
ATOM      9  O   UNL     1       6.264  -1.217  24.620  0.00  0.00    -0.451 OA
ATOM     10  C   UNL     1       4.338   1.038  26.782  0.00  0.00    +0.135 A 
ATOM     11  C   UNL     1       5.969  -2.456  25.211  0.00  0.00    +0.181 A 
ENDROOT
BRANCH  11  12
ATOM     12  C   UNL     1       6.312  -3.600  24.326  0.00  0.00    +0.025 A 
ATOM     13  C   UNL     1       7.602  -4.150  24.279  0.00  0.00    +0.015 A 
ATOM     14  C   UNL     1       7.919  -5.227  23.435  0.00  0.00    +0.050 A 
ATOM     15  C   UNL     1       6.918  -5.792  22.659  0.00  0.00    +0.158 A 
ATOM     16  C   UNL     1       5.620  -5.303  22.722  0.00  0.00    +0.159 A 
ATOM     17  C   UNL     1       5.314  -4.209  23.538  0.00  0.00    +0.060 A 
BRANCH  16  18
ATOM     18  O   UNL     1       4.668  -5.925  21.965  0.00  0.00    -0.503 OA
ATOM     19  H   UNL     1       4.867  -5.773  21.026  0.00  0.00    +0.292 HD
ENDBRANCH  16  18
BRANCH  15  20
ATOM     20  O   UNL     1       7.213  -6.848  21.844  0.00  0.00    -0.503 OA
ATOM     21  H   UNL     1       7.513  -6.439  21.015  0.00  0.00    +0.292 HD
ENDBRANCH  15  20
ENDBRANCH  11  12
BRANCH  10  22
ATOM     22  O   UNL     1       3.500   0.943  27.850  0.00  0.00    -0.506 OA
ATOM     23  H   UNL     1       3.645   0.122  28.348  0.00  0.00    +0.292 HD
ENDBRANCH  10  22
BRANCH   7  24
ATOM     24  O   UNL     1       5.541   3.566  24.470  0.00  0.00    -0.461 OA
BRANCH  24  25
ATOM     25  C   UNL     1       6.137   3.621  23.160  0.00  0.00    +0.339 C 
ATOM     26  O   UNL     1       7.543   3.890  23.195  0.00  0.00    -0.331 OA
ATOM     27  C   UNL     1       7.863   5.184  23.743  0.00  0.00    +0.179 C 
ATOM     28  C   UNL     1       7.268   6.276  22.847  0.00  0.00    +0.177 C 
ATOM     29  C   UNL     1       5.747   6.092  22.717  0.00  0.00    +0.180 C 
ATOM     30  C   UNL     1       5.400   4.658  22.278  0.00  0.00    +0.214 C 
BRANCH  30  31
ATOM     31  O   UNL     1       3.982   4.442  22.267  0.00  0.00    -0.383 OA
ATOM     32  H   UNL     1       3.608   4.747  23.112  0.00  0.00    +0.210 HD
ENDBRANCH  30  31
BRANCH  29  33
ATOM     33  O   UNL     1       5.241   7.054  21.778  0.00  0.00    -0.386 OA
ATOM     34  H   UNL     1       4.296   6.850  21.634  0.00  0.00    +0.210 HD
ENDBRANCH  29  33
BRANCH  28  35
ATOM     35  O   UNL     1       7.846   6.243  21.530  0.00  0.00    -0.386 OA
ATOM     36  H   UNL     1       7.405   5.537  21.020  0.00  0.00    +0.210 HD
ENDBRANCH  28  35
BRANCH  27  37
ATOM     37  C   UNL     1       9.391   5.310  23.839  0.00  0.00    +0.190 C 
BRANCH  37  38
ATOM     38  O   UNL     1       9.880   6.344  22.985  0.00  0.00    -0.392 OA
ATOM     39  H   UNL     1      10.484   5.949  22.335  0.00  0.00    +0.210 HD
ENDBRANCH  37  38
ENDBRANCH  27  37
ENDBRANCH  24  25
ENDBRANCH   7  24
BRANCH   1  40
ATOM     40  O   UNL     1       5.372  -3.749  27.180  0.00  0.00    -0.453 OA
BRANCH  40  42
ATOM     41  C   UNL     1       3.027  -4.637  27.541  0.00  0.00    +0.218 C 
ATOM     42  C   UNL     1       4.357  -4.665  26.712  0.00  0.00    +0.340 C 
ATOM     43  O   UNL     1       4.907  -5.997  26.688  0.00  0.00    -0.331 OA
ATOM     44  C   UNL     1       5.207  -6.577  27.967  0.00  0.00    +0.179 C 
ATOM     45  C   UNL     1       3.988  -6.578  28.903  0.00  0.00    +0.177 C 
ATOM     46  C   UNL     1       3.317  -5.202  28.942  0.00  0.00    +0.180 C 
BRANCH  46  47
ATOM     47  O   UNL     1       2.111  -5.309  29.719  0.00  0.00    -0.386 OA
ATOM     48  H   UNL     1       1.861  -4.390  29.949  0.00  0.00    +0.210 HD
ENDBRANCH  46  47
BRANCH  45  49
ATOM     49  O   UNL     1       4.381  -6.969  30.230  0.00  0.00    -0.386 OA
ATOM     50  H   UNL     1       4.162  -7.918  30.323  0.00  0.00    +0.210 HD
ENDBRANCH  45  49
BRANCH  41  51
ATOM     51  O   UNL     1       1.909  -5.385  26.966  0.00  0.00    -0.359 OA
BRANCH  51  58
ATOM     52  C   UNL     1       0.445  -4.515  24.430  0.00  0.00    +0.041 C 
ATOM     53  C   UNL     1       1.834  -5.153  24.447  0.00  0.00    +0.150 C 
ATOM     54  O   UNL     1       2.121  -5.839  23.220  0.00  0.00    -0.343 OA
ATOM     55  C   UNL     1       1.444  -7.071  23.037  0.00  0.00    +0.279 C 
ATOM     56  C   UNL     1       1.762  -8.021  24.200  0.00  0.00    +0.201 C 
ATOM     57  C   UNL     1       1.408  -7.359  25.546  0.00  0.00    +0.179 C 
ATOM     58  C   UNL     1       2.163  -6.015  25.689  0.00  0.00    +0.179 C 
BRANCH  57  59
ATOM     59  O   UNL     1       1.759  -8.249  26.612  0.00  0.00    -0.386 OA
ATOM     60  H   UNL     1       1.205  -8.004  27.378  0.00  0.00    +0.210 HD
ENDBRANCH  57  59
BRANCH  56  61
ATOM     61  O   UNL     1       3.181  -8.333  24.183  0.00  0.00    -0.384 OA
ATOM     62  H   UNL     1       3.357  -8.924  24.943  0.00  0.00    +0.210 HD
ENDBRANCH  56  61
BRANCH  55  63
ATOM     63  O   UNL     1       1.907  -7.618  21.808  0.00  0.00    -0.365 OA
ATOM     64  H   UNL     1       2.604  -8.256  22.038  0.00  0.00    +0.213 HD
ENDBRANCH  55  63
ENDBRANCH  51  58
ENDBRANCH  41  51
BRANCH  44  65
ATOM     65  C   UNL     1       6.468  -5.979  28.630  0.00  0.00    +0.190 C 
BRANCH  65  66
ATOM     66  O   UNL     1       7.571  -5.873  27.736  0.00  0.00    -0.392 OA
ATOM     67  H   UNL     1       8.013  -5.020  27.938  0.00  0.00    +0.210 HD
ENDBRANCH  65  66
ENDBRANCH  44  65
ENDBRANCH  40  42
ENDBRANCH   1  40
TORSDOF 22
ENDMDL
MODEL 3
REMARK VINA RESULT:      -5.9      2.403     10.596
REMARK  Name = 
REMARK  23 active torsions:
REMARK  status: ('A' for Active; 'I' for Inactive)
REMARK    1  A    between atoms: C_1  and  C_2
REMARK    2  A    between atoms: C_3  and  O_11
REMARK    3  A    between atoms: C_4  and  O_10
REMARK    4  A    between atoms: C_5  and  O_9
REMARK    5  A    between atoms: C_6  and  O_8
REMARK    6  A    between atoms: O_11  and  C_12
REMARK    7  A    between atoms: C_13  and  O_54
REMARK    8  A    between atoms: C_14  and  O_53
REMARK    9  A    between atoms: C_15  and  C_51
REMARK   10  A    between atoms: C_17  and  O_18
REMARK   11  A    between atoms: O_18  and  C_19
REMARK   12  A    between atoms: C_20  and  C_43
REMARK   13  A    between atoms: C_24  and  O_31
REMARK   14  A    between atoms: C_26  and  O_30
REMARK   15  A    between atoms: O_31  and  C_32
REMARK   16  A    between atoms: C_33  and  O_42
REMARK   17  A    between atoms: C_34  and  O_41
REMARK   18  A    between atoms: C_35  and  O_40
REMARK   19  A    between atoms: C_36  and  C_38
REMARK   20  A    between atoms: C_38  and  O_39
REMARK   21  A    between atoms: C_45  and  O_50
REMARK   22  A    between atoms: C_46  and  O_49
REMARK   23  A    between atoms: C_51  and  O_52
REMARK                            x       y       z     vdW  Elec       q    Type
REMARK                         _______ _______ _______ _____ _____    ______ ____
ROOT
ATOM      1  C   UNL     1       5.343  -2.385  27.326  0.00  0.00    +0.214 A 
ATOM      2  C   UNL     1       4.703  -1.158  27.859  0.00  0.00    +0.238 A 
ATOM      3  O   UNL     1       4.228  -1.131  28.988  0.00  0.00    -0.283 OA
ATOM      4  C   UNL     1       4.822   0.056  27.059  0.00  0.00    +0.109 A 
ATOM      5  C   UNL     1       6.001   0.174  26.351  0.00  0.00    +0.147 A 
ATOM      6  C   UNL     1       6.400   1.430  25.896  0.00  0.00    +0.093 A 
ATOM      7  C   UNL     1       5.570   2.543  26.069  0.00  0.00    +0.131 A 
ATOM      8  C   UNL     1       4.290   2.367  26.615  0.00  0.00    +0.092 A 
ATOM      9  O   UNL     1       6.808  -0.904  26.097  0.00  0.00    -0.451 OA
ATOM     10  C   UNL     1       3.928   1.124  27.130  0.00  0.00    +0.135 A 
ATOM     11  C   UNL     1       6.361  -2.188  26.452  0.00  0.00    +0.181 A 
ENDROOT
BRANCH  11  12
ATOM     12  C   UNL     1       7.165  -3.262  25.812  0.00  0.00    +0.025 A 
ATOM     13  C   UNL     1       6.840  -3.791  24.554  0.00  0.00    +0.015 A 
ATOM     14  C   UNL     1       7.602  -4.811  23.959  0.00  0.00    +0.050 A 
ATOM     15  C   UNL     1       8.733  -5.276  24.614  0.00  0.00    +0.158 A 
ATOM     16  C   UNL     1       9.108  -4.736  25.837  0.00  0.00    +0.159 A 
ATOM     17  C   UNL     1       8.330  -3.745  26.442  0.00  0.00    +0.060 A 
BRANCH  16  18
ATOM     18  O   UNL     1      10.253  -5.206  26.415  0.00  0.00    -0.503 OA
ATOM     19  H   UNL     1      10.291  -6.170  26.295  0.00  0.00    +0.292 HD
ENDBRANCH  16  18
BRANCH  15  20
ATOM     20  O   UNL     1       9.487  -6.258  24.039  0.00  0.00    -0.503 OA
ATOM     21  H   UNL     1      10.201  -5.782  23.583  0.00  0.00    +0.292 HD
ENDBRANCH  15  20
ENDBRANCH  11  12
BRANCH  10  22
ATOM     22  O   UNL     1       2.695   0.925  27.669  0.00  0.00    -0.506 OA
ATOM     23  H   UNL     1       2.666   1.179  28.606  0.00  0.00    +0.292 HD
ENDBRANCH  10  22
BRANCH   7  24
ATOM     24  O   UNL     1       5.891   3.833  25.720  0.00  0.00    -0.461 OA
BRANCH  24  25
ATOM     25  C   UNL     1       5.493   4.251  24.400  0.00  0.00    +0.339 C 
ATOM     26  O   UNL     1       5.957   3.371  23.370  0.00  0.00    -0.331 OA
ATOM     27  C   UNL     1       7.393   3.320  23.266  0.00  0.00    +0.179 C 
ATOM     28  C   UNL     1       7.923   4.704  22.879  0.00  0.00    +0.177 C 
ATOM     29  C   UNL     1       7.482   5.755  23.911  0.00  0.00    +0.180 C 
ATOM     30  C   UNL     1       5.960   5.703  24.134  0.00  0.00    +0.214 C 
BRANCH  30  31
ATOM     31  O   UNL     1       5.552   6.598  25.179  0.00  0.00    -0.383 OA
ATOM     32  H   UNL     1       6.235   7.282  25.294  0.00  0.00    +0.210 HD
ENDBRANCH  30  31
BRANCH  29  33
ATOM     33  O   UNL     1       7.891   7.054  23.455  0.00  0.00    -0.386 OA
ATOM     34  H   UNL     1       8.235   6.948  22.546  0.00  0.00    +0.210 HD
ENDBRANCH  29  33
BRANCH  28  35
ATOM     35  O   UNL     1       7.441   5.104  21.584  0.00  0.00    -0.386 OA
ATOM     36  H   UNL     1       6.480   5.264  21.651  0.00  0.00    +0.210 HD
ENDBRANCH  28  35
BRANCH  27  37
ATOM     37  C   UNL     1       7.770   2.261  22.218  0.00  0.00    +0.190 C 
BRANCH  37  38
ATOM     38  O   UNL     1       8.933   2.650  21.486  0.00  0.00    -0.392 OA
ATOM     39  H   UNL     1       9.711   2.243  21.904  0.00  0.00    +0.210 HD
ENDBRANCH  37  38
ENDBRANCH  27  37
ENDBRANCH  24  25
ENDBRANCH   7  24
BRANCH   1  40
ATOM     40  O   UNL     1       5.001  -3.614  27.873  0.00  0.00    -0.453 OA
BRANCH  40  42
ATOM     41  C   UNL     1       2.686  -4.639  27.781  0.00  0.00    +0.218 C 
ATOM     42  C   UNL     1       4.077  -4.408  27.096  0.00  0.00    +0.340 C 
ATOM     43  O   UNL     1       4.698  -5.670  26.781  0.00  0.00    -0.331 OA
ATOM     44  C   UNL     1       4.927  -6.553  27.891  0.00  0.00    +0.179 C 
ATOM     45  C   UNL     1       3.640  -6.836  28.681  0.00  0.00    +0.177 C 
ATOM     46  C   UNL     1       2.895  -5.539  29.011  0.00  0.00    +0.180 C 
BRANCH  46  47
ATOM     47  O   UNL     1       1.638  -5.882  29.622  0.00  0.00    -0.386 OA
ATOM     48  H   UNL     1       1.473  -6.817  29.382  0.00  0.00    +0.210 HD
ENDBRANCH  46  47
BRANCH  45  49
ATOM     49  O   UNL     1       3.947  -7.546  29.893  0.00  0.00    -0.386 OA
ATOM     50  H   UNL     1       4.079  -8.483  29.648  0.00  0.00    +0.210 HD
ENDBRANCH  45  49
BRANCH  41  51
ATOM     51  O   UNL     1       1.659  -5.247  26.934  0.00  0.00    -0.359 OA
BRANCH  51  58
ATOM     52  C   UNL     1       0.444  -4.336  24.284  0.00  0.00    +0.041 C 
ATOM     53  C   UNL     1       1.869  -4.864  24.442  0.00  0.00    +0.150 C 
ATOM     54  O   UNL     1       2.359  -5.447  23.226  0.00  0.00    -0.343 OA
ATOM     55  C   UNL     1       1.815  -6.714  22.895  0.00  0.00    +0.279 C 
ATOM     56  C   UNL     1       2.070  -7.707  24.038  0.00  0.00    +0.201 C 
ATOM     57  C   UNL     1       1.502  -7.161  25.361  0.00  0.00    +0.179 C 
ATOM     58  C   UNL     1       2.118  -5.774  25.668  0.00  0.00    +0.179 C 
BRANCH  57  59
ATOM     59  O   UNL     1       1.795  -8.086  26.414  0.00  0.00    -0.386 OA
ATOM     60  H   UNL     1       1.773  -8.979  26.020  0.00  0.00    +0.210 HD
ENDBRANCH  57  59
BRANCH  56  61
ATOM     61  O   UNL     1       3.501  -7.908  24.182  0.00  0.00    -0.384 OA
ATOM     62  H   UNL     1       3.947  -7.211  23.660  0.00  0.00    +0.210 HD
ENDBRANCH  56  61
BRANCH  55  63
ATOM     63  O   UNL     1       2.468  -7.145  21.707  0.00  0.00    -0.365 OA
ATOM     64  H   UNL     1       3.299  -7.565  21.988  0.00  0.00    +0.213 HD
ENDBRANCH  55  63
ENDBRANCH  51  58
ENDBRANCH  41  51
BRANCH  44  65
ATOM     65  C   UNL     1       6.098  -6.109  28.796  0.00  0.00    +0.190 C 
BRANCH  65  66
ATOM     66  O   UNL     1       6.713  -7.193  29.486  0.00  0.00    -0.392 OA
ATOM     67  H   UNL     1       6.917  -6.868  30.389  0.00  0.00    +0.210 HD
ENDBRANCH  65  66
ENDBRANCH  44  65
ENDBRANCH  40  42
ENDBRANCH   1  40
TORSDOF 22
ENDMDL
MODEL 4
REMARK VINA RESULT:      -5.9      1.085      2.007
REMARK  Name = 
REMARK  23 active torsions:
REMARK  status: ('A' for Active; 'I' for Inactive)
REMARK    1  A    between atoms: C_1  and  C_2
REMARK    2  A    between atoms: C_3  and  O_11
REMARK    3  A    between atoms: C_4  and  O_10
REMARK    4  A    between atoms: C_5  and  O_9
REMARK    5  A    between atoms: C_6  and  O_8
REMARK    6  A    between atoms: O_11  and  C_12
REMARK    7  A    between atoms: C_13  and  O_54
REMARK    8  A    between atoms: C_14  and  O_53
REMARK    9  A    between atoms: C_15  and  C_51
REMARK   10  A    between atoms: C_17  and  O_18
REMARK   11  A    between atoms: O_18  and  C_19
REMARK   12  A    between atoms: C_20  and  C_43
REMARK   13  A    between atoms: C_24  and  O_31
REMARK   14  A    between atoms: C_26  and  O_30
REMARK   15  A    between atoms: O_31  and  C_32
REMARK   16  A    between atoms: C_33  and  O_42
REMARK   17  A    between atoms: C_34  and  O_41
REMARK   18  A    between atoms: C_35  and  O_40
REMARK   19  A    between atoms: C_36  and  C_38
REMARK   20  A    between atoms: C_38  and  O_39
REMARK   21  A    between atoms: C_45  and  O_50
REMARK   22  A    between atoms: C_46  and  O_49
REMARK   23  A    between atoms: C_51  and  O_52
REMARK                            x       y       z     vdW  Elec       q    Type
REMARK                         _______ _______ _______ _____ _____    ______ ____
ROOT
ATOM      1  C   UNL     1       7.060  -0.216  25.132  0.00  0.00    +0.214 A 
ATOM      2  C   UNL     1       7.332  -1.350  24.215  0.00  0.00    +0.238 A 
ATOM      3  O   UNL     1       8.478  -1.671  23.927  0.00  0.00    -0.283 OA
ATOM      4  C   UNL     1       6.193  -2.171  23.818  0.00  0.00    +0.109 A 
ATOM      5  C   UNL     1       5.213  -2.313  24.778  0.00  0.00    +0.147 A 
ATOM      6  C   UNL     1       4.309  -3.369  24.679  0.00  0.00    +0.093 A 
ATOM      7  C   UNL     1       4.332  -4.220  23.569  0.00  0.00    +0.131 A 
ATOM      8  C   UNL     1       5.207  -3.942  22.509  0.00  0.00    +0.092 A 
ATOM      9  O   UNL     1       5.110  -1.457  25.844  0.00  0.00    -0.451 OA
ATOM     10  C   UNL     1       6.153  -2.928  22.647  0.00  0.00    +0.135 A 
ATOM     11  C   UNL     1       5.942  -0.327  25.892  0.00  0.00    +0.181 A 
ENDROOT
BRANCH  11  12
ATOM     12  C   UNL     1       5.485   0.668  26.898  0.00  0.00    +0.025 A 
ATOM     13  C   UNL     1       6.121   0.823  28.139  0.00  0.00    +0.015 A 
ATOM     14  C   UNL     1       5.679   1.762  29.087  0.00  0.00    +0.050 A 
ATOM     15  C   UNL     1       4.613   2.590  28.767  0.00  0.00    +0.158 A 
ATOM     16  C   UNL     1       3.996   2.495  27.527  0.00  0.00    +0.159 A 
ATOM     17  C   UNL     1       4.416   1.537  26.599  0.00  0.00    +0.060 A 
BRANCH  16  18
ATOM     18  O   UNL     1       2.978   3.363  27.254  0.00  0.00    -0.503 OA
ATOM     19  H   UNL     1       2.401   3.423  28.034  0.00  0.00    +0.292 HD
ENDBRANCH  16  18
BRANCH  15  20
ATOM     20  O   UNL     1       4.183   3.514  29.676  0.00  0.00    -0.503 OA
ATOM     21  H   UNL     1       3.635   4.128  29.159  0.00  0.00    +0.292 HD
ENDBRANCH  15  20
ENDBRANCH  11  12
BRANCH  10  22
ATOM     22  O   UNL     1       7.017  -2.639  21.636  0.00  0.00    -0.506 OA
ATOM     23  H   UNL     1       6.550  -2.472  20.801  0.00  0.00    +0.292 HD
ENDBRANCH  10  22
BRANCH   7  24
ATOM     24  O   UNL     1       3.534  -5.326  23.402  0.00  0.00    -0.461 OA
BRANCH  24  25
ATOM     25  C   UNL     1       2.362  -5.396  24.238  0.00  0.00    +0.339 C 
ATOM     26  O   UNL     1       2.673  -5.591  25.622  0.00  0.00    -0.331 OA
ATOM     27  C   UNL     1       3.327  -6.847  25.889  0.00  0.00    +0.179 C 
ATOM     28  C   UNL     1       2.385  -7.998  25.523  0.00  0.00    +0.177 C 
ATOM     29  C   UNL     1       1.963  -7.898  24.048  0.00  0.00    +0.180 C 
ATOM     30  C   UNL     1       1.405  -6.500  23.728  0.00  0.00    +0.214 C 
BRANCH  30  31
ATOM     31  O   UNL     1       1.118  -6.358  22.329  0.00  0.00    -0.383 OA
ATOM     32  H   UNL     1       0.693  -5.496  22.179  0.00  0.00    +0.210 HD
ENDBRANCH  30  31
BRANCH  29  33
ATOM     33  O   UNL     1       0.989  -8.917  23.773  0.00  0.00    -0.386 OA
ATOM     34  H   UNL     1       0.154  -8.464  23.540  0.00  0.00    +0.210 HD
ENDBRANCH  29  33
BRANCH  28  35
ATOM     35  O   UNL     1       1.199  -7.981  26.339  0.00  0.00    -0.386 OA
ATOM     36  H   UNL     1       0.481  -7.562  25.827  0.00  0.00    +0.210 HD
ENDBRANCH  28  35
BRANCH  27  37
ATOM     37  C   UNL     1       3.715  -6.889  27.375  0.00  0.00    +0.190 C 
BRANCH  37  38
ATOM     38  O   UNL     1       5.061  -7.334  27.545  0.00  0.00    -0.392 OA
ATOM     39  H   UNL     1       5.536  -6.683  28.088  0.00  0.00    +0.210 HD
ENDBRANCH  37  38
ENDBRANCH  27  37
ENDBRANCH  24  25
ENDBRANCH   7  24
BRANCH   1  40
ATOM     40  O   UNL     1       8.026   0.768  25.289  0.00  0.00    -0.453 OA
BRANCH  40  42
ATOM     41  C   UNL     1       7.049   2.122  23.384  0.00  0.00    +0.218 C 
ATOM     42  C   UNL     1       7.656   2.086  24.829  0.00  0.00    +0.340 C 
ATOM     43  O   UNL     1       8.806   2.950  24.913  0.00  0.00    -0.331 OA
ATOM     44  C   UNL     1       9.882   2.654  24.008  0.00  0.00    +0.179 C 
ATOM     45  C   UNL     1       9.414   2.619  22.545  0.00  0.00    +0.177 C 
ATOM     46  C   UNL     1       8.159   1.757  22.384  0.00  0.00    +0.180 C 
BRANCH  46  47
ATOM     47  O   UNL     1       7.696   1.881  21.027  0.00  0.00    -0.386 OA
ATOM     48  H   UNL     1       7.160   2.700  21.004  0.00  0.00    +0.210 HD
ENDBRANCH  46  47
BRANCH  45  49
ATOM     49  O   UNL     1      10.464   2.118  21.700  0.00  0.00    -0.386 OA
ATOM     50  H   UNL     1      10.608   1.183  21.948  0.00  0.00    +0.210 HD
ENDBRANCH  45  49
BRANCH  41  51
ATOM     51  O   UNL     1       6.465   3.400  22.977  0.00  0.00    -0.359 OA
BRANCH  51  58
ATOM     52  C   UNL     1       3.551   3.522  22.067  0.00  0.00    +0.041 C 
ATOM     53  C   UNL     1       3.995   3.411  23.525  0.00  0.00    +0.150 C 
ATOM     54  O   UNL     1       3.018   3.959  24.423  0.00  0.00    -0.343 OA
ATOM     55  C   UNL     1       2.938   5.374  24.446  0.00  0.00    +0.279 C 
ATOM     56  C   UNL     1       4.307   5.970  24.808  0.00  0.00    +0.201 C 
ATOM     57  C   UNL     1       5.387   5.466  23.831  0.00  0.00    +0.179 C 
ATOM     58  C   UNL     1       5.423   3.919  23.835  0.00  0.00    +0.179 C 
BRANCH  57  59
ATOM     59  O   UNL     1       6.657   6.000  24.221  0.00  0.00    -0.386 OA
ATOM     60  H   UNL     1       6.832   5.677  25.127  0.00  0.00    +0.210 HD
ENDBRANCH  57  59
BRANCH  56  61
ATOM     61  O   UNL     1       4.660   5.563  26.157  0.00  0.00    -0.384 OA
ATOM     62  H   UNL     1       3.850   5.207  26.574  0.00  0.00    +0.210 HD
ENDBRANCH  56  61
BRANCH  55  63
ATOM     63  O   UNL     1       1.971   5.717  25.432  0.00  0.00    -0.365 OA
ATOM     64  H   UNL     1       1.224   5.106  25.306  0.00  0.00    +0.213 HD
ENDBRANCH  55  63
ENDBRANCH  51  58
ENDBRANCH  41  51
BRANCH  44  65
ATOM     65  C   UNL     1      10.691   1.399  24.407  0.00  0.00    +0.190 C 
BRANCH  65  66
ATOM     66  O   UNL     1      10.382   0.259  23.610  0.00  0.00    -0.392 OA
ATOM     67  H   UNL     1       9.405   0.241  23.518  0.00  0.00    +0.210 HD
ENDBRANCH  65  66
ENDBRANCH  44  65
ENDBRANCH  40  42
ENDBRANCH   1  40
TORSDOF 22
ENDMDL
MODEL 5
REMARK VINA RESULT:      -5.7      2.095      8.694
REMARK  Name = 
REMARK  23 active torsions:
REMARK  status: ('A' for Active; 'I' for Inactive)
REMARK    1  A    between atoms: C_1  and  C_2
REMARK    2  A    between atoms: C_3  and  O_11
REMARK    3  A    between atoms: C_4  and  O_10
REMARK    4  A    between atoms: C_5  and  O_9
REMARK    5  A    between atoms: C_6  and  O_8
REMARK    6  A    between atoms: O_11  and  C_12
REMARK    7  A    between atoms: C_13  and  O_54
REMARK    8  A    between atoms: C_14  and  O_53
REMARK    9  A    between atoms: C_15  and  C_51
REMARK   10  A    between atoms: C_17  and  O_18
REMARK   11  A    between atoms: O_18  and  C_19
REMARK   12  A    between atoms: C_20  and  C_43
REMARK   13  A    between atoms: C_24  and  O_31
REMARK   14  A    between atoms: C_26  and  O_30
REMARK   15  A    between atoms: O_31  and  C_32
REMARK   16  A    between atoms: C_33  and  O_42
REMARK   17  A    between atoms: C_34  and  O_41
REMARK   18  A    between atoms: C_35  and  O_40
REMARK   19  A    between atoms: C_36  and  C_38
REMARK   20  A    between atoms: C_38  and  O_39
REMARK   21  A    between atoms: C_45  and  O_50
REMARK   22  A    between atoms: C_46  and  O_49
REMARK   23  A    between atoms: C_51  and  O_52
REMARK                            x       y       z     vdW  Elec       q    Type
REMARK                         _______ _______ _______ _____ _____    ______ ____
ROOT
ATOM      1  C   UNL     1       6.686  -1.859  26.527  0.00  0.00    +0.214 A 
ATOM      2  C   UNL     1       7.117  -0.475  26.842  0.00  0.00    +0.238 A 
ATOM      3  O   UNL     1       8.244  -0.085  26.565  0.00  0.00    -0.283 OA
ATOM      4  C   UNL     1       6.095   0.446  27.327  0.00  0.00    +0.109 A 
ATOM      5  C   UNL     1       4.834   0.246  26.804  0.00  0.00    +0.147 A 
ATOM      6  C   UNL     1       3.899   1.277  26.865  0.00  0.00    +0.093 A 
ATOM      7  C   UNL     1       4.201   2.468  27.534  0.00  0.00    +0.131 A 
ATOM      8  C   UNL     1       5.414   2.577  28.228  0.00  0.00    +0.092 A 
ATOM      9  O   UNL     1       4.475  -0.933  26.204  0.00  0.00    -0.451 OA
ATOM     10  C   UNL     1       6.370   1.571  28.103  0.00  0.00    +0.135 A 
ATOM     11  C   UNL     1       5.369  -2.015  26.238  0.00  0.00    +0.181 A 
ENDROOT
BRANCH  11  12
ATOM     12  C   UNL     1       4.718  -3.299  25.866  0.00  0.00    +0.025 A 
ATOM     13  C   UNL     1       4.525  -4.335  26.792  0.00  0.00    +0.015 A 
ATOM     14  C   UNL     1       3.914  -5.548  26.432  0.00  0.00    +0.050 A 
ATOM     15  C   UNL     1       3.446  -5.706  25.135  0.00  0.00    +0.158 A 
ATOM     16  C   UNL     1       3.576  -4.679  24.211  0.00  0.00    +0.159 A 
ATOM     17  C   UNL     1       4.215  -3.486  24.562  0.00  0.00    +0.060 A 
BRANCH  16  18
ATOM     18  O   UNL     1       3.061  -4.878  22.961  0.00  0.00    -0.503 OA
ATOM     19  H   UNL     1       2.113  -5.076  23.042  0.00  0.00    +0.292 HD
ENDBRANCH  16  18
BRANCH  15  20
ATOM     20  O   UNL     1       2.839  -6.877  24.778  0.00  0.00    -0.503 OA
ATOM     21  H   UNL     1       3.207  -7.085  23.903  0.00  0.00    +0.292 HD
ENDBRANCH  15  20
ENDBRANCH  11  12
BRANCH  10  22
ATOM     22  O   UNL     1       7.558   1.653  28.762  0.00  0.00    -0.506 OA
ATOM     23  H   UNL     1       7.451   1.506  29.716  0.00  0.00    +0.292 HD
ENDBRANCH  10  22
BRANCH   7  24
ATOM     24  O   UNL     1       3.381   3.570  27.599  0.00  0.00    -0.461 OA
BRANCH  24  25
ATOM     25  C   UNL     1       2.663   3.899  26.394  0.00  0.00    +0.339 C 
ATOM     26  O   UNL     1       3.489   4.510  25.398  0.00  0.00    -0.331 OA
ATOM     27  C   UNL     1       4.025   5.785  25.805  0.00  0.00    +0.179 C 
ATOM     28  C   UNL     1       2.874   6.770  26.031  0.00  0.00    +0.177 C 
ATOM     29  C   UNL     1       1.897   6.220  27.083  0.00  0.00    +0.180 C 
ATOM     30  C   UNL     1       1.444   4.794  26.724  0.00  0.00    +0.214 C 
BRANCH  30  31
ATOM     31  O   UNL     1       0.626   4.228  27.758  0.00  0.00    -0.383 OA
ATOM     32  H   UNL     1      -0.144   4.805  27.904  0.00  0.00    +0.210 HD
ENDBRANCH  30  31
BRANCH  29  33
ATOM     33  O   UNL     1       0.771   7.108  27.181  0.00  0.00    -0.386 OA
ATOM     34  H   UNL     1       0.906   7.662  27.976  0.00  0.00    +0.210 HD
ENDBRANCH  29  33
BRANCH  28  35
ATOM     35  O   UNL     1       2.145   7.010  24.813  0.00  0.00    -0.386 OA
ATOM     36  H   UNL     1       1.302   6.520  24.859  0.00  0.00    +0.210 HD
ENDBRANCH  28  35
BRANCH  27  37
ATOM     37  C   UNL     1       4.983   6.283  24.713  0.00  0.00    +0.190 C 
BRANCH  37  38
ATOM     38  O   UNL     1       4.544   5.878  23.416  0.00  0.00    -0.392 OA
ATOM     39  H   UNL     1       4.888   6.509  22.762  0.00  0.00    +0.210 HD
ENDBRANCH  37  38
ENDBRANCH  27  37
ENDBRANCH  24  25
ENDBRANCH   7  24
BRANCH   1  40
ATOM     40  O   UNL     1       7.650  -2.845  26.368  0.00  0.00    -0.453 OA
BRANCH  40  42
ATOM     41  C   UNL     1       7.961  -2.177  23.944  0.00  0.00    +0.218 C 
ATOM     42  C   UNL     1       8.601  -2.622  25.304  0.00  0.00    +0.340 C 
ATOM     43  O   UNL     1       9.387  -3.817  25.124  0.00  0.00    -0.331 OA
ATOM     44  C   UNL     1       8.685  -4.958  24.606  0.00  0.00    +0.179 C 
ATOM     45  C   UNL     1       7.972  -4.648  23.281  0.00  0.00    +0.177 C 
ATOM     46  C   UNL     1       7.153  -3.358  23.380  0.00  0.00    +0.180 C 
BRANCH  46  47
ATOM     47  O   UNL     1       6.631  -3.052  22.075  0.00  0.00    -0.386 OA
ATOM     48  H   UNL     1       7.225  -2.367  21.705  0.00  0.00    +0.210 HD
ENDBRANCH  46  47
BRANCH  45  49
ATOM     49  O   UNL     1       7.118  -5.743  22.908  0.00  0.00    -0.386 OA
ATOM     50  H   UNL     1       7.157  -5.815  21.934  0.00  0.00    +0.210 HD
ENDBRANCH  45  49
BRANCH  41  51
ATOM     51  O   UNL     1       8.906  -1.734  22.918  0.00  0.00    -0.359 OA
BRANCH  51  58
ATOM     52  C   UNL     1      10.767   0.235  24.330  0.00  0.00    +0.041 C 
ATOM     53  C   UNL     1      10.196   0.443  22.928  0.00  0.00    +0.150 C 
ATOM     54  O   UNL     1      10.106   1.835  22.590  0.00  0.00    -0.343 OA
ATOM     55  C   UNL     1       9.066   2.552  23.232  0.00  0.00    +0.279 C 
ATOM     56  C   UNL     1       7.711   1.898  22.925  0.00  0.00    +0.201 C 
ATOM     57  C   UNL     1       7.728   0.412  23.332  0.00  0.00    +0.179 C 
ATOM     58  C   UNL     1       8.887  -0.320  22.613  0.00  0.00    +0.179 C 
BRANCH  57  59
ATOM     59  O   UNL     1       6.470  -0.181  22.991  0.00  0.00    -0.386 OA
ATOM     60  H   UNL     1       6.108   0.335  22.244  0.00  0.00    +0.210 HD
ENDBRANCH  57  59
BRANCH  56  61
ATOM     61  O   UNL     1       7.449   1.997  21.500  0.00  0.00    -0.384 OA
ATOM     62  H   UNL     1       6.670   1.437  21.308  0.00  0.00    +0.210 HD
ENDBRANCH  56  61
BRANCH  55  63
ATOM     63  O   UNL     1       9.103   3.880  22.722  0.00  0.00    -0.365 OA
ATOM     64  H   UNL     1       9.855   4.318  23.158  0.00  0.00    +0.213 HD
ENDBRANCH  55  63
ENDBRANCH  51  58
ENDBRANCH  41  51
BRANCH  44  65
ATOM     65  C   UNL     1       7.754  -5.627  25.643  0.00  0.00    +0.190 C 
BRANCH  65  66
ATOM     66  O   UNL     1       8.306  -5.649  26.956  0.00  0.00    -0.392 OA
ATOM     67  H   UNL     1       9.248  -5.392  26.866  0.00  0.00    +0.210 HD
ENDBRANCH  65  66
ENDBRANCH  44  65
ENDBRANCH  40  42
ENDBRANCH   1  40
TORSDOF 22
ENDMDL
MODEL 6
REMARK VINA RESULT:      -5.6      2.939      5.897
REMARK  Name = 
REMARK  23 active torsions:
REMARK  status: ('A' for Active; 'I' for Inactive)
REMARK    1  A    between atoms: C_1  and  C_2
REMARK    2  A    between atoms: C_3  and  O_11
REMARK    3  A    between atoms: C_4  and  O_10
REMARK    4  A    between atoms: C_5  and  O_9
REMARK    5  A    between atoms: C_6  and  O_8
REMARK    6  A    between atoms: O_11  and  C_12
REMARK    7  A    between atoms: C_13  and  O_54
REMARK    8  A    between atoms: C_14  and  O_53
REMARK    9  A    between atoms: C_15  and  C_51
REMARK   10  A    between atoms: C_17  and  O_18
REMARK   11  A    between atoms: O_18  and  C_19
REMARK   12  A    between atoms: C_20  and  C_43
REMARK   13  A    between atoms: C_24  and  O_31
REMARK   14  A    between atoms: C_26  and  O_30
REMARK   15  A    between atoms: O_31  and  C_32
REMARK   16  A    between atoms: C_33  and  O_42
REMARK   17  A    between atoms: C_34  and  O_41
REMARK   18  A    between atoms: C_35  and  O_40
REMARK   19  A    between atoms: C_36  and  C_38
REMARK   20  A    between atoms: C_38  and  O_39
REMARK   21  A    between atoms: C_45  and  O_50
REMARK   22  A    between atoms: C_46  and  O_49
REMARK   23  A    between atoms: C_51  and  O_52
REMARK                            x       y       z     vdW  Elec       q    Type
REMARK                         _______ _______ _______ _____ _____    ______ ____
ROOT
ATOM      1  C   UNL     1       7.103   2.996  24.028  0.00  0.00    +0.214 A 
ATOM      2  C   UNL     1       6.117   1.910  24.245  0.00  0.00    +0.238 A 
ATOM      3  O   UNL     1       5.099   1.834  23.569  0.00  0.00    -0.283 OA
ATOM      4  C   UNL     1       6.494   0.844  25.168  0.00  0.00    +0.109 A 
ATOM      5  C   UNL     1       7.838   0.534  25.182  0.00  0.00    +0.147 A 
ATOM      6  C   UNL     1       8.249  -0.697  25.691  0.00  0.00    +0.093 A 
ATOM      7  C   UNL     1       7.320  -1.570  26.269  0.00  0.00    +0.131 A 
ATOM      8  C   UNL     1       5.991  -1.153  26.423  0.00  0.00    +0.092 A 
ATOM      9  O   UNL     1       8.788   1.392  24.691  0.00  0.00    -0.451 OA
ATOM     10  C   UNL     1       5.576   0.047  25.850  0.00  0.00    +0.135 A 
ATOM     11  C   UNL     1       8.397   2.677  24.281  0.00  0.00    +0.181 A 
ENDROOT
BRANCH  11  12
ATOM     12  C   UNL     1       9.557   3.591  24.108  0.00  0.00    +0.025 A 
ATOM     13  C   UNL     1      10.698   3.222  23.380  0.00  0.00    +0.015 A 
ATOM     14  C   UNL     1      11.793   4.089  23.226  0.00  0.00    +0.050 A 
ATOM     15  C   UNL     1      11.723   5.363  23.771  0.00  0.00    +0.158 A 
ATOM     16  C   UNL     1      10.586   5.776  24.452  0.00  0.00    +0.159 A 
ATOM     17  C   UNL     1       9.512   4.899  24.633  0.00  0.00    +0.060 A 
BRANCH  16  18
ATOM     18  O   UNL     1      10.560   7.054  24.931  0.00  0.00    -0.503 OA
ATOM     19  H   UNL     1       9.641   7.373  24.921  0.00  0.00    +0.292 HD
ENDBRANCH  16  18
BRANCH  15  20
ATOM     20  O   UNL     1      12.777   6.219  23.616  0.00  0.00    -0.503 OA
ATOM     21  H   UNL     1      12.367   7.079  23.427  0.00  0.00    +0.292 HD
ENDBRANCH  15  20
ENDBRANCH  11  12
BRANCH  10  22
ATOM     22  O   UNL     1       4.290   0.474  25.980  0.00  0.00    -0.506 OA
ATOM     23  H   UNL     1       4.152   1.335  25.553  0.00  0.00    +0.292 HD
ENDBRANCH  10  22
BRANCH   7  24
ATOM     24  O   UNL     1       7.604  -2.829  26.740  0.00  0.00    -0.461 OA
BRANCH  24  25
ATOM     25  C   UNL     1       8.056  -3.786  25.762  0.00  0.00    +0.339 C 
ATOM     26  O   UNL     1       7.671  -3.445  24.425  0.00  0.00    -0.331 OA
ATOM     27  C   UNL     1       6.244  -3.439  24.227  0.00  0.00    +0.179 C 
ATOM     28  C   UNL     1       5.694  -4.850  24.454  0.00  0.00    +0.177 C 
ATOM     29  C   UNL     1       6.052  -5.344  25.866  0.00  0.00    +0.180 C 
ATOM     30  C   UNL     1       7.562  -5.205  26.132  0.00  0.00    +0.214 C 
BRANCH  30  31
ATOM     31  O   UNL     1       7.889  -5.553  27.484  0.00  0.00    -0.383 OA
ATOM     32  H   UNL     1       7.148  -5.305  28.064  0.00  0.00    +0.210 HD
ENDBRANCH  30  31
BRANCH  29  33
ATOM     33  O   UNL     1       5.629  -6.710  26.002  0.00  0.00    -0.386 OA
ATOM     34  H   UNL     1       5.725  -6.951  26.944  0.00  0.00    +0.210 HD
ENDBRANCH  29  33
BRANCH  28  35
ATOM     35  O   UNL     1       6.229  -5.780  23.495  0.00  0.00    -0.386 OA
ATOM     36  H   UNL     1       7.196  -5.650  23.450  0.00  0.00    +0.210 HD
ENDBRANCH  28  35
BRANCH  27  37
ATOM     37  C   UNL     1       5.952  -2.946  22.801  0.00  0.00    +0.190 C 
BRANCH  37  38
ATOM     38  O   UNL     1       6.031  -1.523  22.720  0.00  0.00    -0.392 OA
ATOM     39  H   UNL     1       5.458  -1.222  21.996  0.00  0.00    +0.210 HD
ENDBRANCH  37  38
ENDBRANCH  27  37
ENDBRANCH  24  25
ENDBRANCH   7  24
BRANCH   1  40
ATOM     40  O   UNL     1       6.686   4.172  23.422  0.00  0.00    -0.453 OA
BRANCH  40  42
ATOM     41  C   UNL     1       4.351   4.893  24.088  0.00  0.00    +0.218 C 
ATOM     42  C   UNL     1       5.901   5.058  24.251  0.00  0.00    +0.340 C 
ATOM     43  O   UNL     1       6.294   6.418  23.982  0.00  0.00    -0.331 OA
ATOM     44  C   UNL     1       5.961   6.923  22.679  0.00  0.00    +0.179 C 
ATOM     45  C   UNL     1       4.462   6.787  22.371  0.00  0.00    +0.177 C 
ATOM     46  C   UNL     1       3.958   5.375  22.681  0.00  0.00    +0.180 C 
BRANCH  46  47
ATOM     47  O   UNL     1       2.529   5.356  22.507  0.00  0.00    -0.386 OA
ATOM     48  H   UNL     1       2.277   6.275  22.285  0.00  0.00    +0.210 HD
ENDBRANCH  46  47
BRANCH  45  49
ATOM     49  O   UNL     1       4.207   7.106  20.993  0.00  0.00    -0.386 OA
ATOM     50  H   UNL     1       3.593   6.425  20.652  0.00  0.00    +0.210 HD
ENDBRANCH  45  49
BRANCH  41  51
ATOM     51  O   UNL     1       3.535   5.614  25.066  0.00  0.00    -0.359 OA
BRANCH  51  58
ATOM     52  C   UNL     1       1.618   3.244  25.262  0.00  0.00    +0.041 C 
ATOM     53  C   UNL     1       2.809   3.468  26.193  0.00  0.00    +0.150 C 
ATOM     54  O   UNL     1       2.608   2.852  27.473  0.00  0.00    -0.343 OA
ATOM     55  C   UNL     1       1.685   3.507  28.327  0.00  0.00    +0.279 C 
ATOM     56  C   UNL     1       2.127   4.958  28.559  0.00  0.00    +0.201 C 
ATOM     57  C   UNL     1       2.293   5.691  27.214  0.00  0.00    +0.179 C 
ATOM     58  C   UNL     1       3.300   4.929  26.318  0.00  0.00    +0.179 C 
BRANCH  57  59
ATOM     59  O   UNL     1       2.750   7.026  27.462  0.00  0.00    -0.386 OA
ATOM     60  H   UNL     1       3.634   7.102  27.053  0.00  0.00    +0.210 HD
ENDBRANCH  57  59
BRANCH  56  61
ATOM     61  O   UNL     1       3.398   4.961  29.262  0.00  0.00    -0.384 OA
ATOM     62  H   UNL     1       3.417   4.166  29.832  0.00  0.00    +0.210 HD
ENDBRANCH  56  61
BRANCH  55  63
ATOM     63  O   UNL     1       1.676   2.787  29.554  0.00  0.00    -0.365 OA
ATOM     64  H   UNL     1       2.110   1.935  29.375  0.00  0.00    +0.213 HD
ENDBRANCH  55  63
ENDBRANCH  51  58
ENDBRANCH  41  51
BRANCH  44  65
ATOM     65  C   UNL     1       6.856   6.355  21.555  0.00  0.00    +0.190 C 
BRANCH  65  66
ATOM     66  O   UNL     1       8.239   6.344  21.894  0.00  0.00    -0.392 OA
ATOM     67  H   UNL     1       8.668   7.030  21.338  0.00  0.00    +0.210 HD
ENDBRANCH  65  66
ENDBRANCH  44  65
ENDBRANCH  40  42
ENDBRANCH   1  40
TORSDOF 22
ENDMDL
MODEL 7
REMARK VINA RESULT:      -5.6      2.573      9.981
REMARK  Name = 
REMARK  23 active torsions:
REMARK  status: ('A' for Active; 'I' for Inactive)
REMARK    1  A    between atoms: C_1  and  C_2
REMARK    2  A    between atoms: C_3  and  O_11
REMARK    3  A    between atoms: C_4  and  O_10
REMARK    4  A    between atoms: C_5  and  O_9
REMARK    5  A    between atoms: C_6  and  O_8
REMARK    6  A    between atoms: O_11  and  C_12
REMARK    7  A    between atoms: C_13  and  O_54
REMARK    8  A    between atoms: C_14  and  O_53
REMARK    9  A    between atoms: C_15  and  C_51
REMARK   10  A    between atoms: C_17  and  O_18
REMARK   11  A    between atoms: O_18  and  C_19
REMARK   12  A    between atoms: C_20  and  C_43
REMARK   13  A    between atoms: C_24  and  O_31
REMARK   14  A    between atoms: C_26  and  O_30
REMARK   15  A    between atoms: O_31  and  C_32
REMARK   16  A    between atoms: C_33  and  O_42
REMARK   17  A    between atoms: C_34  and  O_41
REMARK   18  A    between atoms: C_35  and  O_40
REMARK   19  A    between atoms: C_36  and  C_38
REMARK   20  A    between atoms: C_38  and  O_39
REMARK   21  A    between atoms: C_45  and  O_50
REMARK   22  A    between atoms: C_46  and  O_49
REMARK   23  A    between atoms: C_51  and  O_52
REMARK                            x       y       z     vdW  Elec       q    Type
REMARK                         _______ _______ _______ _____ _____    ______ ____
ROOT
ATOM      1  C   UNL     1       5.397  -2.122  27.357  0.00  0.00    +0.214 A 
ATOM      2  C   UNL     1       4.596  -0.918  27.687  0.00  0.00    +0.238 A 
ATOM      3  O   UNL     1       3.860  -0.895  28.666  0.00  0.00    -0.283 OA
ATOM      4  C   UNL     1       4.856   0.288  26.908  0.00  0.00    +0.109 A 
ATOM      5  C   UNL     1       6.166   0.451  26.506  0.00  0.00    +0.147 A 
ATOM      6  C   UNL     1       6.611   1.717  26.128  0.00  0.00    +0.093 A 
ATOM      7  C   UNL     1       5.718   2.792  26.066  0.00  0.00    +0.131 A 
ATOM      8  C   UNL     1       4.353   2.565  26.288  0.00  0.00    +0.092 A 
ATOM      9  O   UNL     1       7.054  -0.593  26.483  0.00  0.00    -0.451 OA
ATOM     10  C   UNL     1       3.928   1.314  26.733  0.00  0.00    +0.135 A 
ATOM     11  C   UNL     1       6.588  -1.890  26.752  0.00  0.00    +0.181 A 
ENDROOT
BRANCH  11  12
ATOM     12  C   UNL     1       7.568  -2.935  26.355  0.00  0.00    +0.025 A 
ATOM     13  C   UNL     1       7.573  -4.213  26.933  0.00  0.00    +0.015 A 
ATOM     14  C   UNL     1       8.507  -5.194  26.557  0.00  0.00    +0.050 A 
ATOM     15  C   UNL     1       9.418  -4.905  25.552  0.00  0.00    +0.158 A 
ATOM     16  C   UNL     1       9.404  -3.667  24.925  0.00  0.00    +0.159 A 
ATOM     17  C   UNL     1       8.497  -2.681  25.325  0.00  0.00    +0.060 A 
BRANCH  16  18
ATOM     18  O   UNL     1      10.299  -3.453  23.916  0.00  0.00    -0.503 OA
ATOM     19  H   UNL     1      11.126  -3.920  24.128  0.00  0.00    +0.292 HD
ENDBRANCH  16  18
BRANCH  15  20
ATOM     20  O   UNL     1      10.321  -5.855  25.170  0.00  0.00    -0.503 OA
ATOM     21  H   UNL     1       9.810  -6.681  25.146  0.00  0.00    +0.292 HD
ENDBRANCH  15  20
ENDBRANCH  11  12
BRANCH  10  22
ATOM     22  O   UNL     1       2.610   1.067  26.961  0.00  0.00    -0.506 OA
ATOM     23  H   UNL     1       2.476   0.540  27.766  0.00  0.00    +0.292 HD
ENDBRANCH  10  22
BRANCH   7  24
ATOM     24  O   UNL     1       6.062   4.090  25.771  0.00  0.00    -0.461 OA
BRANCH  24  25
ATOM     25  C   UNL     1       5.674   4.570  24.469  0.00  0.00    +0.339 C 
ATOM     26  O   UNL     1       6.006   3.660  23.415  0.00  0.00    -0.331 OA
ATOM     27  C   UNL     1       7.425   3.453  23.267  0.00  0.00    +0.179 C 
ATOM     28  C   UNL     1       8.093   4.775  22.880  0.00  0.00    +0.177 C 
ATOM     29  C   UNL     1       7.801   5.853  23.937  0.00  0.00    +0.180 C 
ATOM     30  C   UNL     1       6.289   5.965  24.207  0.00  0.00    +0.214 C 
BRANCH  30  31
ATOM     31  O   UNL     1       6.015   6.883  25.274  0.00  0.00    -0.383 OA
ATOM     32  H   UNL     1       6.026   7.791  24.923  0.00  0.00    +0.210 HD
ENDBRANCH  30  31
BRANCH  29  33
ATOM     33  O   UNL     1       8.337   7.106  23.485  0.00  0.00    -0.386 OA
ATOM     34  H   UNL     1       7.730   7.452  22.801  0.00  0.00    +0.210 HD
ENDBRANCH  29  33
BRANCH  28  35
ATOM     35  O   UNL     1       7.620   5.247  21.605  0.00  0.00    -0.386 OA
ATOM     36  H   UNL     1       7.453   4.471  21.035  0.00  0.00    +0.210 HD
ENDBRANCH  28  35
BRANCH  27  37
ATOM     37  C   UNL     1       7.651   2.375  22.195  0.00  0.00    +0.190 C 
BRANCH  37  38
ATOM     38  O   UNL     1       8.925   2.529  21.568  0.00  0.00    -0.392 OA
ATOM     39  H   UNL     1       8.785   2.769  20.637  0.00  0.00    +0.210 HD
ENDBRANCH  37  38
ENDBRANCH  27  37
ENDBRANCH  24  25
ENDBRANCH   7  24
BRANCH   1  40
ATOM     40  O   UNL     1       4.983  -3.357  27.837  0.00  0.00    -0.453 OA
BRANCH  40  42
ATOM     41  C   UNL     1       3.444  -3.496  25.830  0.00  0.00    +0.218 C 
ATOM     42  C   UNL     1       4.365  -4.229  26.865  0.00  0.00    +0.340 C 
ATOM     43  O   UNL     1       3.625  -5.251  27.561  0.00  0.00    -0.331 OA
ATOM     44  C   UNL     1       2.465  -4.806  28.283  0.00  0.00    +0.179 C 
ATOM     45  C   UNL     1       1.487  -4.032  27.387  0.00  0.00    +0.177 C 
ATOM     46  C   UNL     1       2.211  -2.956  26.574  0.00  0.00    +0.180 C 
BRANCH  46  47
ATOM     47  O   UNL     1       1.269  -2.368  25.659  0.00  0.00    -0.386 OA
ATOM     48  H   UNL     1       0.435  -2.866  25.782  0.00  0.00    +0.210 HD
ENDBRANCH  46  47
BRANCH  45  49
ATOM     49  O   UNL     1       0.453  -3.430  28.184  0.00  0.00    -0.386 OA
ATOM     50  H   UNL     1       0.113  -2.665  27.679  0.00  0.00    +0.210 HD
ENDBRANCH  45  49
BRANCH  41  51
ATOM     51  O   UNL     1       2.982  -4.314  24.707  0.00  0.00    -0.359 OA
BRANCH  51  58
ATOM     52  C   UNL     1       4.864  -6.718  24.613  0.00  0.00    +0.041 C 
ATOM     53  C   UNL     1       4.380  -5.954  23.381  0.00  0.00    +0.150 C 
ATOM     54  O   UNL     1       5.308  -6.056  22.291  0.00  0.00    -0.343 OA
ATOM     55  C   UNL     1       6.494  -5.293  22.427  0.00  0.00    +0.279 C 
ATOM     56  C   UNL     1       6.143  -3.810  22.617  0.00  0.00    +0.201 C 
ATOM     57  C   UNL     1       5.199  -3.632  23.822  0.00  0.00    +0.179 C 
ATOM     58  C   UNL     1       3.928  -4.496  23.629  0.00  0.00    +0.179 C 
BRANCH  57  59
ATOM     59  O   UNL     1       4.853  -2.248  23.945  0.00  0.00    -0.386 OA
ATOM     60  H   UNL     1       4.342  -2.013  23.146  0.00  0.00    +0.210 HD
ENDBRANCH  57  59
BRANCH  56  61
ATOM     61  O   UNL     1       5.483  -3.321  21.420  0.00  0.00    -0.384 OA
ATOM     62  H   UNL     1       4.541  -3.183  21.643  0.00  0.00    +0.210 HD
ENDBRANCH  56  61
BRANCH  55  63
ATOM     63  O   UNL     1       7.243  -5.477  21.231  0.00  0.00    -0.365 OA
ATOM     64  H   UNL     1       7.850  -4.719  21.170  0.00  0.00    +0.213 HD
ENDBRANCH  55  63
ENDBRANCH  51  58
ENDBRANCH  41  51
BRANCH  44  65
ATOM     65  C   UNL     1       2.807  -4.051  29.587  0.00  0.00    +0.190 C 
BRANCH  65  66
ATOM     66  O   UNL     1       3.912  -4.616  30.286  0.00  0.00    -0.392 OA
ATOM     67  H   UNL     1       3.851  -5.588  30.165  0.00  0.00    +0.210 HD
ENDBRANCH  65  66
ENDBRANCH  44  65
ENDBRANCH  40  42
ENDBRANCH   1  40
TORSDOF 22
ENDMDL
MODEL 8
REMARK VINA RESULT:      -5.4      1.869      4.564
REMARK  Name = 
REMARK  23 active torsions:
REMARK  status: ('A' for Active; 'I' for Inactive)
REMARK    1  A    between atoms: C_1  and  C_2
REMARK    2  A    between atoms: C_3  and  O_11
REMARK    3  A    between atoms: C_4  and  O_10
REMARK    4  A    between atoms: C_5  and  O_9
REMARK    5  A    between atoms: C_6  and  O_8
REMARK    6  A    between atoms: O_11  and  C_12
REMARK    7  A    between atoms: C_13  and  O_54
REMARK    8  A    between atoms: C_14  and  O_53
REMARK    9  A    between atoms: C_15  and  C_51
REMARK   10  A    between atoms: C_17  and  O_18
REMARK   11  A    between atoms: O_18  and  C_19
REMARK   12  A    between atoms: C_20  and  C_43
REMARK   13  A    between atoms: C_24  and  O_31
REMARK   14  A    between atoms: C_26  and  O_30
REMARK   15  A    between atoms: O_31  and  C_32
REMARK   16  A    between atoms: C_33  and  O_42
REMARK   17  A    between atoms: C_34  and  O_41
REMARK   18  A    between atoms: C_35  and  O_40
REMARK   19  A    between atoms: C_36  and  C_38
REMARK   20  A    between atoms: C_38  and  O_39
REMARK   21  A    between atoms: C_45  and  O_50
REMARK   22  A    between atoms: C_46  and  O_49
REMARK   23  A    between atoms: C_51  and  O_52
REMARK                            x       y       z     vdW  Elec       q    Type
REMARK                         _______ _______ _______ _____ _____    ______ ____
ROOT
ATOM      1  C   UNL     1       5.993   0.624  26.695  0.00  0.00    +0.214 A 
ATOM      2  C   UNL     1       4.992  -0.088  27.527  0.00  0.00    +0.238 A 
ATOM      3  O   UNL     1       4.285   0.518  28.323  0.00  0.00    -0.283 OA
ATOM      4  C   UNL     1       4.763  -1.498  27.232  0.00  0.00    +0.109 A 
ATOM      5  C   UNL     1       4.886  -1.842  25.902  0.00  0.00    +0.147 A 
ATOM      6  C   UNL     1       4.307  -3.026  25.447  0.00  0.00    +0.093 A 
ATOM      7  C   UNL     1       3.691  -3.904  26.346  0.00  0.00    +0.131 A 
ATOM      8  C   UNL     1       3.748  -3.631  27.720  0.00  0.00    +0.092 A 
ATOM      9  O   UNL     1       5.546  -1.046  25.003  0.00  0.00    -0.451 OA
ATOM     10  C   UNL     1       4.266  -2.414  28.158  0.00  0.00    +0.135 A 
ATOM     11  C   UNL     1       6.228   0.089  25.471  0.00  0.00    +0.181 A 
ENDROOT
BRANCH  11  12
ATOM     12  C   UNL     1       7.164   0.644  24.457  0.00  0.00    +0.025 A 
ATOM     13  C   UNL     1       6.718   1.168  23.235  0.00  0.00    +0.015 A 
ATOM     14  C   UNL     1       7.610   1.684  22.279  0.00  0.00    +0.050 A 
ATOM     15  C   UNL     1       8.965   1.718  22.574  0.00  0.00    +0.158 A 
ATOM     16  C   UNL     1       9.431   1.255  23.796  0.00  0.00    +0.159 A 
ATOM     17  C   UNL     1       8.546   0.710  24.731  0.00  0.00    +0.060 A 
BRANCH  16  18
ATOM     18  O   UNL     1      10.771   1.351  24.045  0.00  0.00    -0.503 OA
ATOM     19  H   UNL     1      11.125   0.458  24.195  0.00  0.00    +0.292 HD
ENDBRANCH  16  18
BRANCH  15  20
ATOM     20  O   UNL     1       9.839   2.230  21.657  0.00  0.00    -0.503 OA
ATOM     21  H   UNL     1       9.279   2.500  20.911  0.00  0.00    +0.292 HD
ENDBRANCH  15  20
ENDBRANCH  11  12
BRANCH  10  22
ATOM     22  O   UNL     1       4.330  -2.122  29.485  0.00  0.00    -0.506 OA
ATOM     23  H   UNL     1       3.608  -1.532  29.759  0.00  0.00    +0.292 HD
ENDBRANCH  10  22
BRANCH   7  24
ATOM     24  O   UNL     1       3.034  -5.060  25.999  0.00  0.00    -0.461 OA
BRANCH  24  25
ATOM     25  C   UNL     1       3.497  -5.719  24.804  0.00  0.00    +0.339 C 
ATOM     26  O   UNL     1       2.627  -5.523  23.683  0.00  0.00    -0.331 OA
ATOM     27  C   UNL     1       1.317  -6.093  23.872  0.00  0.00    +0.179 C 
ATOM     28  C   UNL     1       1.440  -7.612  24.023  0.00  0.00    +0.177 C 
ATOM     29  C   UNL     1       2.368  -7.960  25.198  0.00  0.00    +0.180 C 
ATOM     30  C   UNL     1       3.715  -7.227  25.074  0.00  0.00    +0.214 C 
BRANCH  30  31
ATOM     31  O   UNL     1       4.543  -7.453  26.224  0.00  0.00    -0.383 OA
ATOM     32  H   UNL     1       4.003  -7.353  27.027  0.00  0.00    +0.210 HD
ENDBRANCH  30  31
BRANCH  29  33
ATOM     33  O   UNL     1       2.558  -9.384  25.235  0.00  0.00    -0.386 OA
ATOM     34  H   UNL     1       2.501  -9.660  26.171  0.00  0.00    +0.210 HD
ENDBRANCH  29  33
BRANCH  28  35
ATOM     35  O   UNL     1       1.972  -8.213  22.828  0.00  0.00    -0.386 OA
ATOM     36  H   UNL     1       1.826  -7.597  22.085  0.00  0.00    +0.210 HD
ENDBRANCH  28  35
BRANCH  27  37
ATOM     37  C   UNL     1       0.443  -5.718  22.665  0.00  0.00    +0.190 C 
BRANCH  37  38
ATOM     38  O   UNL     1       0.973  -6.262  21.455  0.00  0.00    -0.392 OA
ATOM     39  H   UNL     1       0.333  -6.899  21.097  0.00  0.00    +0.210 HD
ENDBRANCH  37  38
ENDBRANCH  27  37
ENDBRANCH  24  25
ENDBRANCH   7  24
BRANCH   1  40
ATOM     40  O   UNL     1       6.473   1.853  27.124  0.00  0.00    -0.453 OA
BRANCH  40  42
ATOM     41  C   UNL     1       6.714   4.085  25.952  0.00  0.00    +0.218 C 
ATOM     42  C   UNL     1       5.780   3.010  26.607  0.00  0.00    +0.340 C 
ATOM     43  O   UNL     1       4.999   3.598  27.666  0.00  0.00    -0.331 OA
ATOM     44  C   UNL     1       5.745   4.202  28.735  0.00  0.00    +0.179 C 
ATOM     45  C   UNL     1       6.736   5.259  28.226  0.00  0.00    +0.177 C 
ATOM     46  C   UNL     1       7.571   4.721  27.060  0.00  0.00    +0.180 C 
BRANCH  46  47
ATOM     47  O   UNL     1       8.372   5.798  26.542  0.00  0.00    -0.386 OA
ATOM     48  H   UNL     1       8.580   6.368  27.311  0.00  0.00    +0.210 HD
ENDBRANCH  46  47
BRANCH  45  49
ATOM     49  O   UNL     1       7.602   5.684  29.293  0.00  0.00    -0.386 OA
ATOM     50  H   UNL     1       7.238   6.524  29.637  0.00  0.00    +0.210 HD
ENDBRANCH  45  49
BRANCH  41  51
ATOM     51  O   UNL     1       6.030   5.157  25.228  0.00  0.00    -0.359 OA
BRANCH  51  58
ATOM     52  C   UNL     1       5.677   6.137  22.356  0.00  0.00    +0.041 C 
ATOM     53  C   UNL     1       5.120   4.818  22.891  0.00  0.00    +0.150 C 
ATOM     54  O   UNL     1       3.963   4.391  22.158  0.00  0.00    -0.343 OA
ATOM     55  C   UNL     1       2.774   5.118  22.419  0.00  0.00    +0.279 C 
ATOM     56  C   UNL     1       2.441   5.057  23.916  0.00  0.00    +0.201 C 
ATOM     57  C   UNL     1       3.629   5.570  24.753  0.00  0.00    +0.179 C 
ATOM     58  C   UNL     1       4.901   4.751  24.421  0.00  0.00    +0.179 C 
BRANCH  57  59
ATOM     59  O   UNL     1       3.306   5.456  26.143  0.00  0.00    -0.386 OA
ATOM     60  H   UNL     1       2.643   4.743  26.222  0.00  0.00    +0.210 HD
ENDBRANCH  57  59
BRANCH  56  61
ATOM     61  O   UNL     1       2.160   3.680  24.284  0.00  0.00    -0.384 OA
ATOM     62  H   UNL     1       1.451   3.359  23.691  0.00  0.00    +0.210 HD
ENDBRANCH  56  61
BRANCH  55  63
ATOM     63  O   UNL     1       1.741   4.508  21.654  0.00  0.00    -0.365 OA
ATOM     64  H   UNL     1       1.858   4.819  20.739  0.00  0.00    +0.213 HD
ENDBRANCH  55  63
ENDBRANCH  51  58
ENDBRANCH  41  51
BRANCH  44  65
ATOM     65  C   UNL     1       6.404   3.172  29.681  0.00  0.00    +0.190 C 
BRANCH  65  66
ATOM     66  O   UNL     1       7.779   2.945  29.388  0.00  0.00    -0.392 OA
ATOM     67  H   UNL     1       7.905   1.972  29.381  0.00  0.00    +0.210 HD
ENDBRANCH  65  66
ENDBRANCH  44  65
ENDBRANCH  40  42
ENDBRANCH   1  40
TORSDOF 22
ENDMDL
MODEL 9
REMARK VINA RESULT:      -5.4      2.623      4.749
REMARK  Name = 
REMARK  23 active torsions:
REMARK  status: ('A' for Active; 'I' for Inactive)
REMARK    1  A    between atoms: C_1  and  C_2
REMARK    2  A    between atoms: C_3  and  O_11
REMARK    3  A    between atoms: C_4  and  O_10
REMARK    4  A    between atoms: C_5  and  O_9
REMARK    5  A    between atoms: C_6  and  O_8
REMARK    6  A    between atoms: O_11  and  C_12
REMARK    7  A    between atoms: C_13  and  O_54
REMARK    8  A    between atoms: C_14  and  O_53
REMARK    9  A    between atoms: C_15  and  C_51
REMARK   10  A    between atoms: C_17  and  O_18
REMARK   11  A    between atoms: O_18  and  C_19
REMARK   12  A    between atoms: C_20  and  C_43
REMARK   13  A    between atoms: C_24  and  O_31
REMARK   14  A    between atoms: C_26  and  O_30
REMARK   15  A    between atoms: O_31  and  C_32
REMARK   16  A    between atoms: C_33  and  O_42
REMARK   17  A    between atoms: C_34  and  O_41
REMARK   18  A    between atoms: C_35  and  O_40
REMARK   19  A    between atoms: C_36  and  C_38
REMARK   20  A    between atoms: C_38  and  O_39
REMARK   21  A    between atoms: C_45  and  O_50
REMARK   22  A    between atoms: C_46  and  O_49
REMARK   23  A    between atoms: C_51  and  O_52
REMARK                            x       y       z     vdW  Elec       q    Type
REMARK                         _______ _______ _______ _____ _____    ______ ____
ROOT
ATOM      1  C   UNL     1       6.819   3.276  25.757  0.00  0.00    +0.214 A 
ATOM      2  C   UNL     1       7.813   2.484  24.992  0.00  0.00    +0.238 A 
ATOM      3  O   UNL     1       8.999   2.788  24.992  0.00  0.00    -0.283 OA
ATOM      4  C   UNL     1       7.351   1.237  24.393  0.00  0.00    +0.109 A 
ATOM      5  C   UNL     1       6.381   0.569  25.112  0.00  0.00    +0.147 A 
ATOM      6  C   UNL     1       6.164  -0.787  24.870  0.00  0.00    +0.093 A 
ATOM      7  C   UNL     1       6.854  -1.442  23.844  0.00  0.00    +0.131 A 
ATOM      8  C   UNL     1       7.691  -0.702  22.998  0.00  0.00    +0.092 A 
ATOM      9  O   UNL     1       5.631   1.193  26.075  0.00  0.00    -0.451 OA
ATOM     10  C   UNL     1       7.955   0.635  23.289  0.00  0.00    +0.135 A 
ATOM     11  C   UNL     1       5.763   2.580  26.248  0.00  0.00    +0.181 A 
ENDROOT
BRANCH  11  12
ATOM     12  C   UNL     1       4.661   3.154  27.065  0.00  0.00    +0.025 A 
ATOM     13  C   UNL     1       3.310   2.916  26.772  0.00  0.00    +0.015 A 
ATOM     14  C   UNL     1       2.275   3.468  27.545  0.00  0.00    +0.050 A 
ATOM     15  C   UNL     1       2.599   4.232  28.656  0.00  0.00    +0.158 A 
ATOM     16  C   UNL     1       3.926   4.443  29.002  0.00  0.00    +0.159 A 
ATOM     17  C   UNL     1       4.955   3.921  28.211  0.00  0.00    +0.060 A 
BRANCH  16  18
ATOM     18  O   UNL     1       4.183   5.170  30.128  0.00  0.00    -0.503 OA
ATOM     19  H   UNL     1       5.141   5.328  30.187  0.00  0.00    +0.292 HD
ENDBRANCH  16  18
BRANCH  15  20
ATOM     20  O   UNL     1       1.599   4.762  29.422  0.00  0.00    -0.503 OA
ATOM     21  H   UNL     1       1.345   4.042  30.022  0.00  0.00    +0.292 HD
ENDBRANCH  15  20
ENDBRANCH  11  12
BRANCH  10  22
ATOM     22  O   UNL     1       8.766   1.376  22.487  0.00  0.00    -0.506 OA
ATOM     23  H   UNL     1       9.612   0.930  22.319  0.00  0.00    +0.292 HD
ENDBRANCH  10  22
BRANCH   7  24
ATOM     24  O   UNL     1       6.766  -2.785  23.563  0.00  0.00    -0.461 OA
BRANCH  24  25
ATOM     25  C   UNL     1       5.437  -3.339  23.518  0.00  0.00    +0.339 C 
ATOM     26  O   UNL     1       5.129  -4.148  24.658  0.00  0.00    -0.331 OA
ATOM     27  C   UNL     1       5.958  -5.322  24.765  0.00  0.00    +0.179 C 
ATOM     28  C   UNL     1       5.715  -6.227  23.553  0.00  0.00    +0.177 C 
ATOM     29  C   UNL     1       6.003  -5.465  22.249  0.00  0.00    +0.180 C 
ATOM     30  C   UNL     1       5.232  -4.134  22.206  0.00  0.00    +0.214 C 
BRANCH  30  31
ATOM     31  O   UNL     1       5.584  -3.362  21.049  0.00  0.00    -0.383 OA
ATOM     32  H   UNL     1       6.548  -3.236  21.033  0.00  0.00    +0.210 HD
ENDBRANCH  30  31
BRANCH  29  33
ATOM     33  O   UNL     1       5.650  -6.300  21.134  0.00  0.00    -0.386 OA
ATOM     34  H   UNL     1       6.128  -7.146  21.243  0.00  0.00    +0.210 HD
ENDBRANCH  29  33
BRANCH  28  35
ATOM     35  O   UNL     1       4.355  -6.697  23.516  0.00  0.00    -0.386 OA
ATOM     36  H   UNL     1       4.069  -6.734  22.583  0.00  0.00    +0.210 HD
ENDBRANCH  28  35
BRANCH  27  37
ATOM     37  C   UNL     1       5.618  -6.042  26.079  0.00  0.00    +0.190 C 
BRANCH  37  38
ATOM     38  O   UNL     1       6.702  -5.966  27.005  0.00  0.00    -0.392 OA
ATOM     39  H   UNL     1       6.391  -5.520  27.810  0.00  0.00    +0.210 HD
ENDBRANCH  37  38
ENDBRANCH  27  37
ENDBRANCH  24  25
ENDBRANCH   7  24
BRANCH   1  40
ATOM     40  O   UNL     1       7.110   4.595  26.074  0.00  0.00    -0.453 OA
BRANCH  40  42
ATOM     41  C   UNL     1       6.280   5.209  23.760  0.00  0.00    +0.218 C 
ATOM     42  C   UNL     1       6.440   5.593  25.272  0.00  0.00    +0.340 C 
ATOM     43  O   UNL     1       7.143   6.844  25.402  0.00  0.00    -0.331 OA
ATOM     44  C   UNL     1       8.457   6.889  24.824  0.00  0.00    +0.179 C 
ATOM     45  C   UNL     1       8.451   6.495  23.340  0.00  0.00    +0.177 C 
ATOM     46  C   UNL     1       7.676   5.194  23.114  0.00  0.00    +0.180 C 
BRANCH  46  47
ATOM     47  O   UNL     1       7.589   4.958  21.698  0.00  0.00    -0.386 OA
ATOM     48  H   UNL     1       8.450   5.242  21.328  0.00  0.00    +0.210 HD
ENDBRANCH  46  47
BRANCH  45  49
ATOM     49  O   UNL     1       9.799   6.350  22.858  0.00  0.00    -0.386 OA
ATOM     50  H   UNL     1       9.869   5.454  22.473  0.00  0.00    +0.210 HD
ENDBRANCH  45  49
BRANCH  41  51
ATOM     51  O   UNL     1       5.418   6.091  22.974  0.00  0.00    -0.359 OA
BRANCH  51  58
ATOM     52  C   UNL     1       2.946   5.997  24.765  0.00  0.00    +0.041 C 
ATOM     53  C   UNL     1       2.902   6.027  23.238  0.00  0.00    +0.150 C 
ATOM     54  O   UNL     1       1.708   5.418  22.726  0.00  0.00    -0.343 OA
ATOM     55  C   UNL     1       1.663   4.003  22.803  0.00  0.00    +0.279 C 
ATOM     56  C   UNL     1       2.862   3.400  22.058  0.00  0.00    +0.201 C 
ATOM     57  C   UNL     1       4.181   3.970  22.615  0.00  0.00    +0.179 C 
ATOM     58  C   UNL     1       4.172   5.515  22.518  0.00  0.00    +0.179 C 
BRANCH  57  59
ATOM     59  O   UNL     1       5.277   3.425  21.870  0.00  0.00    -0.386 OA
ATOM     60  H   UNL     1       5.243   2.456  21.986  0.00  0.00    +0.210 HD
ENDBRANCH  57  59
BRANCH  56  61
ATOM     61  O   UNL     1       2.760   3.731  20.648  0.00  0.00    -0.384 OA
ATOM     62  H   UNL     1       3.429   4.419  20.461  0.00  0.00    +0.210 HD
ENDBRANCH  56  61
BRANCH  55  63
ATOM     63  O   UNL     1       0.443   3.595  22.195  0.00  0.00    -0.365 OA
ATOM     64  H   UNL     1       0.243   4.259  21.512  0.00  0.00    +0.213 HD
ENDBRANCH  55  63
ENDBRANCH  51  58
ENDBRANCH  41  51
BRANCH  44  65
ATOM     65  C   UNL     1       9.514   6.116  25.644  0.00  0.00    +0.190 C 
BRANCH  65  66
ATOM     66  O   UNL     1      10.818   6.683  25.550  0.00  0.00    -0.392 OA
ATOM     67  H   UNL     1      10.981   7.149  26.398  0.00  0.00    +0.210 HD
ENDBRANCH  65  66
ENDBRANCH  44  65
ENDBRANCH  40  42
ENDBRANCH   1  40
TORSDOF 22
ENDMDL
