MODEL 1
REMARK VINA RESULT:      -7.0      0.000      0.000
REMARK  Name = 
REMARK  9 active torsions:
REMARK  status: ('A' for Active; 'I' for Inactive)
REMARK    1  A    between atoms: C_1  and  O_2
REMARK    2  A    between atoms: O_2  and  C_3
REMARK    3  A    between atoms: C_4  and  O_24
REMARK    4  A    between atoms: C_6  and  C_9
REMARK    5  A    between atoms: C_10  and  O_23
REMARK    6  A    between atoms: C_14  and  O_22
REMARK    7  A    between atoms: C_16  and  O_20
REMARK    8  A    between atoms: O_20  and  C_21
REMARK    9  A    between atoms: O_24  and  C_25
REMARK                            x       y       z     vdW  Elec       q    Type
REMARK                         _______ _______ _______ _____ _____    ______ ____
ROOT
ATOM      1  C   UNL     1       7.641  -3.723  25.243  0.00  0.00    +0.181 A 
ATOM      2  O   UNL     1       6.502  -4.036  24.494  0.00  0.00    -0.451 OA
ATOM      3  C   UNL     1       5.681  -5.056  24.925  0.00  0.00    +0.147 A 
ATOM      4  C   UNL     1       5.893  -5.738  26.117  0.00  0.00    +0.109 A 
ATOM      5  C   UNL     1       5.008  -6.739  26.527  0.00  0.00    +0.135 A 
ATOM      6  C   UNL     1       3.918  -7.080  25.734  0.00  0.00    +0.092 A 
ATOM      7  C   UNL     1       3.702  -6.421  24.525  0.00  0.00    +0.127 A 
ATOM      8  C   UNL     1       7.071  -5.407  26.914  0.00  0.00    +0.238 A 
ATOM      9  O   UNL     1       7.270  -5.981  27.981  0.00  0.00    -0.283 OA
ATOM     10  C   UNL     1       4.587  -5.406  24.125  0.00  0.00    +0.092 A 
ATOM     11  C   UNL     1       7.997  -4.386  26.367  0.00  0.00    +0.208 A 
ENDROOT
BRANCH   1  15
ATOM     12  C   UNL     1       9.905  -0.402  23.618  0.00  0.00    +0.162 A 
ATOM     13  C   UNL     1      10.041  -1.683  23.095  0.00  0.00    +0.050 A 
ATOM     14  C   UNL     1       9.339  -2.751  23.658  0.00  0.00    +0.015 A 
ATOM     15  C   UNL     1       8.422  -2.567  24.709  0.00  0.00    +0.025 A 
ATOM     16  C   UNL     1       8.303  -1.270  25.245  0.00  0.00    +0.061 A 
ATOM     17  C   UNL     1       9.046  -0.195  24.720  0.00  0.00    +0.162 A 
BRANCH  12  19
ATOM     18  C   UNL     1      10.034   1.351  21.996  0.00  0.00    +0.277 C 
ATOM     19  O   UNL     1      10.570   0.702  23.142  0.00  0.00    -0.491 OA
ENDBRANCH  12  19
BRANCH  17  20
ATOM     20  O   UNL     1       9.015   1.091  25.204  0.00  0.00    -0.491 OA
ATOM     21  C   UNL     1       7.803   1.819  25.105  0.00  0.00    +0.277 C 
ENDBRANCH  17  20
ENDBRANCH   1  15
BRANCH   5  22
ATOM     22  O   UNL     1       5.152  -7.434  27.699  0.00  0.00    -0.506 OA
ATOM     23  H   UNL     1       6.116  -7.504  27.897  0.00  0.00    +0.292 HD
ENDBRANCH   5  22
BRANCH   7  24
ATOM     24  O   UNL     1       2.672  -6.686  23.661  0.00  0.00    -0.495 OA
ATOM     25  C   UNL     1       1.888  -5.569  23.245  0.00  0.00    +0.277 C 
ENDBRANCH   7  24
BRANCH  11  26
ATOM     26  O   UNL     1       9.169  -4.191  27.076  0.00  0.00    -0.501 OA
ATOM     27  H   UNL     1       9.284  -4.934  27.691  0.00  0.00    +0.292 HD
ENDBRANCH  11  26
TORSDOF 6
ENDMDL
MODEL 2
REMARK VINA RESULT:      -7.0      1.120      1.791
REMARK  Name = 
REMARK  9 active torsions:
REMARK  status: ('A' for Active; 'I' for Inactive)
REMARK    1  A    between atoms: C_1  and  O_2
REMARK    2  A    between atoms: O_2  and  C_3
REMARK    3  A    between atoms: C_4  and  O_24
REMARK    4  A    between atoms: C_6  and  C_9
REMARK    5  A    between atoms: C_10  and  O_23
REMARK    6  A    between atoms: C_14  and  O_22
REMARK    7  A    between atoms: C_16  and  O_20
REMARK    8  A    between atoms: O_20  and  C_21
REMARK    9  A    between atoms: O_24  and  C_25
REMARK                            x       y       z     vdW  Elec       q    Type
REMARK                         _______ _______ _______ _____ _____    ______ ____
ROOT
ATOM      1  C   UNL     1       7.600  -3.676  25.809  0.00  0.00    +0.181 A 
ATOM      2  O   UNL     1       6.310  -3.710  25.269  0.00  0.00    -0.451 OA
ATOM      3  C   UNL     1       5.443  -4.700  25.677  0.00  0.00    +0.147 A 
ATOM      4  C   UNL     1       5.766  -5.624  26.663  0.00  0.00    +0.109 A 
ATOM      5  C   UNL     1       4.836  -6.584  27.067  0.00  0.00    +0.135 A 
ATOM      6  C   UNL     1       3.582  -6.641  26.469  0.00  0.00    +0.092 A 
ATOM      7  C   UNL     1       3.247  -5.736  25.464  0.00  0.00    +0.127 A 
ATOM      8  C   UNL     1       7.105  -5.587  27.244  0.00  0.00    +0.238 A 
ATOM      9  O   UNL     1       7.411  -6.380  28.132  0.00  0.00    -0.283 OA
ATOM     10  C   UNL     1       4.182  -4.764  25.072  0.00  0.00    +0.092 A 
ATOM     11  C   UNL     1       8.055  -4.584  26.703  0.00  0.00    +0.208 A 
ENDROOT
BRANCH   1  15
ATOM     12  C   UNL     1      10.038  -0.337  24.508  0.00  0.00    +0.162 A 
ATOM     13  C   UNL     1       9.468  -0.353  25.776  0.00  0.00    +0.050 A 
ATOM     14  C   UNL     1       8.648  -1.415  26.165  0.00  0.00    +0.015 A 
ATOM     15  C   UNL     1       8.430  -2.530  25.334  0.00  0.00    +0.025 A 
ATOM     16  C   UNL     1       8.996  -2.498  24.045  0.00  0.00    +0.061 A 
ATOM     17  C   UNL     1       9.781  -1.408  23.622  0.00  0.00    +0.162 A 
BRANCH  12  19
ATOM     18  C   UNL     1      10.271   1.972  23.929  0.00  0.00    +0.277 C 
ATOM     19  O   UNL     1      10.840   0.673  24.033  0.00  0.00    -0.491 OA
ENDBRANCH  12  19
BRANCH  17  20
ATOM     20  O   UNL     1      10.341  -1.281  22.374  0.00  0.00    -0.491 OA
ATOM     21  C   UNL     1       9.530  -0.794  21.318  0.00  0.00    +0.277 C 
ENDBRANCH  17  20
ENDBRANCH   1  15
BRANCH   5  22
ATOM     22  O   UNL     1       5.088  -7.510  28.046  0.00  0.00    -0.506 OA
ATOM     23  H   UNL     1       5.880  -7.211  28.552  0.00  0.00    +0.292 HD
ENDBRANCH   5  22
BRANCH   7  24
ATOM     24  O   UNL     1       2.050  -5.712  24.798  0.00  0.00    -0.495 OA
ATOM     25  C   UNL     1       2.112  -5.546  23.382  0.00  0.00    +0.277 C 
ENDBRANCH   7  24
BRANCH  11  26
ATOM     26  O   UNL     1       9.352  -4.662  27.178  0.00  0.00    -0.501 OA
ATOM     27  H   UNL     1       9.842  -5.298  26.632  0.00  0.00    +0.292 HD
ENDBRANCH  11  26
TORSDOF 6
ENDMDL
MODEL 3
REMARK VINA RESULT:      -6.8      2.564      4.170
REMARK  Name = 
REMARK  9 active torsions:
REMARK  status: ('A' for Active; 'I' for Inactive)
REMARK    1  A    between atoms: C_1  and  O_2
REMARK    2  A    between atoms: O_2  and  C_3
REMARK    3  A    between atoms: C_4  and  O_24
REMARK    4  A    between atoms: C_6  and  C_9
REMARK    5  A    between atoms: C_10  and  O_23
REMARK    6  A    between atoms: C_14  and  O_22
REMARK    7  A    between atoms: C_16  and  O_20
REMARK    8  A    between atoms: O_20  and  C_21
REMARK    9  A    between atoms: O_24  and  C_25
REMARK                            x       y       z     vdW  Elec       q    Type
REMARK                         _______ _______ _______ _____ _____    ______ ____
ROOT
ATOM      1  C   UNL     1       8.171  -0.487  23.252  0.00  0.00    +0.181 A 
ATOM      2  O   UNL     1       6.938  -1.110  23.033  0.00  0.00    -0.451 OA
ATOM      3  C   UNL     1       6.859  -2.483  23.126  0.00  0.00    +0.147 A 
ATOM      4  C   UNL     1       7.937  -3.273  23.506  0.00  0.00    +0.109 A 
ATOM      5  C   UNL     1       7.793  -4.658  23.623  0.00  0.00    +0.135 A 
ATOM      6  C   UNL     1       6.575  -5.264  23.335  0.00  0.00    +0.092 A 
ATOM      7  C   UNL     1       5.489  -4.489  22.932  0.00  0.00    +0.127 A 
ATOM      8  C   UNL     1       9.224  -2.630  23.753  0.00  0.00    +0.238 A 
ATOM      9  O   UNL     1      10.188  -3.303  24.110  0.00  0.00    -0.283 OA
ATOM     10  C   UNL     1       5.636  -3.096  22.830  0.00  0.00    +0.092 A 
ATOM     11  C   UNL     1       9.307  -1.166  23.532  0.00  0.00    +0.208 A 
ENDROOT
BRANCH   1  15
ATOM     12  C   UNL     1       7.971   3.835  22.978  0.00  0.00    +0.162 A 
ATOM     13  C   UNL     1       7.755   3.038  21.860  0.00  0.00    +0.050 A 
ATOM     14  C   UNL     1       7.867   1.648  21.953  0.00  0.00    +0.015 A 
ATOM     15  C   UNL     1       8.122   1.004  23.177  0.00  0.00    +0.025 A 
ATOM     16  C   UNL     1       8.357   1.818  24.302  0.00  0.00    +0.061 A 
ATOM     17  C   UNL     1       8.299   3.222  24.209  0.00  0.00    +0.162 A 
BRANCH  12  19
ATOM     18  C   UNL     1       7.193   5.829  21.910  0.00  0.00    +0.277 C 
ATOM     19  O   UNL     1       7.901   5.207  22.975  0.00  0.00    -0.491 OA
ENDBRANCH  12  19
BRANCH  17  20
ATOM     20  O   UNL     1       8.548   4.090  25.245  0.00  0.00    -0.491 OA
ATOM     21  C   UNL     1       7.568   4.223  26.261  0.00  0.00    +0.277 C 
ENDBRANCH  17  20
ENDBRANCH   1  15
BRANCH   5  22
ATOM     22  O   UNL     1       8.812  -5.489  24.011  0.00  0.00    -0.506 OA
ATOM     23  H   UNL     1       9.652  -4.971  23.995  0.00  0.00    +0.292 HD
ENDBRANCH   5  22
BRANCH   7  24
ATOM     24  O   UNL     1       4.252  -4.982  22.610  0.00  0.00    -0.495 OA
ATOM     25  C   UNL     1       3.795  -6.101  23.369  0.00  0.00    +0.277 C 
ENDBRANCH   7  24
BRANCH  11  26
ATOM     26  O   UNL     1      10.568  -0.607  23.644  0.00  0.00    -0.501 OA
ATOM     27  H   UNL     1      10.470   0.327  23.891  0.00  0.00    +0.292 HD
ENDBRANCH  11  26
TORSDOF 6
ENDMDL
MODEL 4
REMARK VINA RESULT:      -6.7      2.954      8.384
REMARK  Name = 
REMARK  9 active torsions:
REMARK  status: ('A' for Active; 'I' for Inactive)
REMARK    1  A    between atoms: C_1  and  O_2
REMARK    2  A    between atoms: O_2  and  C_3
REMARK    3  A    between atoms: C_4  and  O_24
REMARK    4  A    between atoms: C_6  and  C_9
REMARK    5  A    between atoms: C_10  and  O_23
REMARK    6  A    between atoms: C_14  and  O_22
REMARK    7  A    between atoms: C_16  and  O_20
REMARK    8  A    between atoms: O_20  and  C_21
REMARK    9  A    between atoms: O_24  and  C_25
REMARK                            x       y       z     vdW  Elec       q    Type
REMARK                         _______ _______ _______ _____ _____    ______ ____
ROOT
ATOM      1  C   UNL     1       8.446  -0.325  23.399  0.00  0.00    +0.181 A 
ATOM      2  O   UNL     1       7.877   0.423  24.434  0.00  0.00    -0.451 OA
ATOM      3  C   UNL     1       8.249   1.742  24.585  0.00  0.00    +0.147 A 
ATOM      4  C   UNL     1       9.108   2.386  23.703  0.00  0.00    +0.109 A 
ATOM      5  C   UNL     1       9.422   3.736  23.879  0.00  0.00    +0.135 A 
ATOM      6  C   UNL     1       8.898   4.444  24.955  0.00  0.00    +0.092 A 
ATOM      7  C   UNL     1       8.052   3.809  25.862  0.00  0.00    +0.127 A 
ATOM      8  C   UNL     1       9.694   1.617  22.609  0.00  0.00    +0.238 A 
ATOM      9  O   UNL     1      10.440   2.168  21.803  0.00  0.00    -0.283 OA
ATOM     10  C   UNL     1       7.728   2.455  25.671  0.00  0.00    +0.092 A 
ATOM     11  C   UNL     1       9.366   0.172  22.541  0.00  0.00    +0.208 A 
ENDROOT
BRANCH   1  15
ATOM     12  C   UNL     1       6.903  -4.361  23.044  0.00  0.00    +0.162 A 
ATOM     13  C   UNL     1       6.164  -3.272  22.596  0.00  0.00    +0.050 A 
ATOM     14  C   UNL     1       6.654  -1.974  22.758  0.00  0.00    +0.015 A 
ATOM     15  C   UNL     1       7.928  -1.723  23.301  0.00  0.00    +0.025 A 
ATOM     16  C   UNL     1       8.663  -2.829  23.768  0.00  0.00    +0.061 A 
ATOM     17  C   UNL     1       8.156  -4.138  23.659  0.00  0.00    +0.162 A 
BRANCH  12  19
ATOM     18  C   UNL     1       6.234  -6.181  21.645  0.00  0.00    +0.277 C 
ATOM     19  O   UNL     1       6.492  -5.668  22.945  0.00  0.00    -0.491 OA
ENDBRANCH  12  19
BRANCH  17  20
ATOM     20  O   UNL     1       8.790  -5.267  24.119  0.00  0.00    -0.491 OA
ATOM     21  C   UNL     1       9.452  -5.205  25.370  0.00  0.00    +0.277 C 
ENDBRANCH  17  20
ENDBRANCH   1  15
BRANCH   5  22
ATOM     22  O   UNL     1      10.247   4.432  23.034  0.00  0.00    -0.506 OA
ATOM     23  H   UNL     1      10.692   5.141  23.556  0.00  0.00    +0.292 HD
ENDBRANCH   5  22
BRANCH   7  24
ATOM     24  O   UNL     1       7.493   4.404  26.961  0.00  0.00    -0.495 OA
ATOM     25  C   UNL     1       7.498   5.831  26.984  0.00  0.00    +0.277 C 
ENDBRANCH   7  24
BRANCH  11  26
ATOM     26  O   UNL     1      10.040  -0.556  21.576  0.00  0.00    -0.501 OA
ATOM     27  H   UNL     1      10.032  -1.492  21.836  0.00  0.00    +0.292 HD
ENDBRANCH  11  26
TORSDOF 6
ENDMDL
MODEL 5
REMARK VINA RESULT:      -6.7      1.979      3.484
REMARK  Name = 
REMARK  9 active torsions:
REMARK  status: ('A' for Active; 'I' for Inactive)
REMARK    1  A    between atoms: C_1  and  O_2
REMARK    2  A    between atoms: O_2  and  C_3
REMARK    3  A    between atoms: C_4  and  O_24
REMARK    4  A    between atoms: C_6  and  C_9
REMARK    5  A    between atoms: C_10  and  O_23
REMARK    6  A    between atoms: C_14  and  O_22
REMARK    7  A    between atoms: C_16  and  O_20
REMARK    8  A    between atoms: O_20  and  C_21
REMARK    9  A    between atoms: O_24  and  C_25
REMARK                            x       y       z     vdW  Elec       q    Type
REMARK                         _______ _______ _______ _____ _____    ______ ____
ROOT
ATOM      1  C   UNL     1       6.535  -3.088  23.305  0.00  0.00    +0.181 A 
ATOM      2  O   UNL     1       6.681  -3.416  24.656  0.00  0.00    -0.451 OA
ATOM      3  C   UNL     1       6.067  -4.554  25.136  0.00  0.00    +0.147 A 
ATOM      4  C   UNL     1       5.373  -5.434  24.317  0.00  0.00    +0.109 A 
ATOM      5  C   UNL     1       4.801  -6.594  24.847  0.00  0.00    +0.135 A 
ATOM      6  C   UNL     1       4.902  -6.867  26.207  0.00  0.00    +0.092 A 
ATOM      7  C   UNL     1       5.577  -5.984  27.047  0.00  0.00    +0.127 A 
ATOM      8  C   UNL     1       5.228  -5.109  22.901  0.00  0.00    +0.238 A 
ATOM      9  O   UNL     1       4.636  -5.881  22.151  0.00  0.00    -0.283 OA
ATOM     10  C   UNL     1       6.161  -4.827  26.506  0.00  0.00    +0.092 A 
ATOM     11  C   UNL     1       5.800  -3.821  22.437  0.00  0.00    +0.208 A 
ENDROOT
BRANCH   1  15
ATOM     12  C   UNL     1       8.751   0.415  22.036  0.00  0.00    +0.162 A 
ATOM     13  C   UNL     1       9.274  -0.862  21.865  0.00  0.00    +0.050 A 
ATOM     14  C   UNL     1       8.569  -1.978  22.320  0.00  0.00    +0.015 A 
ATOM     15  C   UNL     1       7.288  -1.867  22.889  0.00  0.00    +0.025 A 
ATOM     16  C   UNL     1       6.772  -0.569  23.075  0.00  0.00    +0.061 A 
ATOM     17  C   UNL     1       7.497   0.567  22.670  0.00  0.00    +0.162 A 
BRANCH  12  19
ATOM     18  C   UNL     1      10.389   2.096  22.493  0.00  0.00    +0.277 C 
ATOM     19  O   UNL     1       9.382   1.569  21.639  0.00  0.00    -0.491 OA
ENDBRANCH  12  19
BRANCH  17  20
ATOM     20  O   UNL     1       7.085   1.866  22.844  0.00  0.00    -0.491 OA
ATOM     21  C   UNL     1       6.997   2.374  24.164  0.00  0.00    +0.277 C 
ENDBRANCH  17  20
ENDBRANCH   1  15
BRANCH   5  22
ATOM     22  O   UNL     1       4.121  -7.511  24.089  0.00  0.00    -0.506 OA
ATOM     23  H   UNL     1       3.574  -8.064  24.696  0.00  0.00    +0.292 HD
ENDBRANCH   5  22
BRANCH   7  24
ATOM     24  O   UNL     1       5.723  -6.146  28.400  0.00  0.00    -0.495 OA
ATOM     25  C   UNL     1       5.261  -5.075  29.223  0.00  0.00    +0.277 C 
ENDBRANCH   7  24
BRANCH  11  26
ATOM     26  O   UNL     1       5.532  -3.478  21.124  0.00  0.00    -0.501 OA
ATOM     27  H   UNL     1       4.581  -3.299  21.040  0.00  0.00    +0.292 HD
ENDBRANCH  11  26
TORSDOF 6
ENDMDL
MODEL 6
REMARK VINA RESULT:      -6.6      1.816      8.124
REMARK  Name = 
REMARK  9 active torsions:
REMARK  status: ('A' for Active; 'I' for Inactive)
REMARK    1  A    between atoms: C_1  and  O_2
REMARK    2  A    between atoms: O_2  and  C_3
REMARK    3  A    between atoms: C_4  and  O_24
REMARK    4  A    between atoms: C_6  and  C_9
REMARK    5  A    between atoms: C_10  and  O_23
REMARK    6  A    between atoms: C_14  and  O_22
REMARK    7  A    between atoms: C_16  and  O_20
REMARK    8  A    between atoms: O_20  and  C_21
REMARK    9  A    between atoms: O_24  and  C_25
REMARK                            x       y       z     vdW  Elec       q    Type
REMARK                         _______ _______ _______ _____ _____    ______ ____
ROOT
ATOM      1  C   UNL     1       8.414  -1.631  24.419  0.00  0.00    +0.181 A 
ATOM      2  O   UNL     1       8.072  -0.458  25.098  0.00  0.00    -0.451 OA
ATOM      3  C   UNL     1       8.474   0.754  24.578  0.00  0.00    +0.147 A 
ATOM      4  C   UNL     1       9.138   0.868  23.364  0.00  0.00    +0.109 A 
ATOM      5  C   UNL     1       9.490   2.124  22.863  0.00  0.00    +0.135 A 
ATOM      6  C   UNL     1       9.199   3.275  23.588  0.00  0.00    +0.092 A 
ATOM      7  C   UNL     1       8.552   3.179  24.818  0.00  0.00    +0.127 A 
ATOM      8  C   UNL     1       9.486  -0.351  22.639  0.00  0.00    +0.238 A 
ATOM      9  O   UNL     1      10.056  -0.278  21.553  0.00  0.00    -0.283 OA
ATOM     10  C   UNL     1       8.189   1.914  25.309  0.00  0.00    +0.092 A 
ATOM     11  C   UNL     1       9.143  -1.644  23.279  0.00  0.00    +0.208 A 
ENDROOT
BRANCH   1  15
ATOM     12  C   UNL     1       6.889  -5.220  26.313  0.00  0.00    +0.162 A 
ATOM     13  C   UNL     1       8.043  -4.601  26.780  0.00  0.00    +0.050 A 
ATOM     14  C   UNL     1       8.548  -3.471  26.132  0.00  0.00    +0.015 A 
ATOM     15  C   UNL     1       7.880  -2.877  25.046  0.00  0.00    +0.025 A 
ATOM     16  C   UNL     1       6.721  -3.519  24.567  0.00  0.00    +0.061 A 
ATOM     17  C   UNL     1       6.233  -4.689  25.179  0.00  0.00    +0.162 A 
BRANCH  12  19
ATOM     18  C   UNL     1       5.710  -6.206  28.145  0.00  0.00    +0.277 C 
ATOM     19  O   UNL     1       6.333  -6.343  26.874  0.00  0.00    -0.491 OA
ENDBRANCH  12  19
BRANCH  17  20
ATOM     20  O   UNL     1       5.133  -5.396  24.757  0.00  0.00    -0.491 OA
ATOM     21  C   UNL     1       5.190  -6.041  23.496  0.00  0.00    +0.277 C 
ENDBRANCH  17  20
ENDBRANCH   1  15
BRANCH   5  22
ATOM     22  O   UNL     1      10.129   2.303  21.664  0.00  0.00    -0.506 OA
ATOM     23  H   UNL     1      10.122   3.267  21.455  0.00  0.00    +0.292 HD
ENDBRANCH   5  22
BRANCH   7  24
ATOM     24  O   UNL     1       8.231   4.242  25.620  0.00  0.00    -0.495 OA
ATOM     25  C   UNL     1       8.818   5.497  25.277  0.00  0.00    +0.277 C 
ENDBRANCH   7  24
BRANCH  11  26
ATOM     26  O   UNL     1       9.603  -2.779  22.634  0.00  0.00    -0.501 OA
ATOM     27  H   UNL     1       9.163  -3.553  23.023  0.00  0.00    +0.292 HD
ENDBRANCH  11  26
TORSDOF 6
ENDMDL
MODEL 7
REMARK VINA RESULT:      -6.5      2.618      4.062
REMARK  Name = 
REMARK  9 active torsions:
REMARK  status: ('A' for Active; 'I' for Inactive)
REMARK    1  A    between atoms: C_1  and  O_2
REMARK    2  A    between atoms: O_2  and  C_3
REMARK    3  A    between atoms: C_4  and  O_24
REMARK    4  A    between atoms: C_6  and  C_9
REMARK    5  A    between atoms: C_10  and  O_23
REMARK    6  A    between atoms: C_14  and  O_22
REMARK    7  A    between atoms: C_16  and  O_20
REMARK    8  A    between atoms: O_20  and  C_21
REMARK    9  A    between atoms: O_24  and  C_25
REMARK                            x       y       z     vdW  Elec       q    Type
REMARK                         _______ _______ _______ _____ _____    ______ ____
ROOT
ATOM      1  C   UNL     1       8.598  -0.157  24.514  0.00  0.00    +0.181 A 
ATOM      2  O   UNL     1       8.001  -0.722  23.382  0.00  0.00    -0.451 OA
ATOM      3  C   UNL     1       7.522  -2.012  23.455  0.00  0.00    +0.147 A 
ATOM      4  C   UNL     1       7.533  -2.753  24.630  0.00  0.00    +0.109 A 
ATOM      5  C   UNL     1       7.000  -4.044  24.660  0.00  0.00    +0.135 A 
ATOM      6  C   UNL     1       6.472  -4.611  23.505  0.00  0.00    +0.092 A 
ATOM      7  C   UNL     1       6.471  -3.891  22.312  0.00  0.00    +0.127 A 
ATOM      8  C   UNL     1       8.139  -2.166  25.822  0.00  0.00    +0.238 A 
ATOM      9  O   UNL     1       8.144  -2.792  26.879  0.00  0.00    -0.283 OA
ATOM     10  C   UNL     1       6.996  -2.588  22.292  0.00  0.00    +0.092 A 
ATOM     11  C   UNL     1       8.750  -0.822  25.683  0.00  0.00    +0.208 A 
ENDROOT
BRANCH   1  15
ATOM     12  C   UNL     1       9.878   3.940  23.911  0.00  0.00    +0.162 A 
ATOM     13  C   UNL     1      10.575   2.882  23.339  0.00  0.00    +0.050 A 
ATOM     14  C   UNL     1      10.178   1.565  23.579  0.00  0.00    +0.015 A 
ATOM     15  C   UNL     1       9.030   1.261  24.333  0.00  0.00    +0.025 A 
ATOM     16  C   UNL     1       8.338   2.336  24.924  0.00  0.00    +0.061 A 
ATOM     17  C   UNL     1       8.761   3.666  24.733  0.00  0.00    +0.162 A 
BRANCH  12  19
ATOM     18  C   UNL     1      11.587   5.588  23.621  0.00  0.00    +0.277 C 
ATOM     19  O   UNL     1      10.208   5.263  23.747  0.00  0.00    -0.491 OA
ENDBRANCH  12  19
BRANCH  17  20
ATOM     20  O   UNL     1       8.167   4.768  25.299  0.00  0.00    -0.491 OA
ATOM     21  C   UNL     1       6.835   5.080  24.927  0.00  0.00    +0.277 C 
ENDBRANCH  17  20
ENDBRANCH   1  15
BRANCH   5  22
ATOM     22  O   UNL     1       6.964  -4.817  25.791  0.00  0.00    -0.506 OA
ATOM     23  H   UNL     1       7.411  -4.318  26.516  0.00  0.00    +0.292 HD
ENDBRANCH   5  22
BRANCH   7  24
ATOM     24  O   UNL     1       5.992  -4.356  21.116  0.00  0.00    -0.495 OA
ATOM     25  C   UNL     1       6.139  -5.755  20.872  0.00  0.00    +0.277 C 
ENDBRANCH   7  24
BRANCH  11  26
ATOM     26  O   UNL     1       9.432  -0.350  26.791  0.00  0.00    -0.501 OA
ATOM     27  H   UNL     1       9.133  -0.845  27.571  0.00  0.00    +0.292 HD
ENDBRANCH  11  26
TORSDOF 6
ENDMDL
MODEL 8
REMARK VINA RESULT:      -6.5      2.229      7.656
REMARK  Name = 
REMARK  9 active torsions:
REMARK  status: ('A' for Active; 'I' for Inactive)
REMARK    1  A    between atoms: C_1  and  O_2
REMARK    2  A    between atoms: O_2  and  C_3
REMARK    3  A    between atoms: C_4  and  O_24
REMARK    4  A    between atoms: C_6  and  C_9
REMARK    5  A    between atoms: C_10  and  O_23
REMARK    6  A    between atoms: C_14  and  O_22
REMARK    7  A    between atoms: C_16  and  O_20
REMARK    8  A    between atoms: O_20  and  C_21
REMARK    9  A    between atoms: O_24  and  C_25
REMARK                            x       y       z     vdW  Elec       q    Type
REMARK                         _______ _______ _______ _____ _____    ______ ____
ROOT
ATOM      1  C   UNL     1       7.921  -1.682  24.158  0.00  0.00    +0.181 A 
ATOM      2  O   UNL     1       6.959  -0.667  24.161  0.00  0.00    -0.451 OA
ATOM      3  C   UNL     1       7.236   0.515  23.509  0.00  0.00    +0.147 A 
ATOM      4  C   UNL     1       8.401   0.716  22.779  0.00  0.00    +0.109 A 
ATOM      5  C   UNL     1       8.616   1.920  22.104  0.00  0.00    +0.135 A 
ATOM      6  C   UNL     1       7.675   2.942  22.175  0.00  0.00    +0.092 A 
ATOM      7  C   UNL     1       6.510   2.766  22.920  0.00  0.00    +0.127 A 
ATOM      8  C   UNL     1       9.405  -0.344  22.756  0.00  0.00    +0.238 A 
ATOM      9  O   UNL     1      10.434  -0.201  22.102  0.00  0.00    -0.283 OA
ATOM     10  C   UNL     1       6.294   1.548  23.585  0.00  0.00    +0.092 A 
ATOM     11  C   UNL     1       9.129  -1.559  23.562  0.00  0.00    +0.208 A 
ENDROOT
BRANCH   1  15
ATOM     12  C   UNL     1       6.667  -5.275  26.234  0.00  0.00    +0.162 A 
ATOM     13  C   UNL     1       7.520  -4.360  26.841  0.00  0.00    +0.050 A 
ATOM     14  C   UNL     1       7.951  -3.229  26.143  0.00  0.00    +0.015 A 
ATOM     15  C   UNL     1       7.489  -2.934  24.848  0.00  0.00    +0.025 A 
ATOM     16  C   UNL     1       6.639  -3.874  24.233  0.00  0.00    +0.061 A 
ATOM     17  C   UNL     1       6.240  -5.044  24.907  0.00  0.00    +0.162 A 
BRANCH  12  19
ATOM     18  C   UNL     1       5.326  -6.278  27.942  0.00  0.00    +0.277 C 
ATOM     19  O   UNL     1       6.208  -6.422  26.836  0.00  0.00    -0.491 OA
ENDBRANCH  12  19
BRANCH  17  20
ATOM     20  O   UNL     1       5.443  -6.027  24.370  0.00  0.00    -0.491 OA
ATOM     21  C   UNL     1       5.366  -6.135  22.959  0.00  0.00    +0.277 C 
ENDBRANCH  17  20
ENDBRANCH   1  15
BRANCH   5  22
ATOM     22  O   UNL     1       9.734   2.171  21.353  0.00  0.00    -0.506 OA
ATOM     23  H   UNL     1       9.481   2.785  20.623  0.00  0.00    +0.292 HD
ENDBRANCH   5  22
BRANCH   7  24
ATOM     24  O   UNL     1       5.527   3.708  23.071  0.00  0.00    -0.495 OA
ATOM     25  C   UNL     1       4.240   3.373  22.553  0.00  0.00    +0.277 C 
ENDBRANCH   7  24
BRANCH  11  26
ATOM     26  O   UNL     1      10.154  -2.486  23.628  0.00  0.00    -0.501 OA
ATOM     27  H   UNL     1      10.466  -2.666  22.725  0.00  0.00    +0.292 HD
ENDBRANCH  11  26
TORSDOF 6
ENDMDL
MODEL 9
REMARK VINA RESULT:      -6.4      2.356      7.897
REMARK  Name = 
REMARK  9 active torsions:
REMARK  status: ('A' for Active; 'I' for Inactive)
REMARK    1  A    between atoms: C_1  and  O_2
REMARK    2  A    between atoms: O_2  and  C_3
REMARK    3  A    between atoms: C_4  and  O_24
REMARK    4  A    between atoms: C_6  and  C_9
REMARK    5  A    between atoms: C_10  and  O_23
REMARK    6  A    between atoms: C_14  and  O_22
REMARK    7  A    between atoms: C_16  and  O_20
REMARK    8  A    between atoms: O_20  and  C_21
REMARK    9  A    between atoms: O_24  and  C_25
REMARK                            x       y       z     vdW  Elec       q    Type
REMARK                         _______ _______ _______ _____ _____    ______ ____
ROOT
ATOM      1  C   UNL     1       7.239  -1.880  23.168  0.00  0.00    +0.181 A 
ATOM      2  O   UNL     1       6.455  -0.760  23.460  0.00  0.00    -0.451 OA
ATOM      3  C   UNL     1       6.932   0.491  23.130  0.00  0.00    +0.147 A 
ATOM      4  C   UNL     1       8.126   0.684  22.447  0.00  0.00    +0.109 A 
ATOM      5  C   UNL     1       8.545   1.972  22.103  0.00  0.00    +0.135 A 
ATOM      6  C   UNL     1       7.783   3.077  22.462  0.00  0.00    +0.092 A 
ATOM      7  C   UNL     1       6.592   2.904  23.166  0.00  0.00    +0.127 A 
ATOM      8  C   UNL     1       8.944  -0.481  22.124  0.00  0.00    +0.238 A 
ATOM      9  O   UNL     1       9.994  -0.340  21.502  0.00  0.00    -0.283 OA
ATOM     10  C   UNL     1       6.169   1.607  23.497  0.00  0.00    +0.092 A 
ATOM     11  C   UNL     1       8.461  -1.803  22.593  0.00  0.00    +0.208 A 
ENDROOT
BRANCH   1  15
ATOM     12  C   UNL     1       5.369  -5.676  24.112  0.00  0.00    +0.162 A 
ATOM     13  C   UNL     1       5.018  -4.972  22.965  0.00  0.00    +0.050 A 
ATOM     14  C   UNL     1       5.596  -3.729  22.697  0.00  0.00    +0.015 A 
ATOM     15  C   UNL     1       6.597  -3.182  23.521  0.00  0.00    +0.025 A 
ATOM     16  C   UNL     1       6.935  -3.892  24.689  0.00  0.00    +0.061 A 
ATOM     17  C   UNL     1       6.320  -5.121  24.997  0.00  0.00    +0.162 A 
BRANCH  12  19
ATOM     18  C   UNL     1       3.429  -6.975  24.629  0.00  0.00    +0.277 C 
ATOM     19  O   UNL     1       4.839  -6.893  24.465  0.00  0.00    -0.491 OA
ENDBRANCH  12  19
BRANCH  17  20
ATOM     20  O   UNL     1       6.565  -5.859  26.130  0.00  0.00    -0.491 OA
ATOM     21  C   UNL     1       7.537  -5.385  27.046  0.00  0.00    +0.277 C 
ENDBRANCH  17  20
ENDBRANCH   1  15
BRANCH   5  22
ATOM     22  O   UNL     1       9.702   2.226  21.414  0.00  0.00    -0.506 OA
ATOM     23  H   UNL     1       9.480   2.288  20.455  0.00  0.00    +0.292 HD
ENDBRANCH   5  22
BRANCH   7  24
ATOM     24  O   UNL     1       5.773   3.921  23.582  0.00  0.00    -0.495 OA
ATOM     25  C   UNL     1       6.406   5.161  23.894  0.00  0.00    +0.277 C 
ENDBRANCH   7  24
BRANCH  11  26
ATOM     26  O   UNL     1       9.320  -2.868  22.389  0.00  0.00    -0.501 OA
ATOM     27  H   UNL     1       9.306  -3.099  21.446  0.00  0.00    +0.292 HD
ENDBRANCH  11  26
TORSDOF 6
ENDMDL
