MODEL 1
REMARK VINA RESULT:      -7.1      0.000      0.000
REMARK  Name = 
REMARK  25 active torsions:
REMARK  status: ('A' for Active; 'I' for Inactive)
REMARK    1  A    between atoms: C_1  and  C_2
REMARK    2  A    between atoms: C_3  and  O_65
REMARK    3  A    between atoms: C_5  and  O_64
REMARK    4  A    between atoms: C_6  and  O_63
REMARK    5  A    between atoms: C_8  and  O_11
REMARK    6  A    between atoms: O_11  and  C_12
REMARK    7  A    between atoms: C_16  and  O_18
REMARK    8  A    between atoms: O_18  and  C_19
REMARK    9  A    between atoms: C_22  and  O_35
REMARK   10  A    between atoms: C_23  and  C_25
REMARK   11  A    between atoms: C_27  and  O_33
REMARK   12  A    between atoms: C_28  and  O_31
REMARK   13  A    between atoms: O_31  and  C_32
REMARK   14  A    between atoms: O_33  and  C_34
REMARK   15  A    between atoms: O_35  and  C_36
REMARK   16  A    between atoms: C_38  and  O_48
REMARK   17  A    between atoms: C_40  and  O_47
REMARK   18  A    between atoms: C_41  and  O_46
REMARK   19  A    between atoms: C_43  and  C_45
REMARK   20  A    between atoms: O_48  and  C_49
REMARK   21  A    between atoms: C_51  and  O_62
REMARK   22  A    between atoms: C_52  and  O_61
REMARK   23  A    between atoms: C_54  and  O_60
REMARK   24  A    between atoms: C_56  and  C_58
REMARK   25  A    between atoms: C_58  and  O_59
REMARK                            x       y       z     vdW  Elec       q    Type
REMARK                         _______ _______ _______ _____ _____    ______ ____
ROOT
ATOM      1  C   UNL     1       4.532  -3.415  27.151  0.00  0.00    +0.131 A 
ATOM      2  C   UNL     1       5.873  -3.792  27.070  0.00  0.00    +0.092 A 
ATOM      3  C   UNL     1       6.897  -2.840  26.829  0.00  0.00    +0.138 A 
ATOM      4  C   UNL     1       6.581  -1.468  26.732  0.00  0.00    +0.109 A 
ATOM      5  C   UNL     1       7.567  -0.329  26.676  0.00  0.00    +0.238 A 
ATOM      6  C   UNL     1       7.025   1.060  26.293  0.00  0.00    +0.214 A 
ATOM      7  C   UNL     1       5.673   1.130  26.097  0.00  0.00    +0.181 A 
ATOM      8  O   UNL     1       4.791   0.124  26.466  0.00  0.00    -0.451 OA
ATOM      9  O   UNL     1       8.757  -0.498  26.883  0.00  0.00    -0.283 OA
ATOM     10  C   UNL     1       5.241  -1.132  26.728  0.00  0.00    +0.147 A 
ATOM     11  C   UNL     1       4.229  -2.077  26.951  0.00  0.00    +0.093 A 
ENDROOT
BRANCH   7  12
ATOM     12  C   UNL     1       4.848   2.236  25.535  0.00  0.00    +0.025 A 
ATOM     13  C   UNL     1       4.345   3.245  26.372  0.00  0.00    +0.015 A 
ATOM     14  C   UNL     1       3.591   4.302  25.851  0.00  0.00    +0.050 A 
ATOM     15  C   UNL     1       3.371   4.393  24.476  0.00  0.00    +0.162 A 
ATOM     16  C   UNL     1       3.847   3.377  23.630  0.00  0.00    +0.162 A 
ATOM     17  C   UNL     1       4.491   2.263  24.180  0.00  0.00    +0.061 A 
BRANCH  16  18
ATOM     18  O   UNL     1       3.700   3.613  22.287  0.00  0.00    -0.491 OA
ATOM     19  C   UNL     1       2.544   3.113  21.639  0.00  0.00    +0.277 C 
ENDBRANCH  16  18
BRANCH  15  20
ATOM     20  O   UNL     1       2.728   5.434  23.859  0.00  0.00    -0.491 OA
ATOM     21  C   UNL     1       1.483   5.840  24.402  0.00  0.00    +0.277 C 
ENDBRANCH  15  20
ENDBRANCH   7  12
BRANCH   3  22
ATOM     22  O   UNL     1       8.202  -3.225  26.667  0.00  0.00    -0.494 OA
ATOM     23  C   UNL     1       8.424  -4.637  26.657  0.00  0.00    +0.277 C 
ENDBRANCH   3  22
BRANCH   6  24
ATOM     24  O   UNL     1       8.024   2.049  26.228  0.00  0.00    -0.453 OA
BRANCH  24  25
ATOM     25  C   UNL     1       8.619   2.487  25.004  0.00  0.00    +0.340 C 
ATOM     26  O   UNL     1       8.517   3.925  24.869  0.00  0.00    -0.334 OA
ATOM     27  C   UNL     1       7.431   4.444  24.099  0.00  0.00    +0.150 C 
ATOM     28  C   UNL     1       7.505   5.980  24.085  0.00  0.00    +0.041 C 
ATOM     29  C   UNL     1       7.555   3.955  22.665  0.00  0.00    +0.174 C 
ATOM     30  C   UNL     1       7.458   2.434  22.626  0.00  0.00    +0.180 C 
ATOM     31  C   UNL     1       8.365   1.709  23.659  0.00  0.00    +0.221 C 
BRANCH  30  32
ATOM     32  O   UNL     1       7.799   1.994  21.299  0.00  0.00    -0.386 OA
ATOM     33  H   UNL     1       7.451   1.102  21.155  0.00  0.00    +0.210 HD
ENDBRANCH  30  32
BRANCH  29  34
ATOM     34  O   UNL     1       6.569   4.553  21.812  0.00  0.00    -0.387 OA
ATOM     35  H   UNL     1       6.989   5.260  21.292  0.00  0.00    +0.210 HD
ENDBRANCH  29  34
BRANCH  31  36
ATOM     36  O   UNL     1       8.364   0.243  23.619  0.00  0.00    -0.337 OA
BRANCH  36  37
ATOM     37  C   UNL     1       7.955  -0.474  22.437  0.00  0.00    +0.282 C 
ATOM     38  O   UNL     1       6.680  -1.175  22.631  0.00  0.00    -0.341 OA
ATOM     39  C   UNL     1       6.701  -2.345  23.493  0.00  0.00    +0.178 C 
ATOM     40  C   UNL     1       7.841  -3.342  23.151  0.00  0.00    +0.177 C 
ATOM     41  C   UNL     1       9.145  -2.581  23.055  0.00  0.00    +0.179 C 
ATOM     42  C   UNL     1       8.985  -1.501  21.969  0.00  0.00    +0.201 C 
BRANCH  42  43
ATOM     43  O   UNL     1      10.224  -0.907  21.580  0.00  0.00    -0.384 OA
ATOM     44  H   UNL     1      10.464  -0.264  22.268  0.00  0.00    +0.210 HD
ENDBRANCH  42  43
BRANCH  41  45
ATOM     45  O   UNL     1       9.407  -2.173  24.388  0.00  0.00    -0.386 OA
ATOM     46  H   UNL     1      10.363  -1.980  24.506  0.00  0.00    +0.210 HD
ENDBRANCH  41  45
BRANCH  40  47
ATOM     47  O   UNL     1       7.612  -4.039  21.922  0.00  0.00    -0.386 OA
ATOM     48  H   UNL     1       6.664  -4.254  21.878  0.00  0.00    +0.210 HD
ENDBRANCH  40  47
BRANCH  39  49
ATOM     49  C   UNL     1       5.390  -3.170  23.468  0.00  0.00    +0.190 C 
BRANCH  49  50
ATOM     50  O   UNL     1       4.969  -3.552  22.164  0.00  0.00    -0.392 OA
ATOM     51  H   UNL     1       4.350  -2.876  21.846  0.00  0.00    +0.210 HD
ENDBRANCH  49  50
ENDBRANCH  39  49
ENDBRANCH  36  37
ENDBRANCH  31  36
ENDBRANCH  24  25
ENDBRANCH   6  24
BRANCH   1  52
ATOM     52  O   UNL     1       3.629  -4.420  27.407  0.00  0.00    -0.461 OA
BRANCH  52  56
ATOM     53  C   UNL     1       0.539  -5.685  24.736  0.00  0.00    +0.041 C 
ATOM     54  C   UNL     1       1.364  -6.668  25.566  0.00  0.00    +0.150 C 
ATOM     55  O   UNL     1       2.029  -6.006  26.648  0.00  0.00    -0.334 OA
ATOM     56  C   UNL     1       3.102  -5.131  26.269  0.00  0.00    +0.339 C 
ATOM     57  C   UNL     1       4.209  -5.942  25.547  0.00  0.00    +0.214 C 
ATOM     58  C   UNL     1       3.584  -6.644  24.326  0.00  0.00    +0.180 C 
ATOM     59  C   UNL     1       2.358  -7.480  24.726  0.00  0.00    +0.174 C 
BRANCH  59  60
ATOM     60  O   UNL     1       2.822  -8.614  25.483  0.00  0.00    -0.387 OA
ATOM     61  H   UNL     1       3.169  -8.257  26.332  0.00  0.00    +0.210 HD
ENDBRANCH  59  60
BRANCH  58  62
ATOM     62  O   UNL     1       4.564  -7.501  23.716  0.00  0.00    -0.386 OA
ATOM     63  H   UNL     1       5.171  -6.906  23.227  0.00  0.00    +0.210 HD
ENDBRANCH  58  62
BRANCH  57  64
ATOM     64  O   UNL     1       4.787  -6.951  26.400  0.00  0.00    -0.383 OA
ATOM     65  H   UNL     1       5.676  -7.121  26.030  0.00  0.00    +0.210 HD
ENDBRANCH  57  64
ENDBRANCH  52  56
ENDBRANCH   1  52
TORSDOF 20
ENDMDL
MODEL 2
REMARK VINA RESULT:      -7.0      1.292      1.575
REMARK  Name = 
REMARK  25 active torsions:
REMARK  status: ('A' for Active; 'I' for Inactive)
REMARK    1  A    between atoms: C_1  and  C_2
REMARK    2  A    between atoms: C_3  and  O_65
REMARK    3  A    between atoms: C_5  and  O_64
REMARK    4  A    between atoms: C_6  and  O_63
REMARK    5  A    between atoms: C_8  and  O_11
REMARK    6  A    between atoms: O_11  and  C_12
REMARK    7  A    between atoms: C_16  and  O_18
REMARK    8  A    between atoms: O_18  and  C_19
REMARK    9  A    between atoms: C_22  and  O_35
REMARK   10  A    between atoms: C_23  and  C_25
REMARK   11  A    between atoms: C_27  and  O_33
REMARK   12  A    between atoms: C_28  and  O_31
REMARK   13  A    between atoms: O_31  and  C_32
REMARK   14  A    between atoms: O_33  and  C_34
REMARK   15  A    between atoms: O_35  and  C_36
REMARK   16  A    between atoms: C_38  and  O_48
REMARK   17  A    between atoms: C_40  and  O_47
REMARK   18  A    between atoms: C_41  and  O_46
REMARK   19  A    between atoms: C_43  and  C_45
REMARK   20  A    between atoms: O_48  and  C_49
REMARK   21  A    between atoms: C_51  and  O_62
REMARK   22  A    between atoms: C_52  and  O_61
REMARK   23  A    between atoms: C_54  and  O_60
REMARK   24  A    between atoms: C_56  and  C_58
REMARK   25  A    between atoms: C_58  and  O_59
REMARK                            x       y       z     vdW  Elec       q    Type
REMARK                         _______ _______ _______ _____ _____    ______ ____
ROOT
ATOM      1  C   UNL     1       4.596  -3.029  26.488  0.00  0.00    +0.131 A 
ATOM      2  C   UNL     1       5.978  -3.182  26.606  0.00  0.00    +0.092 A 
ATOM      3  C   UNL     1       6.848  -2.062  26.624  0.00  0.00    +0.138 A 
ATOM      4  C   UNL     1       6.321  -0.754  26.590  0.00  0.00    +0.109 A 
ATOM      5  C   UNL     1       7.094   0.523  26.798  0.00  0.00    +0.238 A 
ATOM      6  C   UNL     1       6.388   1.845  26.446  0.00  0.00    +0.214 A 
ATOM      7  C   UNL     1       5.091   1.727  26.028  0.00  0.00    +0.181 A 
ATOM      8  O   UNL     1       4.348   0.561  26.155  0.00  0.00    -0.451 OA
ATOM      9  O   UNL     1       8.249   0.519  27.191  0.00  0.00    -0.283 OA
ATOM     10  C   UNL     1       4.960  -0.631  26.384  0.00  0.00    +0.147 A 
ATOM     11  C   UNL     1       4.103  -1.741  26.351  0.00  0.00    +0.093 A 
ENDROOT
BRANCH   7  12
ATOM     12  C   UNL     1       4.186   2.746  25.428  0.00  0.00    +0.025 A 
ATOM     13  C   UNL     1       3.521   3.677  26.243  0.00  0.00    +0.015 A 
ATOM     14  C   UNL     1       2.689   4.654  25.688  0.00  0.00    +0.050 A 
ATOM     15  C   UNL     1       2.549   4.749  24.303  0.00  0.00    +0.162 A 
ATOM     16  C   UNL     1       3.188   3.809  23.476  0.00  0.00    +0.162 A 
ATOM     17  C   UNL     1       3.915   2.761  24.052  0.00  0.00    +0.061 A 
BRANCH  16  18
ATOM     18  O   UNL     1       3.102   4.054  22.129  0.00  0.00    -0.491 OA
ATOM     19  C   UNL     1       2.331   3.173  21.333  0.00  0.00    +0.277 C 
ENDBRANCH  16  18
BRANCH  15  20
ATOM     20  O   UNL     1       1.835   5.725  23.658  0.00  0.00    -0.491 OA
ATOM     21  C   UNL     1       2.271   7.064  23.824  0.00  0.00    +0.277 C 
ENDBRANCH  15  20
ENDBRANCH   7  12
BRANCH   3  22
ATOM     22  O   UNL     1       8.209  -2.219  26.656  0.00  0.00    -0.494 OA
ATOM     23  C   UNL     1       8.671  -3.562  26.489  0.00  0.00    +0.277 C 
ENDBRANCH   3  22
BRANCH   6  24
ATOM     24  O   UNL     1       7.200   2.979  26.635  0.00  0.00    -0.453 OA
BRANCH  24  25
ATOM     25  C   UNL     1       7.825   3.688  25.563  0.00  0.00    +0.340 C 
ATOM     26  O   UNL     1       7.419   5.077  25.560  0.00  0.00    -0.334 OA
ATOM     27  C   UNL     1       6.345   5.453  24.696  0.00  0.00    +0.150 C 
ATOM     28  C   UNL     1       6.071   6.958  24.848  0.00  0.00    +0.041 C 
ATOM     29  C   UNL     1       6.747   5.193  23.253  0.00  0.00    +0.174 C 
ATOM     30  C   UNL     1       7.001   3.704  23.047  0.00  0.00    +0.180 C 
ATOM     31  C   UNL     1       7.917   3.056  24.123  0.00  0.00    +0.221 C 
BRANCH  30  32
ATOM     32  O   UNL     1       7.590   3.522  21.746  0.00  0.00    -0.386 OA
ATOM     33  H   UNL     1       7.020   3.924  21.075  0.00  0.00    +0.210 HD
ENDBRANCH  30  32
BRANCH  29  34
ATOM     34  O   UNL     1       5.762   5.677  22.329  0.00  0.00    -0.387 OA
ATOM     35  H   UNL     1       5.762   6.649  22.351  0.00  0.00    +0.210 HD
ENDBRANCH  29  34
BRANCH  31  36
ATOM     36  O   UNL     1       8.251   1.641  23.935  0.00  0.00    -0.337 OA
BRANCH  36  37
ATOM     37  C   UNL     1       8.215   1.029  22.631  0.00  0.00    +0.282 C 
ATOM     38  O   UNL     1       7.611  -0.309  22.666  0.00  0.00    -0.341 OA
ATOM     39  C   UNL     1       8.395  -1.364  23.284  0.00  0.00    +0.178 C 
ATOM     40  C   UNL     1       9.858  -1.426  22.770  0.00  0.00    +0.177 C 
ATOM     41  C   UNL     1      10.462  -0.040  22.844  0.00  0.00    +0.179 C 
ATOM     42  C   UNL     1       9.594   0.901  21.987  0.00  0.00    +0.201 C 
BRANCH  42  43
ATOM     43  O   UNL     1      10.210   2.164  21.738  0.00  0.00    -0.384 OA
ATOM     44  H   UNL     1       9.968   2.429  20.835  0.00  0.00    +0.210 HD
ENDBRANCH  42  43
BRANCH  41  45
ATOM     45  O   UNL     1      10.575   0.217  24.234  0.00  0.00    -0.386 OA
ATOM     46  H   UNL     1      11.304  -0.314  24.622  0.00  0.00    +0.210 HD
ENDBRANCH  41  45
BRANCH  40  47
ATOM     47  O   UNL     1       9.951  -1.908  21.427  0.00  0.00    -0.386 OA
ATOM     48  H   UNL     1       9.743  -1.166  20.832  0.00  0.00    +0.210 HD
ENDBRANCH  40  47
BRANCH  39  49
ATOM     49  C   UNL     1       7.811  -2.786  23.081  0.00  0.00    +0.190 C 
BRANCH  49  50
ATOM     50  O   UNL     1       7.028  -2.927  21.902  0.00  0.00    -0.392 OA
ATOM     51  H   UNL     1       6.143  -2.577  22.094  0.00  0.00    +0.210 HD
ENDBRANCH  49  50
ENDBRANCH  39  49
ENDBRANCH  36  37
ENDBRANCH  31  36
ENDBRANCH  24  25
ENDBRANCH   6  24
BRANCH   1  52
ATOM     52  O   UNL     1       3.849  -4.184  26.501  0.00  0.00    -0.461 OA
BRANCH  52  56
ATOM     53  C   UNL     1       0.789  -4.894  23.600  0.00  0.00    +0.041 C 
ATOM     54  C   UNL     1       1.623  -6.020  24.210  0.00  0.00    +0.150 C 
ATOM     55  O   UNL     1       2.274  -5.594  25.413  0.00  0.00    -0.334 OA
ATOM     56  C   UNL     1       3.338  -4.645  25.234  0.00  0.00    +0.339 C 
ATOM     57  C   UNL     1       4.458  -5.273  24.365  0.00  0.00    +0.214 C 
ATOM     58  C   UNL     1       3.848  -5.709  23.020  0.00  0.00    +0.180 C 
ATOM     59  C   UNL     1       2.631  -6.625  23.225  0.00  0.00    +0.174 C 
BRANCH  59  60
ATOM     60  O   UNL     1       3.106  -7.888  23.729  0.00  0.00    -0.387 OA
ATOM     61  H   UNL     1       2.997  -7.855  24.707  0.00  0.00    +0.210 HD
ENDBRANCH  59  60
BRANCH  58  62
ATOM     62  O   UNL     1       4.842  -6.406  22.249  0.00  0.00    -0.386 OA
ATOM     63  H   UNL     1       5.368  -6.922  22.896  0.00  0.00    +0.210 HD
ENDBRANCH  58  62
BRANCH  57  64
ATOM     64  O   UNL     1       5.045  -6.432  24.991  0.00  0.00    -0.383 OA
ATOM     65  H   UNL     1       4.650  -6.468  25.886  0.00  0.00    +0.210 HD
ENDBRANCH  57  64
ENDBRANCH  52  56
ENDBRANCH   1  52
TORSDOF 20
ENDMDL
MODEL 3
REMARK VINA RESULT:      -6.6      1.542      2.206
REMARK  Name = 
REMARK  25 active torsions:
REMARK  status: ('A' for Active; 'I' for Inactive)
REMARK    1  A    between atoms: C_1  and  C_2
REMARK    2  A    between atoms: C_3  and  O_65
REMARK    3  A    between atoms: C_5  and  O_64
REMARK    4  A    between atoms: C_6  and  O_63
REMARK    5  A    between atoms: C_8  and  O_11
REMARK    6  A    between atoms: O_11  and  C_12
REMARK    7  A    between atoms: C_16  and  O_18
REMARK    8  A    between atoms: O_18  and  C_19
REMARK    9  A    between atoms: C_22  and  O_35
REMARK   10  A    between atoms: C_23  and  C_25
REMARK   11  A    between atoms: C_27  and  O_33
REMARK   12  A    between atoms: C_28  and  O_31
REMARK   13  A    between atoms: O_31  and  C_32
REMARK   14  A    between atoms: O_33  and  C_34
REMARK   15  A    between atoms: O_35  and  C_36
REMARK   16  A    between atoms: C_38  and  O_48
REMARK   17  A    between atoms: C_40  and  O_47
REMARK   18  A    between atoms: C_41  and  O_46
REMARK   19  A    between atoms: C_43  and  C_45
REMARK   20  A    between atoms: O_48  and  C_49
REMARK   21  A    between atoms: C_51  and  O_62
REMARK   22  A    between atoms: C_52  and  O_61
REMARK   23  A    between atoms: C_54  and  O_60
REMARK   24  A    between atoms: C_56  and  C_58
REMARK   25  A    between atoms: C_58  and  O_59
REMARK                            x       y       z     vdW  Elec       q    Type
REMARK                         _______ _______ _______ _____ _____    ______ ____
ROOT
ATOM      1  C   UNL     1       4.663  -3.277  25.886  0.00  0.00    +0.131 A 
ATOM      2  C   UNL     1       6.043  -3.437  26.003  0.00  0.00    +0.092 A 
ATOM      3  C   UNL     1       6.905  -2.324  26.178  0.00  0.00    +0.138 A 
ATOM      4  C   UNL     1       6.370  -1.025  26.306  0.00  0.00    +0.109 A 
ATOM      5  C   UNL     1       7.131   0.219  26.689  0.00  0.00    +0.238 A 
ATOM      6  C   UNL     1       6.420   1.571  26.500  0.00  0.00    +0.214 A 
ATOM      7  C   UNL     1       5.130   1.501  26.052  0.00  0.00    +0.181 A 
ATOM      8  O   UNL     1       4.394   0.325  26.016  0.00  0.00    -0.451 OA
ATOM      9  O   UNL     1       8.280   0.170  27.095  0.00  0.00    -0.283 OA
ATOM     10  C   UNL     1       5.010  -0.884  26.099  0.00  0.00    +0.147 A 
ATOM     11  C   UNL     1       4.162  -1.985  25.910  0.00  0.00    +0.093 A 
ENDROOT
BRANCH   7  12
ATOM     12  C   UNL     1       4.226   2.585  25.576  0.00  0.00    +0.025 A 
ATOM     13  C   UNL     1       3.550   3.404  26.494  0.00  0.00    +0.015 A 
ATOM     14  C   UNL     1       2.719   4.440  26.058  0.00  0.00    +0.050 A 
ATOM     15  C   UNL     1       2.591   4.707  24.694  0.00  0.00    +0.162 A 
ATOM     16  C   UNL     1       3.241   3.880  23.763  0.00  0.00    +0.162 A 
ATOM     17  C   UNL     1       3.967   2.771  24.210  0.00  0.00    +0.061 A 
BRANCH  16  18
ATOM     18  O   UNL     1       3.166   4.292  22.456  0.00  0.00    -0.491 OA
ATOM     19  C   UNL     1       2.730   3.361  21.482  0.00  0.00    +0.277 C 
ENDBRANCH  16  18
BRANCH  15  20
ATOM     20  O   UNL     1       1.878   5.754  24.170  0.00  0.00    -0.491 OA
ATOM     21  C   UNL     1       0.850   6.306  24.975  0.00  0.00    +0.277 C 
ENDBRANCH  15  20
ENDBRANCH   7  12
BRANCH   3  22
ATOM     22  O   UNL     1       8.267  -2.477  26.210  0.00  0.00    -0.494 OA
ATOM     23  C   UNL     1       8.724  -3.794  26.527  0.00  0.00    +0.277 C 
ENDBRANCH   3  22
BRANCH   6  24
ATOM     24  O   UNL     1       7.222   2.675  26.846  0.00  0.00    -0.453 OA
BRANCH  24  25
ATOM     25  C   UNL     1       7.852   3.523  25.884  0.00  0.00    +0.340 C 
ATOM     26  O   UNL     1       7.431   4.897  26.057  0.00  0.00    -0.334 OA
ATOM     27  C   UNL     1       6.363   5.374  25.235  0.00  0.00    +0.150 C 
ATOM     28  C   UNL     1       6.072   6.844  25.579  0.00  0.00    +0.041 C 
ATOM     29  C   UNL     1       6.785   5.308  23.776  0.00  0.00    +0.174 C 
ATOM     30  C   UNL     1       7.057   3.860  23.381  0.00  0.00    +0.180 C 
ATOM     31  C   UNL     1       7.967   3.085  24.375  0.00  0.00    +0.221 C 
BRANCH  30  32
ATOM     32  O   UNL     1       7.663   3.855  22.076  0.00  0.00    -0.386 OA
ATOM     33  H   UNL     1       8.024   4.732  21.884  0.00  0.00    +0.210 HD
ENDBRANCH  30  32
BRANCH  29  34
ATOM     34  O   UNL     1       5.806   5.899  22.911  0.00  0.00    -0.387 OA
ATOM     35  H   UNL     1       6.225   6.106  22.057  0.00  0.00    +0.210 HD
ENDBRANCH  29  34
BRANCH  31  36
ATOM     36  O   UNL     1       8.317   1.710  24.009  0.00  0.00    -0.337 OA
BRANCH  36  37
ATOM     37  C   UNL     1       8.215   1.248  22.648  0.00  0.00    +0.282 C 
ATOM     38  O   UNL     1       7.490  -0.024  22.550  0.00  0.00    -0.341 OA
ATOM     39  C   UNL     1       8.177  -1.208  23.039  0.00  0.00    +0.178 C 
ATOM     40  C   UNL     1       9.624  -1.348  22.497  0.00  0.00    +0.177 C 
ATOM     41  C   UNL     1      10.354  -0.039  22.708  0.00  0.00    +0.179 C 
ATOM     42  C   UNL     1       9.572   1.063  21.970  0.00  0.00    +0.201 C 
BRANCH  42  43
ATOM     43  O   UNL     1      10.302   2.284  21.847  0.00  0.00    -0.384 OA
ATOM     44  H   UNL     1      10.842   2.216  21.041  0.00  0.00    +0.210 HD
ENDBRANCH  42  43
BRANCH  41  45
ATOM     45  O   UNL     1      10.501   0.054  24.115  0.00  0.00    -0.386 OA
ATOM     46  H   UNL     1       9.670   0.379  24.525  0.00  0.00    +0.210 HD
ENDBRANCH  41  45
BRANCH  40  47
ATOM     47  O   UNL     1       9.662  -1.690  21.109  0.00  0.00    -0.386 OA
ATOM     48  H   UNL     1      10.369  -1.164  20.695  0.00  0.00    +0.210 HD
ENDBRANCH  40  47
BRANCH  39  49
ATOM     49  C   UNL     1       7.461  -2.540  22.695  0.00  0.00    +0.190 C 
BRANCH  49  50
ATOM     50  O   UNL     1       8.152  -3.701  23.142  0.00  0.00    -0.392 OA
ATOM     51  H   UNL     1       7.789  -3.943  24.008  0.00  0.00    +0.210 HD
ENDBRANCH  49  50
ENDBRANCH  39  49
ENDBRANCH  36  37
ENDBRANCH  31  36
ENDBRANCH  24  25
ENDBRANCH   6  24
BRANCH   1  52
ATOM     52  O   UNL     1       3.924  -4.428  25.739  0.00  0.00    -0.461 OA
BRANCH  52  56
ATOM     53  C   UNL     1       2.408  -4.157  29.728  0.00  0.00    +0.041 C 
ATOM     54  C   UNL     1       3.458  -5.188  29.313  0.00  0.00    +0.150 C 
ATOM     55  O   UNL     1       4.084  -4.826  28.077  0.00  0.00    -0.334 OA
ATOM     56  C   UNL     1       3.250  -4.926  26.912  0.00  0.00    +0.339 C 
ATOM     57  C   UNL     1       2.792  -6.395  26.721  0.00  0.00    +0.214 C 
ATOM     58  C   UNL     1       2.053  -6.846  27.995  0.00  0.00    +0.180 C 
ATOM     59  C   UNL     1       2.908  -6.618  29.252  0.00  0.00    +0.174 C 
BRANCH  59  60
ATOM     60  O   UNL     1       3.998  -7.558  29.223  0.00  0.00    -0.387 OA
ATOM     61  H   UNL     1       4.807  -7.053  29.465  0.00  0.00    +0.210 HD
ENDBRANCH  59  60
BRANCH  58  62
ATOM     62  O   UNL     1       1.729  -8.243  27.889  0.00  0.00    -0.386 OA
ATOM     63  H   UNL     1       0.773  -8.281  27.675  0.00  0.00    +0.210 HD
ENDBRANCH  58  62
BRANCH  57  64
ATOM     64  O   UNL     1       3.904  -7.287  26.505  0.00  0.00    -0.383 OA
ATOM     65  H   UNL     1       3.836  -7.958  27.214  0.00  0.00    +0.210 HD
ENDBRANCH  57  64
ENDBRANCH  52  56
ENDBRANCH   1  52
TORSDOF 20
ENDMDL
MODEL 4
REMARK VINA RESULT:      -6.3      2.349      8.870
REMARK  Name = 
REMARK  25 active torsions:
REMARK  status: ('A' for Active; 'I' for Inactive)
REMARK    1  A    between atoms: C_1  and  C_2
REMARK    2  A    between atoms: C_3  and  O_65
REMARK    3  A    between atoms: C_5  and  O_64
REMARK    4  A    between atoms: C_6  and  O_63
REMARK    5  A    between atoms: C_8  and  O_11
REMARK    6  A    between atoms: O_11  and  C_12
REMARK    7  A    between atoms: C_16  and  O_18
REMARK    8  A    between atoms: O_18  and  C_19
REMARK    9  A    between atoms: C_22  and  O_35
REMARK   10  A    between atoms: C_23  and  C_25
REMARK   11  A    between atoms: C_27  and  O_33
REMARK   12  A    between atoms: C_28  and  O_31
REMARK   13  A    between atoms: O_31  and  C_32
REMARK   14  A    between atoms: O_33  and  C_34
REMARK   15  A    between atoms: O_35  and  C_36
REMARK   16  A    between atoms: C_38  and  O_48
REMARK   17  A    between atoms: C_40  and  O_47
REMARK   18  A    between atoms: C_41  and  O_46
REMARK   19  A    between atoms: C_43  and  C_45
REMARK   20  A    between atoms: O_48  and  C_49
REMARK   21  A    between atoms: C_51  and  O_62
REMARK   22  A    between atoms: C_52  and  O_61
REMARK   23  A    between atoms: C_54  and  O_60
REMARK   24  A    between atoms: C_56  and  C_58
REMARK   25  A    between atoms: C_58  and  O_59
REMARK                            x       y       z     vdW  Elec       q    Type
REMARK                         _______ _______ _______ _____ _____    ______ ____
ROOT
ATOM      1  C   UNL     1       7.551   1.893  22.439  0.00  0.00    +0.131 A 
ATOM      2  C   UNL     1       8.895   1.531  22.524  0.00  0.00    +0.092 A 
ATOM      3  C   UNL     1       9.309   0.383  23.246  0.00  0.00    +0.138 A 
ATOM      4  C   UNL     1       8.351  -0.462  23.844  0.00  0.00    +0.109 A 
ATOM      5  C   UNL     1       8.617  -1.808  24.469  0.00  0.00    +0.238 A 
ATOM      6  C   UNL     1       7.489  -2.436  25.307  0.00  0.00    +0.214 A 
ATOM      7  C   UNL     1       6.322  -1.724  25.350  0.00  0.00    +0.181 A 
ATOM      8  O   UNL     1       6.042  -0.658  24.507  0.00  0.00    -0.451 OA
ATOM      9  O   UNL     1       9.695  -2.367  24.357  0.00  0.00    -0.283 OA
ATOM     10  C   UNL     1       7.037  -0.036  23.821  0.00  0.00    +0.147 A 
ATOM     11  C   UNL     1       6.632   1.109  23.119  0.00  0.00    +0.093 A 
ENDROOT
BRANCH   7  12
ATOM     12  C   UNL     1       5.117  -1.922  26.203  0.00  0.00    +0.025 A 
ATOM     13  C   UNL     1       5.050  -1.352  27.485  0.00  0.00    +0.015 A 
ATOM     14  C   UNL     1       3.913  -1.510  28.284  0.00  0.00    +0.050 A 
ATOM     15  C   UNL     1       2.803  -2.198  27.792  0.00  0.00    +0.162 A 
ATOM     16  C   UNL     1       2.865  -2.795  26.522  0.00  0.00    +0.162 A 
ATOM     17  C   UNL     1       4.054  -2.736  25.786  0.00  0.00    +0.061 A 
BRANCH  16  18
ATOM     18  O   UNL     1       1.689  -3.336  26.068  0.00  0.00    -0.491 OA
ATOM     19  C   UNL     1       1.711  -4.073  24.859  0.00  0.00    +0.277 C 
ENDBRANCH  16  18
BRANCH  15  20
ATOM     20  O   UNL     1       1.611  -2.328  28.457  0.00  0.00    -0.491 OA
ATOM     21  C   UNL     1       1.669  -2.525  29.860  0.00  0.00    +0.277 C 
ENDBRANCH  15  20
ENDBRANCH   7  12
BRANCH   3  22
ATOM     22  O   UNL     1      10.637   0.078  23.396  0.00  0.00    -0.494 OA
ATOM     23  C   UNL     1      11.293   0.733  24.485  0.00  0.00    +0.277 C 
ENDBRANCH   3  22
BRANCH   6  24
ATOM     24  O   UNL     1       7.843  -3.671  25.881  0.00  0.00    -0.453 OA
BRANCH  24  25
ATOM     25  C   UNL     1       7.490  -4.934  25.313  0.00  0.00    +0.340 C 
ATOM     26  O   UNL     1       7.767  -4.954  23.892  0.00  0.00    -0.334 OA
ATOM     27  C   UNL     1       6.688  -4.665  23.001  0.00  0.00    +0.150 C 
ATOM     28  C   UNL     1       7.193  -4.733  21.551  0.00  0.00    +0.041 C 
ATOM     29  C   UNL     1       5.603  -5.716  23.171  0.00  0.00    +0.174 C 
ATOM     30  C   UNL     1       5.050  -5.665  24.591  0.00  0.00    +0.180 C 
ATOM     31  C   UNL     1       6.139  -5.644  25.700  0.00  0.00    +0.221 C 
BRANCH  30  32
ATOM     32  O   UNL     1       4.194  -6.805  24.783  0.00  0.00    -0.386 OA
ATOM     33  H   UNL     1       4.724  -7.561  25.072  0.00  0.00    +0.210 HD
ENDBRANCH  30  32
BRANCH  29  34
ATOM     34  O   UNL     1       4.552  -5.557  22.207  0.00  0.00    -0.387 OA
ATOM     35  H   UNL     1       4.099  -6.410  22.093  0.00  0.00    +0.210 HD
ENDBRANCH  29  34
BRANCH  31  36
ATOM     36  O   UNL     1       5.663  -5.665  27.087  0.00  0.00    -0.337 OA
BRANCH  36  37
ATOM     37  C   UNL     1       5.019  -6.830  27.641  0.00  0.00    +0.282 C 
ATOM     38  O   UNL     1       3.559  -6.771  27.503  0.00  0.00    -0.341 OA
ATOM     39  C   UNL     1       2.860  -5.819  28.351  0.00  0.00    +0.178 C 
ATOM     40  C   UNL     1       3.277  -5.902  29.843  0.00  0.00    +0.177 C 
ATOM     41  C   UNL     1       4.788  -5.865  29.932  0.00  0.00    +0.179 C 
ATOM     42  C   UNL     1       5.339  -7.050  29.118  0.00  0.00    +0.201 C 
BRANCH  42  43
ATOM     43  O   UNL     1       6.724  -7.299  29.355  0.00  0.00    -0.384 OA
ATOM     44  H   UNL     1       6.903  -8.216  29.087  0.00  0.00    +0.210 HD
ENDBRANCH  42  43
BRANCH  41  45
ATOM     45  O   UNL     1       5.127  -4.547  29.533  0.00  0.00    -0.386 OA
ATOM     46  H   UNL     1       5.468  -4.034  30.297  0.00  0.00    +0.210 HD
ENDBRANCH  41  45
BRANCH  40  47
ATOM     47  O   UNL     1       2.797  -7.087  30.485  0.00  0.00    -0.386 OA
ATOM     48  H   UNL     1       3.040  -7.844  29.924  0.00  0.00    +0.210 HD
ENDBRANCH  40  47
BRANCH  39  49
ATOM     49  C   UNL     1       1.317  -5.969  28.330  0.00  0.00    +0.190 C 
BRANCH  49  50
ATOM     50  O   UNL     1       0.866  -7.247  27.899  0.00  0.00    -0.392 OA
ATOM     51  H   UNL     1       0.823  -7.822  28.679  0.00  0.00    +0.210 HD
ENDBRANCH  49  50
ENDBRANCH  39  49
ENDBRANCH  36  37
ENDBRANCH  31  36
ENDBRANCH  24  25
ENDBRANCH   6  24
BRANCH   1  52
ATOM     52  O   UNL     1       7.264   3.015  21.696  0.00  0.00    -0.461 OA
BRANCH  52  56
ATOM     53  C   UNL     1       9.542   6.148  23.506  0.00  0.00    +0.041 C 
ATOM     54  C   UNL     1       8.454   5.379  24.257  0.00  0.00    +0.150 C 
ATOM     55  O   UNL     1       8.132   4.152  23.595  0.00  0.00    -0.334 OA
ATOM     56  C   UNL     1       7.437   4.290  22.345  0.00  0.00    +0.339 C 
ATOM     57  C   UNL     1       6.077   4.996  22.578  0.00  0.00    +0.214 C 
ATOM     58  C   UNL     1       6.341   6.362  23.241  0.00  0.00    +0.180 C 
ATOM     59  C   UNL     1       7.193   6.214  24.512  0.00  0.00    +0.174 C 
BRANCH  59  60
ATOM     60  O   UNL     1       6.382   5.577  25.517  0.00  0.00    -0.387 OA
ATOM     61  H   UNL     1       5.767   4.976  25.037  0.00  0.00    +0.210 HD
ENDBRANCH  59  60
BRANCH  58  62
ATOM     62  O   UNL     1       5.087   6.978  23.579  0.00  0.00    -0.386 OA
ATOM     63  H   UNL     1       5.041   7.800  23.047  0.00  0.00    +0.210 HD
ENDBRANCH  58  62
BRANCH  57  64
ATOM     64  O   UNL     1       5.211   4.235  23.444  0.00  0.00    -0.383 OA
ATOM     65  H   UNL     1       5.323   3.304  23.165  0.00  0.00    +0.210 HD
ENDBRANCH  57  64
ENDBRANCH  52  56
ENDBRANCH   1  52
TORSDOF 20
ENDMDL
MODEL 5
REMARK VINA RESULT:      -6.3      2.379      4.308
REMARK  Name = 
REMARK  25 active torsions:
REMARK  status: ('A' for Active; 'I' for Inactive)
REMARK    1  A    between atoms: C_1  and  C_2
REMARK    2  A    between atoms: C_3  and  O_65
REMARK    3  A    between atoms: C_5  and  O_64
REMARK    4  A    between atoms: C_6  and  O_63
REMARK    5  A    between atoms: C_8  and  O_11
REMARK    6  A    between atoms: O_11  and  C_12
REMARK    7  A    between atoms: C_16  and  O_18
REMARK    8  A    between atoms: O_18  and  C_19
REMARK    9  A    between atoms: C_22  and  O_35
REMARK   10  A    between atoms: C_23  and  C_25
REMARK   11  A    between atoms: C_27  and  O_33
REMARK   12  A    between atoms: C_28  and  O_31
REMARK   13  A    between atoms: O_31  and  C_32
REMARK   14  A    between atoms: O_33  and  C_34
REMARK   15  A    between atoms: O_35  and  C_36
REMARK   16  A    between atoms: C_38  and  O_48
REMARK   17  A    between atoms: C_40  and  O_47
REMARK   18  A    between atoms: C_41  and  O_46
REMARK   19  A    between atoms: C_43  and  C_45
REMARK   20  A    between atoms: O_48  and  C_49
REMARK   21  A    between atoms: C_51  and  O_62
REMARK   22  A    between atoms: C_52  and  O_61
REMARK   23  A    between atoms: C_54  and  O_60
REMARK   24  A    between atoms: C_56  and  C_58
REMARK   25  A    between atoms: C_58  and  O_59
REMARK                            x       y       z     vdW  Elec       q    Type
REMARK                         _______ _______ _______ _____ _____    ______ ____
ROOT
ATOM      1  C   UNL     1       5.511  -5.470  25.266  0.00  0.00    +0.131 A 
ATOM      2  C   UNL     1       6.773  -5.092  24.807  0.00  0.00    +0.092 A 
ATOM      3  C   UNL     1       7.365  -3.863  25.195  0.00  0.00    +0.138 A 
ATOM      4  C   UNL     1       6.710  -3.019  26.116  0.00  0.00    +0.109 A 
ATOM      5  C   UNL     1       7.291  -1.791  26.769  0.00  0.00    +0.238 A 
ATOM      6  C   UNL     1       6.322  -0.863  27.523  0.00  0.00    +0.214 A 
ATOM      7  C   UNL     1       5.022  -1.285  27.574  0.00  0.00    +0.181 A 
ATOM      8  O   UNL     1       4.617  -2.565  27.224  0.00  0.00    -0.451 OA
ATOM      9  O   UNL     1       8.475  -1.512  26.675  0.00  0.00    -0.283 OA
ATOM     10  C   UNL     1       5.426  -3.373  26.487  0.00  0.00    +0.147 A 
ATOM     11  C   UNL     1       4.836  -4.581  26.090  0.00  0.00    +0.093 A 
ENDROOT
BRANCH   7  12
ATOM     12  C   UNL     1       3.802  -0.563  28.032  0.00  0.00    +0.025 A 
ATOM     13  C   UNL     1       3.710  -0.085  29.350  0.00  0.00    +0.015 A 
ATOM     14  C   UNL     1       2.581   0.616  29.784  0.00  0.00    +0.050 A 
ATOM     15  C   UNL     1       1.546   0.896  28.891  0.00  0.00    +0.162 A 
ATOM     16  C   UNL     1       1.613   0.403  27.576  0.00  0.00    +0.162 A 
ATOM     17  C   UNL     1       2.690  -0.404  27.193  0.00  0.00    +0.061 A 
BRANCH  16  18
ATOM     18  O   UNL     1       0.619   0.834  26.735  0.00  0.00    -0.491 OA
ATOM     19  C   UNL     1       0.822   2.037  26.016  0.00  0.00    +0.277 C 
ENDBRANCH  16  18
BRANCH  15  20
ATOM     20  O   UNL     1       0.444   1.654  29.190  0.00  0.00    -0.491 OA
ATOM     21  C   UNL     1       0.669   2.908  29.813  0.00  0.00    +0.277 C 
ENDBRANCH  15  20
ENDBRANCH   7  12
BRANCH   3  22
ATOM     22  O   UNL     1       8.568  -3.458  24.677  0.00  0.00    -0.494 OA
ATOM     23  C   UNL     1       9.661  -4.349  24.910  0.00  0.00    +0.277 C 
ENDBRANCH   3  22
BRANCH   6  24
ATOM     24  O   UNL     1       6.948   0.275  28.064  0.00  0.00    -0.453 OA
BRANCH  24  25
ATOM     25  C   UNL     1       6.910   1.564  27.445  0.00  0.00    +0.340 C 
ATOM     26  O   UNL     1       6.327   2.545  28.336  0.00  0.00    -0.334 OA
ATOM     27  C   UNL     1       4.937   2.836  28.184  0.00  0.00    +0.150 C 
ATOM     28  C   UNL     1       4.521   3.892  29.222  0.00  0.00    +0.041 C 
ATOM     29  C   UNL     1       4.695   3.418  26.800  0.00  0.00    +0.174 C 
ATOM     30  C   UNL     1       5.067   2.392  25.736  0.00  0.00    +0.180 C 
ATOM     31  C   UNL     1       6.455   1.726  25.947  0.00  0.00    +0.221 C 
BRANCH  30  32
ATOM     32  O   UNL     1       5.040   3.044  24.452  0.00  0.00    -0.386 OA
ATOM     33  H   UNL     1       4.444   3.805  24.489  0.00  0.00    +0.210 HD
ENDBRANCH  30  32
BRANCH  29  34
ATOM     34  O   UNL     1       3.340   3.857  26.636  0.00  0.00    -0.387 OA
ATOM     35  H   UNL     1       2.919   3.913  27.512  0.00  0.00    +0.210 HD
ENDBRANCH  29  34
BRANCH  31  36
ATOM     36  O   UNL     1       6.894   0.782  24.914  0.00  0.00    -0.337 OA
BRANCH  36  37
ATOM     37  C   UNL     1       8.260   0.756  24.454  0.00  0.00    +0.282 C 
ATOM     38  O   UNL     1       8.882   2.085  24.496  0.00  0.00    -0.341 OA
ATOM     39  C   UNL     1       8.428   3.051  23.509  0.00  0.00    +0.178 C 
ATOM     40  C   UNL     1       8.409   2.490  22.062  0.00  0.00    +0.177 C 
ATOM     41  C   UNL     1       7.677   1.166  22.060  0.00  0.00    +0.179 C 
ATOM     42  C   UNL     1       8.406   0.219  23.031  0.00  0.00    +0.201 C 
BRANCH  42  43
ATOM     43  O   UNL     1       7.994  -1.142  22.906  0.00  0.00    -0.384 OA
ATOM     44  H   UNL     1       8.736  -1.696  23.202  0.00  0.00    +0.210 HD
ENDBRANCH  42  43
BRANCH  41  45
ATOM     45  O   UNL     1       6.329   1.514  22.333  0.00  0.00    -0.386 OA
ATOM     46  H   UNL     1       6.290   2.315  22.899  0.00  0.00    +0.210 HD
ENDBRANCH  41  45
BRANCH  40  47
ATOM     47  O   UNL     1       9.723   2.301  21.527  0.00  0.00    -0.386 OA
ATOM     48  H   UNL     1      10.253   3.081  21.768  0.00  0.00    +0.210 HD
ENDBRANCH  40  47
BRANCH  39  49
ATOM     49  C   UNL     1       9.281   4.344  23.454  0.00  0.00    +0.190 C 
BRANCH  49  50
ATOM     50  O   UNL     1      10.683   4.112  23.400  0.00  0.00    -0.392 OA
ATOM     51  H   UNL     1      11.101   4.673  24.072  0.00  0.00    +0.210 HD
ENDBRANCH  49  50
ENDBRANCH  39  49
ENDBRANCH  36  37
ENDBRANCH  31  36
ENDBRANCH  24  25
ENDBRANCH   6  24
BRANCH   1  52
ATOM     52  O   UNL     1       5.044  -6.692  24.840  0.00  0.00    -0.461 OA
BRANCH  52  56
ATOM     53  C   UNL     1       1.190  -8.262  25.820  0.00  0.00    +0.041 C 
ATOM     54  C   UNL     1       1.832  -8.451  24.446  0.00  0.00    +0.150 C 
ATOM     55  O   UNL     1       3.241  -8.201  24.490  0.00  0.00    -0.334 OA
ATOM     56  C   UNL     1       3.617  -6.829  24.688  0.00  0.00    +0.339 C 
ATOM     57  C   UNL     1       3.088  -5.966  23.514  0.00  0.00    +0.214 C 
ATOM     58  C   UNL     1       1.559  -6.135  23.434  0.00  0.00    +0.180 C 
ATOM     59  C   UNL     1       1.160  -7.617  23.348  0.00  0.00    +0.174 C 
BRANCH  59  60
ATOM     60  O   UNL     1       1.556  -8.108  22.053  0.00  0.00    -0.387 OA
ATOM     61  H   UNL     1       2.419  -8.564  22.181  0.00  0.00    +0.210 HD
ENDBRANCH  59  60
BRANCH  58  62
ATOM     62  O   UNL     1       1.063  -5.442  22.275  0.00  0.00    -0.386 OA
ATOM     63  H   UNL     1       1.537  -5.830  21.509  0.00  0.00    +0.210 HD
ENDBRANCH  58  62
BRANCH  57  64
ATOM     64  O   UNL     1       3.652  -6.366  22.249  0.00  0.00    -0.383 OA
ATOM     65  H   UNL     1       3.006  -6.073  21.575  0.00  0.00    +0.210 HD
ENDBRANCH  57  64
ENDBRANCH  52  56
ENDBRANCH   1  52
TORSDOF 20
ENDMDL
MODEL 6
REMARK VINA RESULT:      -6.2      2.194      8.353
REMARK  Name = 
REMARK  25 active torsions:
REMARK  status: ('A' for Active; 'I' for Inactive)
REMARK    1  A    between atoms: C_1  and  C_2
REMARK    2  A    between atoms: C_3  and  O_65
REMARK    3  A    between atoms: C_5  and  O_64
REMARK    4  A    between atoms: C_6  and  O_63
REMARK    5  A    between atoms: C_8  and  O_11
REMARK    6  A    between atoms: O_11  and  C_12
REMARK    7  A    between atoms: C_16  and  O_18
REMARK    8  A    between atoms: O_18  and  C_19
REMARK    9  A    between atoms: C_22  and  O_35
REMARK   10  A    between atoms: C_23  and  C_25
REMARK   11  A    between atoms: C_27  and  O_33
REMARK   12  A    between atoms: C_28  and  O_31
REMARK   13  A    between atoms: O_31  and  C_32
REMARK   14  A    between atoms: O_33  and  C_34
REMARK   15  A    between atoms: O_35  and  C_36
REMARK   16  A    between atoms: C_38  and  O_48
REMARK   17  A    between atoms: C_40  and  O_47
REMARK   18  A    between atoms: C_41  and  O_46
REMARK   19  A    between atoms: C_43  and  C_45
REMARK   20  A    between atoms: O_48  and  C_49
REMARK   21  A    between atoms: C_51  and  O_62
REMARK   22  A    between atoms: C_52  and  O_61
REMARK   23  A    between atoms: C_54  and  O_60
REMARK   24  A    between atoms: C_56  and  C_58
REMARK   25  A    between atoms: C_58  and  O_59
REMARK                            x       y       z     vdW  Elec       q    Type
REMARK                         _______ _______ _______ _____ _____    ______ ____
ROOT
ATOM      1  C   UNL     1       4.727   4.126  23.966  0.00  0.00    +0.131 A 
ATOM      2  C   UNL     1       4.809   4.439  25.323  0.00  0.00    +0.092 A 
ATOM      3  C   UNL     1       5.224   3.479  26.281  0.00  0.00    +0.138 A 
ATOM      4  C   UNL     1       5.631   2.193  25.867  0.00  0.00    +0.109 A 
ATOM      5  C   UNL     1       6.276   1.141  26.732  0.00  0.00    +0.238 A 
ATOM      6  C   UNL     1       6.386  -0.282  26.155  0.00  0.00    +0.214 A 
ATOM      7  C   UNL     1       5.931  -0.435  24.874  0.00  0.00    +0.181 A 
ATOM      8  O   UNL     1       5.639   0.629  24.033  0.00  0.00    -0.451 OA
ATOM      9  O   UNL     1       6.663   1.387  27.862  0.00  0.00    -0.283 OA
ATOM     10  C   UNL     1       5.457   1.881  24.532  0.00  0.00    +0.147 A 
ATOM     11  C   UNL     1       5.032   2.827  23.589  0.00  0.00    +0.093 A 
ENDROOT
BRANCH   7  12
ATOM     12  C   UNL     1       5.701  -1.678  24.087  0.00  0.00    +0.025 A 
ATOM     13  C   UNL     1       6.437  -1.927  22.917  0.00  0.00    +0.015 A 
ATOM     14  C   UNL     1       6.246  -3.102  22.184  0.00  0.00    +0.050 A 
ATOM     15  C   UNL     1       5.353  -4.073  22.638  0.00  0.00    +0.162 A 
ATOM     16  C   UNL     1       4.591  -3.827  23.793  0.00  0.00    +0.162 A 
ATOM     17  C   UNL     1       4.701  -2.593  24.445  0.00  0.00    +0.061 A 
BRANCH  16  18
ATOM     18  O   UNL     1       3.838  -4.883  24.238  0.00  0.00    -0.491 OA
ATOM     19  C   UNL     1       2.673  -4.607  24.994  0.00  0.00    +0.277 C 
ENDBRANCH  16  18
BRANCH  15  20
ATOM     20  O   UNL     1       5.164  -5.295  22.046  0.00  0.00    -0.491 OA
ATOM     21  C   UNL     1       6.305  -5.933  21.499  0.00  0.00    +0.277 C 
ENDBRANCH  15  20
ENDBRANCH   7  12
BRANCH   3  22
ATOM     22  O   UNL     1       5.224   3.765  27.622  0.00  0.00    -0.494 OA
ATOM     23  C   UNL     1       3.944   3.707  28.256  0.00  0.00    +0.277 C 
ENDBRANCH   3  22
BRANCH   6  24
ATOM     24  O   UNL     1       6.965  -1.202  27.048  0.00  0.00    -0.453 OA
BRANCH  24  25
ATOM     25  C   UNL     1       8.258  -1.781  26.854  0.00  0.00    +0.340 C 
ATOM     26  O   UNL     1       9.098  -0.908  26.063  0.00  0.00    -0.334 OA
ATOM     27  C   UNL     1       9.179  -1.157  24.658  0.00  0.00    +0.150 C 
ATOM     28  C   UNL     1      10.113  -0.121  24.010  0.00  0.00    +0.041 C 
ATOM     29  C   UNL     1       9.775  -2.536  24.427  0.00  0.00    +0.174 C 
ATOM     30  C   UNL     1       8.865  -3.601  25.029  0.00  0.00    +0.180 C 
ATOM     31  C   UNL     1       8.411  -3.305  26.486  0.00  0.00    +0.221 C 
BRANCH  30  32
ATOM     32  O   UNL     1       9.558  -4.861  24.991  0.00  0.00    -0.386 OA
ATOM     33  H   UNL     1       9.042  -5.499  24.478  0.00  0.00    +0.210 HD
ENDBRANCH  30  32
BRANCH  29  34
ATOM     34  O   UNL     1      10.007  -2.790  23.035  0.00  0.00    -0.387 OA
ATOM     35  H   UNL     1      10.301  -1.965  22.610  0.00  0.00    +0.210 HD
ENDBRANCH  29  34
BRANCH  31  36
ATOM     36  O   UNL     1       7.591  -4.330  27.139  0.00  0.00    -0.337 OA
BRANCH  36  37
ATOM     37  C   UNL     1       6.173  -4.422  26.896  0.00  0.00    +0.282 C 
ATOM     38  O   UNL     1       5.386  -3.855  27.998  0.00  0.00    -0.341 OA
ATOM     39  C   UNL     1       5.356  -4.614  29.238  0.00  0.00    +0.178 C 
ATOM     40  C   UNL     1       5.028  -6.117  29.032  0.00  0.00    +0.177 C 
ATOM     41  C   UNL     1       5.931  -6.672  27.952  0.00  0.00    +0.179 C 
ATOM     42  C   UNL     1       5.693  -5.855  26.669  0.00  0.00    +0.201 C 
BRANCH  42  43
ATOM     43  O   UNL     1       6.264  -6.454  25.506  0.00  0.00    -0.384 OA
ATOM     44  H   UNL     1       7.114  -6.013  25.343  0.00  0.00    +0.210 HD
ENDBRANCH  42  43
BRANCH  41  45
ATOM     45  O   UNL     1       7.222  -6.659  28.538  0.00  0.00    -0.386 OA
ATOM     46  H   UNL     1       7.169  -6.386  29.479  0.00  0.00    +0.210 HD
ENDBRANCH  41  45
BRANCH  40  47
ATOM     47  O   UNL     1       3.663  -6.338  28.664  0.00  0.00    -0.386 OA
ATOM     48  H   UNL     1       3.474  -7.284  28.789  0.00  0.00    +0.210 HD
ENDBRANCH  40  47
BRANCH  39  49
ATOM     49  C   UNL     1       4.328  -4.090  30.273  0.00  0.00    +0.190 C 
BRANCH  49  50
ATOM     50  O   UNL     1       3.068  -3.743  29.713  0.00  0.00    -0.392 OA
ATOM     51  H   UNL     1       2.458  -4.477  29.885  0.00  0.00    +0.210 HD
ENDBRANCH  49  50
ENDBRANCH  39  49
ENDBRANCH  36  37
ENDBRANCH  31  36
ENDBRANCH  24  25
ENDBRANCH   6  24
BRANCH   1  52
ATOM     52  O   UNL     1       4.332   5.141  23.127  0.00  0.00    -0.461 OA
BRANCH  52  56
ATOM     53  C   UNL     1       1.136   2.784  21.541  0.00  0.00    +0.041 C 
ATOM     54  C   UNL     1       2.134   3.526  20.651  0.00  0.00    +0.150 C 
ATOM     55  O   UNL     1       3.310   3.893  21.381  0.00  0.00    -0.334 OA
ATOM     56  C   UNL     1       3.128   4.925  22.362  0.00  0.00    +0.339 C 
ATOM     57  C   UNL     1       2.655   6.229  21.670  0.00  0.00    +0.214 C 
ATOM     58  C   UNL     1       1.352   5.931  20.905  0.00  0.00    +0.180 C 
ATOM     59  C   UNL     1       1.523   4.742  19.945  0.00  0.00    +0.174 C 
BRANCH  59  60
ATOM     60  O   UNL     1       2.381   5.162  18.868  0.00  0.00    -0.387 OA
ATOM     61  H   UNL     1       2.191   4.561  18.112  0.00  0.00    +0.210 HD
ENDBRANCH  59  60
BRANCH  58  62
ATOM     62  O   UNL     1       0.964   7.095  20.154  0.00  0.00    -0.386 OA
ATOM     63  H   UNL     1       1.749   7.343  19.621  0.00  0.00    +0.210 HD
ENDBRANCH  58  62
BRANCH  57  64
ATOM     64  O   UNL     1       3.628   6.727  20.729  0.00  0.00    -0.383 OA
ATOM     65  H   UNL     1       3.189   6.675  19.856  0.00  0.00    +0.210 HD
ENDBRANCH  57  64
ENDBRANCH  52  56
ENDBRANCH   1  52
TORSDOF 20
ENDMDL
MODEL 7
REMARK VINA RESULT:      -5.4      2.256      4.996
REMARK  Name = 
REMARK  25 active torsions:
REMARK  status: ('A' for Active; 'I' for Inactive)
REMARK    1  A    between atoms: C_1  and  C_2
REMARK    2  A    between atoms: C_3  and  O_65
REMARK    3  A    between atoms: C_5  and  O_64
REMARK    4  A    between atoms: C_6  and  O_63
REMARK    5  A    between atoms: C_8  and  O_11
REMARK    6  A    between atoms: O_11  and  C_12
REMARK    7  A    between atoms: C_16  and  O_18
REMARK    8  A    between atoms: O_18  and  C_19
REMARK    9  A    between atoms: C_22  and  O_35
REMARK   10  A    between atoms: C_23  and  C_25
REMARK   11  A    between atoms: C_27  and  O_33
REMARK   12  A    between atoms: C_28  and  O_31
REMARK   13  A    between atoms: O_31  and  C_32
REMARK   14  A    between atoms: O_33  and  C_34
REMARK   15  A    between atoms: O_35  and  C_36
REMARK   16  A    between atoms: C_38  and  O_48
REMARK   17  A    between atoms: C_40  and  O_47
REMARK   18  A    between atoms: C_41  and  O_46
REMARK   19  A    between atoms: C_43  and  C_45
REMARK   20  A    between atoms: O_48  and  C_49
REMARK   21  A    between atoms: C_51  and  O_62
REMARK   22  A    between atoms: C_52  and  O_61
REMARK   23  A    between atoms: C_54  and  O_60
REMARK   24  A    between atoms: C_56  and  C_58
REMARK   25  A    between atoms: C_58  and  O_59
REMARK                            x       y       z     vdW  Elec       q    Type
REMARK                         _______ _______ _______ _____ _____    ______ ____
ROOT
ATOM      1  C   UNL     1       6.997  -3.609  26.246  0.00  0.00    +0.131 A 
ATOM      2  C   UNL     1       7.166  -3.709  24.865  0.00  0.00    +0.092 A 
ATOM      3  C   UNL     1       6.903  -2.613  24.005  0.00  0.00    +0.138 A 
ATOM      4  C   UNL     1       6.525  -1.364  24.542  0.00  0.00    +0.109 A 
ATOM      5  C   UNL     1       6.404  -0.067  23.784  0.00  0.00    +0.238 A 
ATOM      6  C   UNL     1       5.713   1.109  24.496  0.00  0.00    +0.214 A 
ATOM      7  C   UNL     1       5.326   0.871  25.786  0.00  0.00    +0.181 A 
ATOM      8  O   UNL     1       5.742  -0.231  26.520  0.00  0.00    -0.451 OA
ATOM      9  O   UNL     1       6.798   0.044  22.634  0.00  0.00    -0.283 OA
ATOM     10  C   UNL     1       6.280  -1.315  25.902  0.00  0.00    +0.147 A 
ATOM     11  C   UNL     1       6.525  -2.406  26.748  0.00  0.00    +0.093 A 
ENDROOT
BRANCH   7  12
ATOM     12  C   UNL     1       4.472   1.689  26.691  0.00  0.00    +0.025 A 
ATOM     13  C   UNL     1       3.118   1.368  26.877  0.00  0.00    +0.015 A 
ATOM     14  C   UNL     1       2.314   2.115  27.744  0.00  0.00    +0.050 A 
ATOM     15  C   UNL     1       2.865   3.165  28.479  0.00  0.00    +0.162 A 
ATOM     16  C   UNL     1       4.212   3.514  28.284  0.00  0.00    +0.162 A 
ATOM     17  C   UNL     1       4.970   2.839  27.322  0.00  0.00    +0.061 A 
BRANCH  16  18
ATOM     18  O   UNL     1       4.702   4.468  29.139  0.00  0.00    -0.491 OA
ATOM     19  C   UNL     1       5.504   4.049  30.228  0.00  0.00    +0.277 C 
ENDBRANCH  16  18
BRANCH  15  20
ATOM     20  O   UNL     1       2.187   3.895  29.420  0.00  0.00    -0.491 OA
ATOM     21  C   UNL     1       1.208   4.807  28.952  0.00  0.00    +0.277 C 
ENDBRANCH  15  20
ENDBRANCH   7  12
BRANCH   3  22
ATOM     22  O   UNL     1       6.991  -2.740  22.643  0.00  0.00    -0.494 OA
ATOM     23  C   UNL     1       5.843  -3.309  22.009  0.00  0.00    +0.277 C 
ENDBRANCH   3  22
BRANCH   6  24
ATOM     24  O   UNL     1       5.612   2.263  23.696  0.00  0.00    -0.453 OA
BRANCH  24  25
ATOM     25  C   UNL     1       4.659   3.302  23.930  0.00  0.00    +0.340 C 
ATOM     26  O   UNL     1       3.379   2.968  23.341  0.00  0.00    -0.334 OA
ATOM     27  C   UNL     1       3.087   3.494  22.046  0.00  0.00    +0.150 C 
ATOM     28  C   UNL     1       1.692   3.019  21.605  0.00  0.00    +0.041 C 
ATOM     29  C   UNL     1       3.066   5.013  22.114  0.00  0.00    +0.174 C 
ATOM     30  C   UNL     1       4.441   5.531  22.520  0.00  0.00    +0.180 C 
ATOM     31  C   UNL     1       5.056   4.816  23.755  0.00  0.00    +0.221 C 
BRANCH  30  32
ATOM     32  O   UNL     1       4.329   6.941  22.790  0.00  0.00    -0.386 OA
ATOM     33  H   UNL     1       4.839   7.158  23.584  0.00  0.00    +0.210 HD
ENDBRANCH  30  32
BRANCH  29  34
ATOM     34  O   UNL     1       2.644   5.596  20.874  0.00  0.00    -0.387 OA
ATOM     35  H   UNL     1       3.421   5.966  20.420  0.00  0.00    +0.210 HD
ENDBRANCH  29  34
BRANCH  31  36
ATOM     36  O   UNL     1       6.347   5.321  24.231  0.00  0.00    -0.337 OA
BRANCH  36  37
ATOM     37  C   UNL     1       7.424   5.607  23.317  0.00  0.00    +0.282 C 
ATOM     38  O   UNL     1       7.670   4.496  22.390  0.00  0.00    -0.341 OA
ATOM     39  C   UNL     1       8.285   3.303  22.948  0.00  0.00    +0.178 C 
ATOM     40  C   UNL     1       9.542   3.603  23.807  0.00  0.00    +0.177 C 
ATOM     41  C   UNL     1       9.206   4.688  24.806  0.00  0.00    +0.179 C 
ATOM     42  C   UNL     1       8.742   5.929  24.019  0.00  0.00    +0.201 C 
BRANCH  42  43
ATOM     43  O   UNL     1       8.671   7.108  24.820  0.00  0.00    -0.384 OA
ATOM     44  H   UNL     1       9.549   7.525  24.796  0.00  0.00    +0.210 HD
ENDBRANCH  42  43
BRANCH  41  45
ATOM     45  O   UNL     1       8.295   4.068  25.699  0.00  0.00    -0.386 OA
ATOM     46  H   UNL     1       7.520   4.649  25.856  0.00  0.00    +0.210 HD
ENDBRANCH  41  45
BRANCH  40  47
ATOM     47  O   UNL     1      10.662   4.019  23.019  0.00  0.00    -0.386 OA
ATOM     48  H   UNL     1      10.407   3.942  22.083  0.00  0.00    +0.210 HD
ENDBRANCH  40  47
BRANCH  39  49
ATOM     49  C   UNL     1       8.731   2.267  21.885  0.00  0.00    +0.190 C 
BRANCH  49  50
ATOM     50  O   UNL     1       9.565   1.234  22.396  0.00  0.00    -0.392 OA
ATOM     51  H   UNL     1       9.029   0.694  22.998  0.00  0.00    +0.210 HD
ENDBRANCH  49  50
ENDBRANCH  39  49
ENDBRANCH  36  37
ENDBRANCH  31  36
ENDBRANCH  24  25
ENDBRANCH   6  24
BRANCH   1  52
ATOM     52  O   UNL     1       7.300  -4.730  26.983  0.00  0.00    -0.461 OA
BRANCH  52  56
ATOM     53  C   UNL     1       4.108  -7.311  25.786  0.00  0.00    +0.041 C 
ATOM     54  C   UNL     1       3.900  -6.123  26.726  0.00  0.00    +0.150 C 
ATOM     55  O   UNL     1       4.994  -5.203  26.652  0.00  0.00    -0.334 OA
ATOM     56  C   UNL     1       6.231  -5.671  27.211  0.00  0.00    +0.339 C 
ATOM     57  C   UNL     1       6.046  -5.963  28.722  0.00  0.00    +0.214 C 
ATOM     58  C   UNL     1       4.917  -6.997  28.886  0.00  0.00    +0.180 C 
ATOM     59  C   UNL     1       3.631  -6.542  28.176  0.00  0.00    +0.174 C 
BRANCH  59  60
ATOM     60  O   UNL     1       3.089  -5.429  28.912  0.00  0.00    -0.387 OA
ATOM     61  H   UNL     1       2.691  -5.805  29.730  0.00  0.00    +0.210 HD
ENDBRANCH  59  60
BRANCH  58  62
ATOM     62  O   UNL     1       4.645  -7.188  30.285  0.00  0.00    -0.386 OA
ATOM     63  H   UNL     1       3.741  -6.838  30.431  0.00  0.00    +0.210 HD
ENDBRANCH  58  62
BRANCH  57  64
ATOM     64  O   UNL     1       5.685  -4.779  29.463  0.00  0.00    -0.383 OA
ATOM     65  H   UNL     1       5.668  -5.059  30.400  0.00  0.00    +0.210 HD
ENDBRANCH  57  64
ENDBRANCH  52  56
ENDBRANCH   1  52
TORSDOF 20
ENDMDL
MODEL 8
REMARK VINA RESULT:      -5.1      2.434      5.483
REMARK  Name = 
REMARK  25 active torsions:
REMARK  status: ('A' for Active; 'I' for Inactive)
REMARK    1  A    between atoms: C_1  and  C_2
REMARK    2  A    between atoms: C_3  and  O_65
REMARK    3  A    between atoms: C_5  and  O_64
REMARK    4  A    between atoms: C_6  and  O_63
REMARK    5  A    between atoms: C_8  and  O_11
REMARK    6  A    between atoms: O_11  and  C_12
REMARK    7  A    between atoms: C_16  and  O_18
REMARK    8  A    between atoms: O_18  and  C_19
REMARK    9  A    between atoms: C_22  and  O_35
REMARK   10  A    between atoms: C_23  and  C_25
REMARK   11  A    between atoms: C_27  and  O_33
REMARK   12  A    between atoms: C_28  and  O_31
REMARK   13  A    between atoms: O_31  and  C_32
REMARK   14  A    between atoms: O_33  and  C_34
REMARK   15  A    between atoms: O_35  and  C_36
REMARK   16  A    between atoms: C_38  and  O_48
REMARK   17  A    between atoms: C_40  and  O_47
REMARK   18  A    between atoms: C_41  and  O_46
REMARK   19  A    between atoms: C_43  and  C_45
REMARK   20  A    between atoms: O_48  and  C_49
REMARK   21  A    between atoms: C_51  and  O_62
REMARK   22  A    between atoms: C_52  and  O_61
REMARK   23  A    between atoms: C_54  and  O_60
REMARK   24  A    between atoms: C_56  and  C_58
REMARK   25  A    between atoms: C_58  and  O_59
REMARK                            x       y       z     vdW  Elec       q    Type
REMARK                         _______ _______ _______ _____ _____    ______ ____
ROOT
ATOM      1  C   UNL     1       2.591  -4.420  25.668  0.00  0.00    +0.131 A 
ATOM      2  C   UNL     1       3.217  -4.653  24.443  0.00  0.00    +0.092 A 
ATOM      3  C   UNL     1       4.266  -3.821  23.976  0.00  0.00    +0.138 A 
ATOM      4  C   UNL     1       4.748  -2.768  24.782  0.00  0.00    +0.109 A 
ATOM      5  C   UNL     1       5.972  -1.930  24.515  0.00  0.00    +0.238 A 
ATOM      6  C   UNL     1       6.162  -0.661  25.365  0.00  0.00    +0.214 A 
ATOM      7  C   UNL     1       5.216  -0.452  26.330  0.00  0.00    +0.181 A 
ATOM      8  O   UNL     1       4.298  -1.415  26.726  0.00  0.00    -0.451 OA
ATOM      9  O   UNL     1       6.766  -2.214  23.633  0.00  0.00    -0.283 OA
ATOM     10  C   UNL     1       4.055  -2.503  25.949  0.00  0.00    +0.147 A 
ATOM     11  C   UNL     1       3.007  -3.319  26.400  0.00  0.00    +0.093 A 
ENDROOT
BRANCH   7  12
ATOM     12  C   UNL     1       4.974   0.744  27.184  0.00  0.00    +0.025 A 
ATOM     13  C   UNL     1       3.797   1.496  27.041  0.00  0.00    +0.015 A 
ATOM     14  C   UNL     1       3.549   2.606  27.855  0.00  0.00    +0.050 A 
ATOM     15  C   UNL     1       4.452   2.951  28.861  0.00  0.00    +0.162 A 
ATOM     16  C   UNL     1       5.646   2.224  29.000  0.00  0.00    +0.162 A 
ATOM     17  C   UNL     1       5.939   1.195  28.097  0.00  0.00    +0.061 A 
BRANCH  16  18
ATOM     18  O   UNL     1       6.410   2.549  30.091  0.00  0.00    -0.491 OA
ATOM     19  C   UNL     1       7.439   1.658  30.481  0.00  0.00    +0.277 C 
ENDBRANCH  16  18
BRANCH  15  20
ATOM     20  O   UNL     1       4.257   3.960  29.769  0.00  0.00    -0.491 OA
ATOM     21  C   UNL     1       3.008   3.997  30.439  0.00  0.00    +0.277 C 
ENDBRANCH  15  20
ENDBRANCH   7  12
BRANCH   3  22
ATOM     22  O   UNL     1       4.821  -4.004  22.736  0.00  0.00    -0.494 OA
ATOM     23  C   UNL     1       5.372  -5.302  22.502  0.00  0.00    +0.277 C 
ENDBRANCH   3  22
BRANCH   6  24
ATOM     24  O   UNL     1       7.309   0.076  25.017  0.00  0.00    -0.453 OA
BRANCH  24  25
ATOM     25  C   UNL     1       7.311   1.112  24.032  0.00  0.00    +0.340 C 
ATOM     26  O   UNL     1       7.602   0.574  22.720  0.00  0.00    -0.334 OA
ATOM     27  C   UNL     1       8.953   0.638  22.260  0.00  0.00    +0.150 C 
ATOM     28  C   UNL     1       9.044   0.013  20.858  0.00  0.00    +0.041 C 
ATOM     29  C   UNL     1       9.377   2.094  22.154  0.00  0.00    +0.174 C 
ATOM     30  C   UNL     1       9.331   2.749  23.530  0.00  0.00    +0.180 C 
ATOM     31  C   UNL     1       8.014   2.493  24.316  0.00  0.00    +0.221 C 
BRANCH  30  32
ATOM     32  O   UNL     1       9.519   4.166  23.362  0.00  0.00    -0.386 OA
ATOM     33  H   UNL     1       9.666   4.576  24.226  0.00  0.00    +0.210 HD
ENDBRANCH  30  32
BRANCH  29  34
ATOM     34  O   UNL     1      10.680   2.228  21.568  0.00  0.00    -0.387 OA
ATOM     35  H   UNL     1      10.615   2.051  20.613  0.00  0.00    +0.210 HD
ENDBRANCH  29  34
BRANCH  31  36
ATOM     36  O   UNL     1       7.886   3.157  25.617  0.00  0.00    -0.337 OA
BRANCH  36  37
ATOM     37  C   UNL     1       6.639   3.743  26.040  0.00  0.00    +0.282 C 
ATOM     38  O   UNL     1       5.786   4.106  24.902  0.00  0.00    -0.341 OA
ATOM     39  C   UNL     1       6.206   5.250  24.109  0.00  0.00    +0.178 C 
ATOM     40  C   UNL     1       6.557   6.497  24.965  0.00  0.00    +0.177 C 
ATOM     41  C   UNL     1       7.511   6.083  26.065  0.00  0.00    +0.179 C 
ATOM     42  C   UNL     1       6.821   4.990  26.903  0.00  0.00    +0.201 C 
BRANCH  42  43
ATOM     43  O   UNL     1       7.490   4.720  28.135  0.00  0.00    -0.384 OA
ATOM     44  H   UNL     1       7.113   3.899  28.494  0.00  0.00    +0.210 HD
ENDBRANCH  42  43
BRANCH  41  45
ATOM     45  O   UNL     1       8.711   5.761  25.381  0.00  0.00    -0.386 OA
ATOM     46  H   UNL     1       9.429   6.379  25.639  0.00  0.00    +0.210 HD
ENDBRANCH  41  45
BRANCH  40  47
ATOM     47  O   UNL     1       5.403   7.108  25.549  0.00  0.00    -0.386 OA
ATOM     48  H   UNL     1       5.596   7.261  26.490  0.00  0.00    +0.210 HD
ENDBRANCH  40  47
BRANCH  39  49
ATOM     49  C   UNL     1       5.151   5.724  23.078  0.00  0.00    +0.190 C 
BRANCH  49  50
ATOM     50  O   UNL     1       5.693   6.058  21.806  0.00  0.00    -0.392 OA
ATOM     51  H   UNL     1       6.042   5.242  21.412  0.00  0.00    +0.210 HD
ENDBRANCH  49  50
ENDBRANCH  39  49
ENDBRANCH  36  37
ENDBRANCH  31  36
ENDBRANCH  24  25
ENDBRANCH   6  24
BRANCH   1  52
ATOM     52  O   UNL     1       1.599  -5.303  26.027  0.00  0.00    -0.461 OA
BRANCH  52  56
ATOM     53  C   UNL     1       1.685  -4.794  30.272  0.00  0.00    +0.041 C 
ATOM     54  C   UNL     1       2.760  -5.572  29.513  0.00  0.00    +0.150 C 
ATOM     55  O   UNL     1       2.737  -5.265  28.114  0.00  0.00    -0.334 OA
ATOM     56  C   UNL     1       1.598  -5.762  27.394  0.00  0.00    +0.339 C 
ATOM     57  C   UNL     1       1.565  -7.310  27.471  0.00  0.00    +0.214 C 
ATOM     58  C   UNL     1       1.530  -7.726  28.953  0.00  0.00    +0.180 C 
ATOM     59  C   UNL     1       2.684  -7.087  29.744  0.00  0.00    +0.174 C 
BRANCH  59  60
ATOM     60  O   UNL     1       3.911  -7.707  29.316  0.00  0.00    -0.387 OA
ATOM     61  H   UNL     1       4.054  -8.478  29.912  0.00  0.00    +0.210 HD
ENDBRANCH  59  60
BRANCH  58  62
ATOM     62  O   UNL     1       1.626  -9.158  29.049  0.00  0.00    -0.386 OA
ATOM     63  H   UNL     1       1.170  -9.401  29.883  0.00  0.00    +0.210 HD
ENDBRANCH  58  62
BRANCH  57  64
ATOM     64  O   UNL     1       2.728  -7.909  26.862  0.00  0.00    -0.383 OA
ATOM     65  H   UNL     1       3.196  -8.359  27.592  0.00  0.00    +0.210 HD
ENDBRANCH  57  64
ENDBRANCH  52  56
ENDBRANCH   1  52
TORSDOF 20
ENDMDL
MODEL 9
REMARK VINA RESULT:      -5.0      2.167      4.875
REMARK  Name = 
REMARK  25 active torsions:
REMARK  status: ('A' for Active; 'I' for Inactive)
REMARK    1  A    between atoms: C_1  and  C_2
REMARK    2  A    between atoms: C_3  and  O_65
REMARK    3  A    between atoms: C_5  and  O_64
REMARK    4  A    between atoms: C_6  and  O_63
REMARK    5  A    between atoms: C_8  and  O_11
REMARK    6  A    between atoms: O_11  and  C_12
REMARK    7  A    between atoms: C_16  and  O_18
REMARK    8  A    between atoms: O_18  and  C_19
REMARK    9  A    between atoms: C_22  and  O_35
REMARK   10  A    between atoms: C_23  and  C_25
REMARK   11  A    between atoms: C_27  and  O_33
REMARK   12  A    between atoms: C_28  and  O_31
REMARK   13  A    between atoms: O_31  and  C_32
REMARK   14  A    between atoms: O_33  and  C_34
REMARK   15  A    between atoms: O_35  and  C_36
REMARK   16  A    between atoms: C_38  and  O_48
REMARK   17  A    between atoms: C_40  and  O_47
REMARK   18  A    between atoms: C_41  and  O_46
REMARK   19  A    between atoms: C_43  and  C_45
REMARK   20  A    between atoms: O_48  and  C_49
REMARK   21  A    between atoms: C_51  and  O_62
REMARK   22  A    between atoms: C_52  and  O_61
REMARK   23  A    between atoms: C_54  and  O_60
REMARK   24  A    between atoms: C_56  and  C_58
REMARK   25  A    between atoms: C_58  and  O_59
REMARK                            x       y       z     vdW  Elec       q    Type
REMARK                         _______ _______ _______ _____ _____    ______ ____
ROOT
ATOM      1  C   UNL     1       7.154  -4.332  25.660  0.00  0.00    +0.131 A 
ATOM      2  C   UNL     1       7.872  -4.082  24.490  0.00  0.00    +0.092 A 
ATOM      3  C   UNL     1       8.309  -2.775  24.154  0.00  0.00    +0.138 A 
ATOM      4  C   UNL     1       8.081  -1.701  25.040  0.00  0.00    +0.109 A 
ATOM      5  C   UNL     1       8.648  -0.310  24.919  0.00  0.00    +0.238 A 
ATOM      6  C   UNL     1       8.056   0.780  25.831  0.00  0.00    +0.214 A 
ATOM      7  C   UNL     1       7.099   0.354  26.711  0.00  0.00    +0.181 A 
ATOM      8  O   UNL     1       6.848  -0.983  26.983  0.00  0.00    -0.451 OA
ATOM      9  O   UNL     1       9.516  -0.038  24.105  0.00  0.00    -0.283 OA
ATOM     10  C   UNL     1       7.293  -1.958  26.147  0.00  0.00    +0.147 A 
ATOM     11  C   UNL     1       6.849  -3.249  26.468  0.00  0.00    +0.093 A 
ENDROOT
BRANCH   7  12
ATOM     12  C   UNL     1       6.188   1.146  27.584  0.00  0.00    +0.025 A 
ATOM     13  C   UNL     1       6.628   2.340  28.176  0.00  0.00    +0.015 A 
ATOM     14  C   UNL     1       5.772   3.104  28.976  0.00  0.00    +0.050 A 
ATOM     15  C   UNL     1       4.445   2.712  29.155  0.00  0.00    +0.162 A 
ATOM     16  C   UNL     1       3.998   1.506  28.589  0.00  0.00    +0.162 A 
ATOM     17  C   UNL     1       4.899   0.689  27.896  0.00  0.00    +0.061 A 
BRANCH  16  18
ATOM     18  O   UNL     1       2.653   1.264  28.705  0.00  0.00    -0.491 OA
ATOM     19  C   UNL     1       2.234   0.134  29.448  0.00  0.00    +0.277 C 
ENDBRANCH  16  18
BRANCH  15  20
ATOM     20  O   UNL     1       3.505   3.436  29.840  0.00  0.00    -0.491 OA
ATOM     21  C   UNL     1       3.689   4.840  29.905  0.00  0.00    +0.277 C 
ENDBRANCH  15  20
ENDBRANCH   7  12
BRANCH   3  22
ATOM     22  O   UNL     1       8.942  -2.520  22.965  0.00  0.00    -0.494 OA
ATOM     23  C   UNL     1       8.075  -2.279  21.855  0.00  0.00    +0.277 C 
ENDBRANCH   3  22
BRANCH   6  24
ATOM     24  O   UNL     1       8.620   2.051  25.619  0.00  0.00    -0.453 OA
BRANCH  24  25
ATOM     25  C   UNL     1       8.450   2.797  24.411  0.00  0.00    +0.340 C 
ATOM     26  O   UNL     1       9.728   3.055  23.782  0.00  0.00    -0.334 OA
ATOM     27  C   UNL     1      10.353   4.314  24.039  0.00  0.00    +0.150 C 
ATOM     28  C   UNL     1      11.691   4.382  23.286  0.00  0.00    +0.041 C 
ATOM     29  C   UNL     1       9.463   5.431  23.517  0.00  0.00    +0.174 C 
ATOM     30  C   UNL     1       8.131   5.420  24.259  0.00  0.00    +0.180 C 
ATOM     31  C   UNL     1       7.461   4.021  24.351  0.00  0.00    +0.221 C 
BRANCH  30  32
ATOM     32  O   UNL     1       7.239   6.334  23.596  0.00  0.00    -0.386 OA
ATOM     33  H   UNL     1       7.706   7.159  23.403  0.00  0.00    +0.210 HD
ENDBRANCH  30  32
BRANCH  29  34
ATOM     34  O   UNL     1      10.098   6.712  23.625  0.00  0.00    -0.387 OA
ATOM     35  H   UNL     1      10.759   6.676  24.338  0.00  0.00    +0.210 HD
ENDBRANCH  29  34
BRANCH  31  36
ATOM     36  O   UNL     1       6.144   3.964  24.993  0.00  0.00    -0.337 OA
BRANCH  36  37
ATOM     37  C   UNL     1       5.081   4.855  24.602  0.00  0.00    +0.282 C 
ATOM     38  O   UNL     1       4.044   4.963  25.635  0.00  0.00    -0.341 OA
ATOM     39  C   UNL     1       3.184   3.806  25.822  0.00  0.00    +0.178 C 
ATOM     40  C   UNL     1       2.595   3.256  24.496  0.00  0.00    +0.177 C 
ATOM     41  C   UNL     1       3.719   3.075  23.499  0.00  0.00    +0.179 C 
ATOM     42  C   UNL     1       4.399   4.443  23.298  0.00  0.00    +0.201 C 
BRANCH  42  43
ATOM     43  O   UNL     1       5.280   4.473  22.176  0.00  0.00    -0.384 OA
ATOM     44  H   UNL     1       5.878   5.230  22.300  0.00  0.00    +0.210 HD
ENDBRANCH  42  43
BRANCH  41  45
ATOM     45  O   UNL     1       4.485   2.006  24.029  0.00  0.00    -0.386 OA
ATOM     46  H   UNL     1       3.933   1.199  24.115  0.00  0.00    +0.210 HD
ENDBRANCH  41  45
BRANCH  40  47
ATOM     47  O   UNL     1       1.602   4.118  23.934  0.00  0.00    -0.386 OA
ATOM     48  H   UNL     1       0.779   3.986  24.436  0.00  0.00    +0.210 HD
ENDBRANCH  40  47
BRANCH  39  49
ATOM     49  C   UNL     1       1.971   4.066  26.752  0.00  0.00    +0.190 C 
BRANCH  49  50
ATOM     50  O   UNL     1       0.991   3.035  26.729  0.00  0.00    -0.392 OA
ATOM     51  H   UNL     1       0.341   3.232  27.421  0.00  0.00    +0.210 HD
ENDBRANCH  49  50
ENDBRANCH  39  49
ENDBRANCH  36  37
ENDBRANCH  31  36
ENDBRANCH  24  25
ENDBRANCH   6  24
BRANCH   1  52
ATOM     52  O   UNL     1       6.799  -5.641  25.892  0.00  0.00    -0.461 OA
BRANCH  52  56
ATOM     53  C   UNL     1       3.547  -6.000  23.140  0.00  0.00    +0.041 C 
ATOM     54  C   UNL     1       3.428  -5.240  24.461  0.00  0.00    +0.150 C 
ATOM     55  O   UNL     1       4.718  -4.922  24.997  0.00  0.00    -0.334 OA
ATOM     56  C   UNL     1       5.474  -6.040  25.488  0.00  0.00    +0.339 C 
ATOM     57  C   UNL     1       4.708  -6.720  26.651  0.00  0.00    +0.214 C 
ATOM     58  C   UNL     1       3.320  -7.149  26.138  0.00  0.00    +0.180 C 
ATOM     59  C   UNL     1       2.567  -5.970  25.500  0.00  0.00    +0.174 C 
BRANCH  59  60
ATOM     60  O   UNL     1       2.198  -5.059  26.553  0.00  0.00    -0.387 OA
ATOM     61  H   UNL     1       1.363  -5.407  26.941  0.00  0.00    +0.210 HD
ENDBRANCH  59  60
BRANCH  58  62
ATOM     62  O   UNL     1       2.547  -7.669  27.233  0.00  0.00    -0.386 OA
ATOM     63  H   UNL     1       2.982  -8.508  27.492  0.00  0.00    +0.210 HD
ENDBRANCH  58  62
BRANCH  57  64
ATOM     64  O   UNL     1       4.520  -5.831  27.770  0.00  0.00    -0.383 OA
ATOM     65  H   UNL     1       3.829  -6.253  28.320  0.00  0.00    +0.210 HD
ENDBRANCH  57  64
ENDBRANCH  52  56
ENDBRANCH   1  52
TORSDOF 20
ENDMDL
