MODEL 1
REMARK VINA RESULT:      -8.0      0.000      0.000
REMARK  Name = 
REMARK  16 active torsions:
REMARK  status: ('A' for Active; 'I' for Inactive)
REMARK    1  A    between atoms: C_3  and  O_49
REMARK    2  A    between atoms: C_6  and  C_7
REMARK    3  A    between atoms: C_8  and  C_9
REMARK    4  A    between atoms: C_9  and  O_11
REMARK    5  A    between atoms: O_11  and  C_12
REMARK    6  A    between atoms: C_12  and  C_13
REMARK    7  A    between atoms: C_15  and  O_48
REMARK    8  A    between atoms: C_17  and  O_47
REMARK    9  A    between atoms: C_19  and  O_46
REMARK   10  A    between atoms: C_21  and  O_24
REMARK   11  A    between atoms: O_24  and  C_25
REMARK   12  A    between atoms: C_26  and  C_38
REMARK   13  A    between atoms: C_30  and  O_37
REMARK   14  A    between atoms: C_32  and  O_36
REMARK   15  A    between atoms: C_40  and  O_45
REMARK   16  A    between atoms: C_41  and  O_44
REMARK                            x       y       z     vdW  Elec       q    Type
REMARK                         _______ _______ _______ _____ _____    ______ ____
ROOT
ATOM      1  C   UNL     1       6.495  -5.312  27.652  0.00  0.00    +0.191 C 
ATOM      2  O   UNL     1       5.885  -4.459  26.672  0.00  0.00    -0.330 OA
ATOM      3  C   UNL     1       4.590  -3.982  27.087  0.00  0.00    +0.340 C 
ATOM      4  C   UNL     1       3.602  -5.151  27.297  0.00  0.00    +0.214 C 
ATOM      5  C   UNL     1       4.212  -6.161  28.262  0.00  0.00    +0.180 C 
ATOM      6  C   UNL     1       5.621  -6.567  27.849  0.00  0.00    +0.178 C 
ENDROOT
BRANCH   6   7
ATOM      7  O   UNL     1       6.083  -7.449  28.880  0.00  0.00    -0.386 OA
ATOM      8  H   UNL     1       6.668  -6.937  29.464  0.00  0.00    +0.210 HD
ENDBRANCH   6   7
BRANCH   5   9
ATOM      9  O   UNL     1       3.386  -7.331  28.344  0.00  0.00    -0.386 OA
ATOM     10  H   UNL     1       3.549  -7.815  27.509  0.00  0.00    +0.210 HD
ENDBRANCH   5   9
BRANCH   4  11
ATOM     11  O   UNL     1       2.341  -4.661  27.805  0.00  0.00    -0.383 OA
ATOM     12  H   UNL     1       1.701  -4.673  27.070  0.00  0.00    +0.210 HD
ENDBRANCH   4  11
BRANCH   3  13
ATOM     13  O   UNL     1       4.008  -3.176  26.063  0.00  0.00    -0.453 OA
BRANCH  13  14
ATOM     14  C   UNL     1       4.573  -2.001  25.611  0.00  0.00    +0.214 A 
ATOM     15  C   UNL     1       4.345  -0.672  26.259  0.00  0.00    +0.238 A 
ATOM     16  O   UNL     1       3.363  -0.445  26.954  0.00  0.00    -0.283 OA
ATOM     17  C   UNL     1       5.325   0.384  25.958  0.00  0.00    +0.109 A 
ATOM     18  C   UNL     1       6.194   0.175  24.888  0.00  0.00    +0.147 A 
ATOM     19  C   UNL     1       7.173   1.126  24.580  0.00  0.00    +0.092 A 
ATOM     20  C   UNL     1       7.255   2.291  25.340  0.00  0.00    +0.124 A 
ATOM     21  C   UNL     1       6.372   2.529  26.386  0.00  0.00    +0.091 A 
ATOM     22  O   UNL     1       6.116  -0.933  24.077  0.00  0.00    -0.451 OA
ATOM     23  C   UNL     1       5.407   1.575  26.696  0.00  0.00    +0.135 A 
ATOM     24  C   UNL     1       5.351  -2.012  24.503  0.00  0.00    +0.181 A 
BRANCH  24  25
ATOM     25  C   UNL     1       5.451  -3.209  23.609  0.00  0.00    +0.025 A 
ATOM     26  C   UNL     1       6.581  -3.428  22.799  0.00  0.00    +0.015 A 
ATOM     27  C   UNL     1       6.669  -4.555  21.967  0.00  0.00    +0.050 A 
ATOM     28  C   UNL     1       5.629  -5.473  21.944  0.00  0.00    +0.158 A 
ATOM     29  C   UNL     1       4.492  -5.264  22.709  0.00  0.00    +0.159 A 
ATOM     30  C   UNL     1       4.386  -4.131  23.512  0.00  0.00    +0.060 A 
BRANCH  29  31
ATOM     31  O   UNL     1       3.496  -6.201  22.653  0.00  0.00    -0.503 OA
ATOM     32  H   UNL     1       2.990  -6.048  21.834  0.00  0.00    +0.292 HD
ENDBRANCH  29  31
BRANCH  28  33
ATOM     33  O   UNL     1       5.734  -6.589  21.165  0.00  0.00    -0.503 OA
ATOM     34  H   UNL     1       6.608  -6.501  20.730  0.00  0.00    +0.292 HD
ENDBRANCH  28  33
ENDBRANCH  24  25
BRANCH  20  35
ATOM     35  O   UNL     1       8.201   3.242  25.096  0.00  0.00    -0.507 OA
ATOM     36  H   UNL     1       8.250   3.849  25.855  0.00  0.00    +0.292 HD
ENDBRANCH  20  35
BRANCH  23  37
ATOM     37  O   UNL     1       4.559   1.816  27.739  0.00  0.00    -0.506 OA
ATOM     38  H   UNL     1       5.055   2.127  28.514  0.00  0.00    +0.292 HD
ENDBRANCH  23  37
ENDBRANCH  13  14
ENDBRANCH   3  13
BRANCH   1  39
ATOM     39  C   UNL     1       7.924  -5.710  27.214  0.00  0.00    +0.266 C 
BRANCH  39  40
ATOM     40  O   UNL     1       8.698  -4.531  26.871  0.00  0.00    -0.459 OA
BRANCH  40  41
ATOM     41  C   UNL     1       9.177  -4.468  25.601  0.00  0.00    +0.332 C 
ATOM     42  O   UNL     1       9.476  -5.422  24.900  0.00  0.00    -0.246 OA
BRANCH  41  44
ATOM     43  C   UNL     1       9.786  -2.705  24.027  0.00  0.00    +0.015 C 
ATOM     44  C   UNL     1       9.131  -3.054  25.150  0.00  0.00    +0.092 C 
BRANCH  43  46
ATOM     45  C   UNL     1       9.310  -1.161  22.079  0.00  0.00    +0.011 A 
ATOM     46  C   UNL     1       9.780  -1.379  23.382  0.00  0.00    -0.025 A 
ATOM     47  C   UNL     1      10.384  -0.310  24.060  0.00  0.00    +0.011 A 
ATOM     48  C   UNL     1      10.509   0.945  23.460  0.00  0.00    +0.046 A 
ATOM     49  C   UNL     1      10.044   1.141  22.167  0.00  0.00    +0.117 A 
ATOM     50  C   UNL     1       9.439   0.097  21.471  0.00  0.00    +0.046 A 
BRANCH  49  51
ATOM     51  O   UNL     1      10.216   2.367  21.609  0.00  0.00    -0.507 OA
ATOM     52  H   UNL     1      10.795   2.288  20.834  0.00  0.00    +0.292 HD
ENDBRANCH  49  51
ENDBRANCH  43  46
ENDBRANCH  41  44
ENDBRANCH  40  41
ENDBRANCH  39  40
ENDBRANCH   1  39
TORSDOF 16
ENDMDL
MODEL 2
REMARK VINA RESULT:      -7.8      1.656      4.244
REMARK  Name = 
REMARK  16 active torsions:
REMARK  status: ('A' for Active; 'I' for Inactive)
REMARK    1  A    between atoms: C_3  and  O_49
REMARK    2  A    between atoms: C_6  and  C_7
REMARK    3  A    between atoms: C_8  and  C_9
REMARK    4  A    between atoms: C_9  and  O_11
REMARK    5  A    between atoms: O_11  and  C_12
REMARK    6  A    between atoms: C_12  and  C_13
REMARK    7  A    between atoms: C_15  and  O_48
REMARK    8  A    between atoms: C_17  and  O_47
REMARK    9  A    between atoms: C_19  and  O_46
REMARK   10  A    between atoms: C_21  and  O_24
REMARK   11  A    between atoms: O_24  and  C_25
REMARK   12  A    between atoms: C_26  and  C_38
REMARK   13  A    between atoms: C_30  and  O_37
REMARK   14  A    between atoms: C_32  and  O_36
REMARK   15  A    between atoms: C_40  and  O_45
REMARK   16  A    between atoms: C_41  and  O_44
REMARK                            x       y       z     vdW  Elec       q    Type
REMARK                         _______ _______ _______ _____ _____    ______ ____
ROOT
ATOM      1  C   UNL     1       4.897  -3.384  27.767  0.00  0.00    +0.191 C 
ATOM      2  O   UNL     1       6.080  -3.013  27.044  0.00  0.00    -0.330 OA
ATOM      3  C   UNL     1       6.760  -4.150  26.480  0.00  0.00    +0.340 C 
ATOM      4  C   UNL     1       7.231  -5.126  27.582  0.00  0.00    +0.214 C 
ATOM      5  C   UNL     1       6.046  -5.506  28.461  0.00  0.00    +0.180 C 
ATOM      6  C   UNL     1       5.287  -4.282  28.958  0.00  0.00    +0.178 C 
ENDROOT
BRANCH   6   7
ATOM      7  O   UNL     1       4.173  -4.796  29.698  0.00  0.00    -0.386 OA
ATOM      8  H   UNL     1       4.301  -5.756  29.791  0.00  0.00    +0.210 HD
ENDBRANCH   6   7
BRANCH   5   9
ATOM      9  O   UNL     1       6.489  -6.279  29.586  0.00  0.00    -0.386 OA
ATOM     10  H   UNL     1       5.669  -6.623  29.995  0.00  0.00    +0.210 HD
ENDBRANCH   5   9
BRANCH   4  11
ATOM     11  O   UNL     1       7.824  -6.305  26.992  0.00  0.00    -0.383 OA
ATOM     12  H   UNL     1       7.962  -6.125  26.044  0.00  0.00    +0.210 HD
ENDBRANCH   4  11
BRANCH   3  13
ATOM     13  O   UNL     1       7.950  -3.734  25.812  0.00  0.00    -0.453 OA
BRANCH  13  14
ATOM     14  C   UNL     1       8.029  -2.586  25.049  0.00  0.00    +0.214 A 
ATOM     15  C   UNL     1       8.817  -1.381  25.451  0.00  0.00    +0.238 A 
ATOM     16  O   UNL     1       9.109  -1.150  26.617  0.00  0.00    -0.283 OA
ATOM     17  C   UNL     1       9.166  -0.434  24.378  0.00  0.00    +0.109 A 
ATOM     18  C   UNL     1       8.500  -0.563  23.160  0.00  0.00    +0.147 A 
ATOM     19  C   UNL     1       8.818   0.283  22.092  0.00  0.00    +0.092 A 
ATOM     20  C   UNL     1       9.790   1.264  22.265  0.00  0.00    +0.124 A 
ATOM     21  C   UNL     1      10.436   1.428  23.484  0.00  0.00    +0.091 A 
ATOM     22  O   UNL     1       7.496  -1.481  22.959  0.00  0.00    -0.451 OA
ATOM     23  C   UNL     1      10.124   0.578  24.542  0.00  0.00    +0.135 A 
ATOM     24  C   UNL     1       7.337  -2.503  23.888  0.00  0.00    +0.181 A 
BRANCH  24  25
ATOM     25  C   UNL     1       6.309  -3.517  23.495  0.00  0.00    +0.025 A 
ATOM     26  C   UNL     1       4.954  -3.362  23.842  0.00  0.00    +0.015 A 
ATOM     27  C   UNL     1       3.996  -4.317  23.466  0.00  0.00    +0.050 A 
ATOM     28  C   UNL     1       4.387  -5.430  22.736  0.00  0.00    +0.158 A 
ATOM     29  C   UNL     1       5.720  -5.622  22.409  0.00  0.00    +0.159 A 
ATOM     30  C   UNL     1       6.680  -4.694  22.807  0.00  0.00    +0.060 A 
BRANCH  29  31
ATOM     31  O   UNL     1       6.053  -6.734  21.686  0.00  0.00    -0.503 OA
ATOM     32  H   UNL     1       5.649  -6.647  20.802  0.00  0.00    +0.292 HD
ENDBRANCH  29  31
BRANCH  28  33
ATOM     33  O   UNL     1       3.447  -6.336  22.337  0.00  0.00    -0.503 OA
ATOM     34  H   UNL     1       3.387  -6.969  23.082  0.00  0.00    +0.292 HD
ENDBRANCH  28  33
ENDBRANCH  24  25
BRANCH  20  35
ATOM     35  O   UNL     1      10.153   2.103  21.253  0.00  0.00    -0.507 OA
ATOM     36  H   UNL     1       9.728   2.968  21.384  0.00  0.00    +0.292 HD
ENDBRANCH  20  35
BRANCH  23  37
ATOM     37  O   UNL     1      10.781   0.739  25.728  0.00  0.00    -0.506 OA
ATOM     38  H   UNL     1      10.212   1.192  26.371  0.00  0.00    +0.292 HD
ENDBRANCH  23  37
ENDBRANCH  13  14
ENDBRANCH   3  13
BRANCH   1  39
ATOM     39  C   UNL     1       4.142  -2.128  28.260  0.00  0.00    +0.266 C 
BRANCH  39  40
ATOM     40  O   UNL     1       4.829  -0.922  27.835  0.00  0.00    -0.459 OA
BRANCH  40  41
ATOM     41  C   UNL     1       4.181  -0.139  26.933  0.00  0.00    +0.332 C 
ATOM     42  O   UNL     1       2.989  -0.185  26.671  0.00  0.00    -0.246 OA
BRANCH  41  44
ATOM     43  C   UNL     1       5.363   0.965  25.106  0.00  0.00    +0.015 C 
ATOM     44  C   UNL     1       5.131   0.885  26.430  0.00  0.00    +0.092 C 
BRANCH  43  46
ATOM     45  C   UNL     1       7.151   2.757  25.083  0.00  0.00    +0.011 A 
ATOM     46  C   UNL     1       6.198   1.968  24.421  0.00  0.00    -0.025 A 
ATOM     47  C   UNL     1       5.942   2.231  23.066  0.00  0.00    +0.011 A 
ATOM     48  C   UNL     1       6.621   3.245  22.388  0.00  0.00    +0.046 A 
ATOM     49  C   UNL     1       7.556   4.019  23.061  0.00  0.00    +0.117 A 
ATOM     50  C   UNL     1       7.831   3.779  24.405  0.00  0.00    +0.046 A 
BRANCH  49  51
ATOM     51  O   UNL     1       8.169   5.016  22.372  0.00  0.00    -0.507 OA
ATOM     52  H   UNL     1       8.834   4.633  21.778  0.00  0.00    +0.292 HD
ENDBRANCH  49  51
ENDBRANCH  43  46
ENDBRANCH  41  44
ENDBRANCH  40  41
ENDBRANCH  39  40
ENDBRANCH   1  39
TORSDOF 16
ENDMDL
MODEL 3
REMARK VINA RESULT:      -7.5      1.501      3.883
REMARK  Name = 
REMARK  16 active torsions:
REMARK  status: ('A' for Active; 'I' for Inactive)
REMARK    1  A    between atoms: C_3  and  O_49
REMARK    2  A    between atoms: C_6  and  C_7
REMARK    3  A    between atoms: C_8  and  C_9
REMARK    4  A    between atoms: C_9  and  O_11
REMARK    5  A    between atoms: O_11  and  C_12
REMARK    6  A    between atoms: C_12  and  C_13
REMARK    7  A    between atoms: C_15  and  O_48
REMARK    8  A    between atoms: C_17  and  O_47
REMARK    9  A    between atoms: C_19  and  O_46
REMARK   10  A    between atoms: C_21  and  O_24
REMARK   11  A    between atoms: O_24  and  C_25
REMARK   12  A    between atoms: C_26  and  C_38
REMARK   13  A    between atoms: C_30  and  O_37
REMARK   14  A    between atoms: C_32  and  O_36
REMARK   15  A    between atoms: C_40  and  O_45
REMARK   16  A    between atoms: C_41  and  O_44
REMARK                            x       y       z     vdW  Elec       q    Type
REMARK                         _______ _______ _______ _____ _____    ______ ____
ROOT
ATOM      1  C   UNL     1       6.729  -5.247  23.823  0.00  0.00    +0.191 C 
ATOM      2  O   UNL     1       6.314  -3.885  24.002  0.00  0.00    -0.330 OA
ATOM      3  C   UNL     1       4.978  -3.782  24.531  0.00  0.00    +0.340 C 
ATOM      4  C   UNL     1       3.944  -4.412  23.571  0.00  0.00    +0.214 C 
ATOM      5  C   UNL     1       4.358  -5.844  23.251  0.00  0.00    +0.180 C 
ATOM      6  C   UNL     1       5.808  -5.929  22.792  0.00  0.00    +0.178 C 
ENDROOT
BRANCH   6   7
ATOM      7  O   UNL     1       6.068  -7.326  22.604  0.00  0.00    -0.386 OA
ATOM      8  H   UNL     1       7.021  -7.468  22.739  0.00  0.00    +0.210 HD
ENDBRANCH   6   7
BRANCH   5   9
ATOM      9  O   UNL     1       3.505  -6.392  22.235  0.00  0.00    -0.386 OA
ATOM     10  H   UNL     1       2.835  -6.914  22.722  0.00  0.00    +0.210 HD
ENDBRANCH   5   9
BRANCH   4  11
ATOM     11  O   UNL     1       2.625  -4.386  24.161  0.00  0.00    -0.383 OA
ATOM     12  H   UNL     1       2.150  -5.182  23.860  0.00  0.00    +0.210 HD
ENDBRANCH   4  11
BRANCH   3  13
ATOM     13  O   UNL     1       4.596  -2.412  24.649  0.00  0.00    -0.453 OA
BRANCH  13  14
ATOM     14  C   UNL     1       5.394  -1.452  25.238  0.00  0.00    +0.214 A 
ATOM     15  C   UNL     1       6.010  -0.316  24.485  0.00  0.00    +0.238 A 
ATOM     16  O   UNL     1       6.201  -0.360  23.277  0.00  0.00    -0.283 OA
ATOM     17  C   UNL     1       6.450   0.841  25.282  0.00  0.00    +0.109 A 
ATOM     18  C   UNL     1       6.541   0.676  26.664  0.00  0.00    +0.147 A 
ATOM     19  C   UNL     1       6.916   1.752  27.477  0.00  0.00    +0.092 A 
ATOM     20  C   UNL     1       7.215   2.979  26.890  0.00  0.00    +0.124 A 
ATOM     21  C   UNL     1       7.164   3.147  25.511  0.00  0.00    +0.091 A 
ATOM     22  O   UNL     1       6.308  -0.528  27.284  0.00  0.00    -0.451 OA
ATOM     23  C   UNL     1       6.781   2.077  24.707  0.00  0.00    +0.135 A 
ATOM     24  C   UNL     1       5.682  -1.535  26.558  0.00  0.00    +0.181 A 
BRANCH  24  25
ATOM     25  C   UNL     1       5.356  -2.748  27.372  0.00  0.00    +0.025 A 
ATOM     26  C   UNL     1       4.150  -2.847  28.092  0.00  0.00    +0.015 A 
ATOM     27  C   UNL     1       3.850  -3.990  28.850  0.00  0.00    +0.050 A 
ATOM     28  C   UNL     1       4.753  -5.043  28.888  0.00  0.00    +0.158 A 
ATOM     29  C   UNL     1       5.961  -4.957  28.214  0.00  0.00    +0.159 A 
ATOM     30  C   UNL     1       6.277  -3.812  27.487  0.00  0.00    +0.060 A 
BRANCH  29  31
ATOM     31  O   UNL     1       6.815  -6.024  28.282  0.00  0.00    -0.503 OA
ATOM     32  H   UNL     1       6.963  -6.344  27.372  0.00  0.00    +0.292 HD
ENDBRANCH  29  31
BRANCH  28  33
ATOM     33  O   UNL     1       4.441  -6.170  29.594  0.00  0.00    -0.503 OA
ATOM     34  H   UNL     1       3.724  -6.591  29.076  0.00  0.00    +0.292 HD
ENDBRANCH  28  33
ENDBRANCH  24  25
BRANCH  20  35
ATOM     35  O   UNL     1       7.568   4.066  27.635  0.00  0.00    -0.507 OA
ATOM     36  H   UNL     1       8.203   4.606  27.135  0.00  0.00    +0.292 HD
ENDBRANCH  20  35
BRANCH  23  37
ATOM     37  O   UNL     1       6.717   2.263  23.356  0.00  0.00    -0.506 OA
ATOM     38  H   UNL     1       6.911   1.433  22.890  0.00  0.00    +0.292 HD
ENDBRANCH  23  37
ENDBRANCH  13  14
ENDBRANCH   3  13
BRANCH   1  39
ATOM     39  C   UNL     1       8.203  -5.311  23.360  0.00  0.00    +0.266 C 
BRANCH  39  40
ATOM     40  O   UNL     1       9.079  -5.582  24.485  0.00  0.00    -0.459 OA
BRANCH  40  41
ATOM     41  C   UNL     1       9.385  -4.527  25.284  0.00  0.00    +0.332 C 
ATOM     42  O   UNL     1       9.418  -4.539  26.505  0.00  0.00    -0.246 OA
BRANCH  41  44
ATOM     43  C   UNL     1       9.328  -2.168  24.662  0.00  0.00    +0.015 C 
ATOM     44  C   UNL     1       9.823  -3.397  24.426  0.00  0.00    +0.092 C 
BRANCH  43  46
ATOM     45  C   UNL     1      10.089   0.246  24.658  0.00  0.00    +0.011 A 
ATOM     46  C   UNL     1       9.712  -0.920  23.976  0.00  0.00    -0.025 A 
ATOM     47  C   UNL     1       9.577  -0.862  22.581  0.00  0.00    +0.011 A 
ATOM     48  C   UNL     1       9.818   0.323  21.883  0.00  0.00    +0.046 A 
ATOM     49  C   UNL     1      10.184   1.469  22.574  0.00  0.00    +0.117 A 
ATOM     50  C   UNL     1      10.327   1.439  23.959  0.00  0.00    +0.046 A 
BRANCH  49  51
ATOM     51  O   UNL     1      10.377   2.608  21.860  0.00  0.00    -0.507 OA
ATOM     52  H   UNL     1      11.264   2.594  21.467  0.00  0.00    +0.292 HD
ENDBRANCH  49  51
ENDBRANCH  43  46
ENDBRANCH  41  44
ENDBRANCH  40  41
ENDBRANCH  39  40
ENDBRANCH   1  39
TORSDOF 16
ENDMDL
MODEL 4
REMARK VINA RESULT:      -7.4      2.698      7.239
REMARK  Name = 
REMARK  16 active torsions:
REMARK  status: ('A' for Active; 'I' for Inactive)
REMARK    1  A    between atoms: C_3  and  O_49
REMARK    2  A    between atoms: C_6  and  C_7
REMARK    3  A    between atoms: C_8  and  C_9
REMARK    4  A    between atoms: C_9  and  O_11
REMARK    5  A    between atoms: O_11  and  C_12
REMARK    6  A    between atoms: C_12  and  C_13
REMARK    7  A    between atoms: C_15  and  O_48
REMARK    8  A    between atoms: C_17  and  O_47
REMARK    9  A    between atoms: C_19  and  O_46
REMARK   10  A    between atoms: C_21  and  O_24
REMARK   11  A    between atoms: O_24  and  C_25
REMARK   12  A    between atoms: C_26  and  C_38
REMARK   13  A    between atoms: C_30  and  O_37
REMARK   14  A    between atoms: C_32  and  O_36
REMARK   15  A    between atoms: C_40  and  O_45
REMARK   16  A    between atoms: C_41  and  O_44
REMARK                            x       y       z     vdW  Elec       q    Type
REMARK                         _______ _______ _______ _____ _____    ______ ____
ROOT
ATOM      1  C   UNL     1       5.222   1.707  26.168  0.00  0.00    +0.191 C 
ATOM      2  O   UNL     1       6.157   0.743  25.661  0.00  0.00    -0.330 OA
ATOM      3  C   UNL     1       6.849   0.043  26.712  0.00  0.00    +0.340 C 
ATOM      4  C   UNL     1       7.679   1.013  27.583  0.00  0.00    +0.214 C 
ATOM      5  C   UNL     1       6.776   2.130  28.094  0.00  0.00    +0.180 C 
ATOM      6  C   UNL     1       5.982   2.783  26.969  0.00  0.00    +0.178 C 
ENDROOT
BRANCH   6   7
ATOM      7  O   UNL     1       5.138   3.748  27.608  0.00  0.00    -0.386 OA
ATOM      8  H   UNL     1       4.575   4.145  26.921  0.00  0.00    +0.210 HD
ENDBRANCH   6   7
BRANCH   5   9
ATOM      9  O   UNL     1       7.556   3.130  28.766  0.00  0.00    -0.386 OA
ATOM     10  H   UNL     1       8.442   3.080  28.353  0.00  0.00    +0.210 HD
ENDBRANCH   5   9
BRANCH   4  11
ATOM     11  O   UNL     1       8.286   0.306  28.688  0.00  0.00    -0.383 OA
ATOM     12  H   UNL     1       9.246   0.470  28.652  0.00  0.00    +0.210 HD
ENDBRANCH   4  11
BRANCH   3  13
ATOM     13  O   UNL     1       7.796  -0.870  26.159  0.00  0.00    -0.453 OA
BRANCH  13  14
ATOM     14  C   UNL     1       7.439  -1.950  25.376  0.00  0.00    +0.214 A 
ATOM     15  C   UNL     1       6.886  -3.224  25.930  0.00  0.00    +0.238 A 
ATOM     16  O   UNL     1       7.076  -3.570  27.088  0.00  0.00    -0.283 OA
ATOM     17  C   UNL     1       6.157  -4.090  24.988  0.00  0.00    +0.109 A 
ATOM     18  C   UNL     1       6.293  -3.822  23.626  0.00  0.00    +0.147 A 
ATOM     19  C   UNL     1       5.592  -4.586  22.686  0.00  0.00    +0.092 A 
ATOM     20  C   UNL     1       4.777  -5.627  23.124  0.00  0.00    +0.124 A 
ATOM     21  C   UNL     1       4.662  -5.929  24.475  0.00  0.00    +0.091 A 
ATOM     22  O   UNL     1       7.126  -2.841  23.144  0.00  0.00    -0.451 OA
ATOM     23  C   UNL     1       5.352  -5.159  25.408  0.00  0.00    +0.135 A 
ATOM     24  C   UNL     1       7.623  -1.897  24.035  0.00  0.00    +0.181 A 
BRANCH  24  25
ATOM     25  C   UNL     1       8.402  -0.801  23.378  0.00  0.00    +0.025 A 
ATOM     26  C   UNL     1       9.790  -0.668  23.574  0.00  0.00    +0.015 A 
ATOM     27  C   UNL     1      10.514   0.360  22.950  0.00  0.00    +0.050 A 
ATOM     28  C   UNL     1       9.855   1.258  22.122  0.00  0.00    +0.158 A 
ATOM     29  C   UNL     1       8.484   1.168  21.938  0.00  0.00    +0.159 A 
ATOM     30  C   UNL     1       7.756   0.169  22.580  0.00  0.00    +0.060 A 
BRANCH  29  31
ATOM     31  O   UNL     1       7.883   2.075  21.110  0.00  0.00    -0.503 OA
ATOM     32  H   UNL     1       7.717   1.634  20.256  0.00  0.00    +0.292 HD
ENDBRANCH  29  31
BRANCH  28  33
ATOM     33  O   UNL     1      10.568   2.233  21.485  0.00  0.00    -0.503 OA
ATOM     34  H   UNL     1      10.061   2.410  20.666  0.00  0.00    +0.292 HD
ENDBRANCH  28  33
ENDBRANCH  24  25
BRANCH  20  35
ATOM     35  O   UNL     1       4.058  -6.392  22.253  0.00  0.00    -0.507 OA
ATOM     36  H   UNL     1       4.125  -6.012  21.361  0.00  0.00    +0.292 HD
ENDBRANCH  20  35
BRANCH  23  37
ATOM     37  O   UNL     1       5.213  -5.456  26.734  0.00  0.00    -0.506 OA
ATOM     38  H   UNL     1       5.181  -6.418  26.863  0.00  0.00    +0.292 HD
ENDBRANCH  23  37
ENDBRANCH  13  14
ENDBRANCH   3  13
BRANCH   1  39
ATOM     39  C   UNL     1       4.426   2.355  25.011  0.00  0.00    +0.266 C 
BRANCH  39  40
ATOM     40  O   UNL     1       5.050   3.599  24.598  0.00  0.00    -0.459 OA
BRANCH  40  41
ATOM     41  C   UNL     1       5.759   3.566  23.439  0.00  0.00    +0.332 C 
ATOM     42  O   UNL     1       5.435   2.981  22.417  0.00  0.00    -0.246 OA
BRANCH  41  44
ATOM     43  C   UNL     1       7.979   4.100  24.299  0.00  0.00    +0.015 C 
ATOM     44  C   UNL     1       6.917   4.487  23.569  0.00  0.00    +0.092 C 
BRANCH  43  46
ATOM     45  C   UNL     1       9.358   6.005  25.235  0.00  0.00    +0.011 A 
ATOM     46  C   UNL     1       9.245   4.838  24.466  0.00  0.00    -0.025 A 
ATOM     47  C   UNL     1      10.358   4.419  23.722  0.00  0.00    +0.011 A 
ATOM     48  C   UNL     1      11.555   5.138  23.750  0.00  0.00    +0.046 A 
ATOM     49  C   UNL     1      11.647   6.295  24.511  0.00  0.00    +0.117 A 
ATOM     50  C   UNL     1      10.557   6.733  25.260  0.00  0.00    +0.046 A 
BRANCH  49  51
ATOM     51  O   UNL     1      12.818   6.982  24.483  0.00  0.00    -0.507 OA
ATOM     52  H   UNL     1      13.519   6.408  24.136  0.00  0.00    +0.292 HD
ENDBRANCH  49  51
ENDBRANCH  43  46
ENDBRANCH  41  44
ENDBRANCH  40  41
ENDBRANCH  39  40
ENDBRANCH   1  39
TORSDOF 16
ENDMDL
MODEL 5
REMARK VINA RESULT:      -7.4      2.267      6.851
REMARK  Name = 
REMARK  16 active torsions:
REMARK  status: ('A' for Active; 'I' for Inactive)
REMARK    1  A    between atoms: C_3  and  O_49
REMARK    2  A    between atoms: C_6  and  C_7
REMARK    3  A    between atoms: C_8  and  C_9
REMARK    4  A    between atoms: C_9  and  O_11
REMARK    5  A    between atoms: O_11  and  C_12
REMARK    6  A    between atoms: C_12  and  C_13
REMARK    7  A    between atoms: C_15  and  O_48
REMARK    8  A    between atoms: C_17  and  O_47
REMARK    9  A    between atoms: C_19  and  O_46
REMARK   10  A    between atoms: C_21  and  O_24
REMARK   11  A    between atoms: O_24  and  C_25
REMARK   12  A    between atoms: C_26  and  C_38
REMARK   13  A    between atoms: C_30  and  O_37
REMARK   14  A    between atoms: C_32  and  O_36
REMARK   15  A    between atoms: C_40  and  O_45
REMARK   16  A    between atoms: C_41  and  O_44
REMARK                            x       y       z     vdW  Elec       q    Type
REMARK                         _______ _______ _______ _____ _____    ______ ____
ROOT
ATOM      1  C   UNL     1       4.786   0.190  27.715  0.00  0.00    +0.191 C 
ATOM      2  O   UNL     1       5.564  -0.559  26.769  0.00  0.00    -0.330 OA
ATOM      3  C   UNL     1       6.839  -0.964  27.302  0.00  0.00    +0.340 C 
ATOM      4  C   UNL     1       7.704   0.260  27.680  0.00  0.00    +0.214 C 
ATOM      5  C   UNL     1       6.915   1.165  28.620  0.00  0.00    +0.180 C 
ATOM      6  C   UNL     1       5.532   1.491  28.072  0.00  0.00    +0.178 C 
ENDROOT
BRANCH   6   7
ATOM      7  O   UNL     1       4.894   2.275  29.087  0.00  0.00    -0.386 OA
ATOM      8  H   UNL     1       4.273   1.695  29.560  0.00  0.00    +0.210 HD
ENDBRANCH   6   7
BRANCH   5   9
ATOM      9  O   UNL     1       7.634   2.385  28.853  0.00  0.00    -0.386 OA
ATOM     10  H   UNL     1       6.956   3.023  29.158  0.00  0.00    +0.210 HD
ENDBRANCH   5   9
BRANCH   4  11
ATOM     11  O   UNL     1       8.937  -0.166  28.302  0.00  0.00    -0.383 OA
ATOM     12  H   UNL     1       8.830  -1.100  28.562  0.00  0.00    +0.210 HD
ENDBRANCH   4  11
BRANCH   3  13
ATOM     13  O   UNL     1       7.590  -1.664  26.312  0.00  0.00    -0.453 OA
BRANCH  13  14
ATOM     14  C   UNL     1       7.124  -2.790  25.663  0.00  0.00    +0.214 A 
ATOM     15  C   UNL     1       6.868  -4.093  26.351  0.00  0.00    +0.238 A 
ATOM     16  O   UNL     1       7.411  -4.391  27.407  0.00  0.00    -0.283 OA
ATOM     17  C   UNL     1       5.982  -5.042  25.657  0.00  0.00    +0.109 A 
ATOM     18  C   UNL     1       5.700  -4.797  24.313  0.00  0.00    +0.147 A 
ATOM     19  C   UNL     1       4.832  -5.643  23.612  0.00  0.00    +0.092 A 
ATOM     20  C   UNL     1       4.273  -6.739  24.264  0.00  0.00    +0.124 A 
ATOM     21  C   UNL     1       4.574  -7.015  25.592  0.00  0.00    +0.091 A 
ATOM     22  O   UNL     1       6.269  -3.761  23.613  0.00  0.00    -0.451 OA
ATOM     23  C   UNL     1       5.429  -6.166  26.289  0.00  0.00    +0.135 A 
ATOM     24  C   UNL     1       6.913  -2.755  24.326  0.00  0.00    +0.181 A 
BRANCH  24  25
ATOM     25  C   UNL     1       7.371  -1.614  23.474  0.00  0.00    +0.025 A 
ATOM     26  C   UNL     1       6.661  -0.399  23.429  0.00  0.00    +0.015 A 
ATOM     27  C   UNL     1       7.101   0.668  22.630  0.00  0.00    +0.050 A 
ATOM     28  C   UNL     1       8.256   0.528  21.874  0.00  0.00    +0.158 A 
ATOM     29  C   UNL     1       8.955  -0.668  21.876  0.00  0.00    +0.159 A 
ATOM     30  C   UNL     1       8.506  -1.741  22.642  0.00  0.00    +0.060 A 
BRANCH  29  31
ATOM     31  O   UNL     1      10.089  -0.754  21.116  0.00  0.00    -0.503 OA
ATOM     32  H   UNL     1       9.895  -1.333  20.356  0.00  0.00    +0.292 HD
ENDBRANCH  29  31
BRANCH  28  33
ATOM     33  O   UNL     1       8.703   1.581  21.128  0.00  0.00    -0.503 OA
ATOM     34  H   UNL     1       8.338   1.419  20.234  0.00  0.00    +0.292 HD
ENDBRANCH  28  33
ENDBRANCH  24  25
BRANCH  20  35
ATOM     35  O   UNL     1       3.407  -7.585  23.635  0.00  0.00    -0.507 OA
ATOM     36  H   UNL     1       3.057  -8.224  24.279  0.00  0.00    +0.292 HD
ENDBRANCH  20  35
BRANCH  23  37
ATOM     37  O   UNL     1       5.701  -6.440  27.599  0.00  0.00    -0.506 OA
ATOM     38  H   UNL     1       6.630  -6.704  27.704  0.00  0.00    +0.292 HD
ENDBRANCH  23  37
ENDBRANCH  13  14
ENDBRANCH   3  13
BRANCH   1  39
ATOM     39  C   UNL     1       3.386   0.508  27.140  0.00  0.00    +0.266 C 
BRANCH  39  40
ATOM     40  O   UNL     1       3.254   1.929  26.878  0.00  0.00    -0.459 OA
BRANCH  40  41
ATOM     41  C   UNL     1       2.950   2.286  25.602  0.00  0.00    +0.332 C 
ATOM     42  O   UNL     1       1.832   2.531  25.174  0.00  0.00    -0.246 OA
BRANCH  41  44
ATOM     43  C   UNL     1       5.071   3.440  25.252  0.00  0.00    +0.015 C 
ATOM     44  C   UNL     1       4.216   2.480  24.852  0.00  0.00    +0.092 C 
BRANCH  43  46
ATOM     45  C   UNL     1       6.604   4.420  23.493  0.00  0.00    +0.011 A 
ATOM     46  C   UNL     1       6.405   3.718  24.690  0.00  0.00    -0.025 A 
ATOM     47  C   UNL     1       7.521   3.147  25.320  0.00  0.00    +0.011 A 
ATOM     48  C   UNL     1       8.801   3.278  24.777  0.00  0.00    +0.046 A 
ATOM     49  C   UNL     1       8.978   3.972  23.588  0.00  0.00    +0.117 A 
ATOM     50  C   UNL     1       7.887   4.550  22.942  0.00  0.00    +0.046 A 
BRANCH  49  51
ATOM     51  O   UNL     1      10.234   4.047  23.077  0.00  0.00    -0.507 OA
ATOM     52  H   UNL     1      10.527   4.973  23.083  0.00  0.00    +0.292 HD
ENDBRANCH  49  51
ENDBRANCH  43  46
ENDBRANCH  41  44
ENDBRANCH  40  41
ENDBRANCH  39  40
ENDBRANCH   1  39
TORSDOF 16
ENDMDL
MODEL 6
REMARK VINA RESULT:      -7.2      2.442      6.501
REMARK  Name = 
REMARK  16 active torsions:
REMARK  status: ('A' for Active; 'I' for Inactive)
REMARK    1  A    between atoms: C_3  and  O_49
REMARK    2  A    between atoms: C_6  and  C_7
REMARK    3  A    between atoms: C_8  and  C_9
REMARK    4  A    between atoms: C_9  and  O_11
REMARK    5  A    between atoms: O_11  and  C_12
REMARK    6  A    between atoms: C_12  and  C_13
REMARK    7  A    between atoms: C_15  and  O_48
REMARK    8  A    between atoms: C_17  and  O_47
REMARK    9  A    between atoms: C_19  and  O_46
REMARK   10  A    between atoms: C_21  and  O_24
REMARK   11  A    between atoms: O_24  and  C_25
REMARK   12  A    between atoms: C_26  and  C_38
REMARK   13  A    between atoms: C_30  and  O_37
REMARK   14  A    between atoms: C_32  and  O_36
REMARK   15  A    between atoms: C_40  and  O_45
REMARK   16  A    between atoms: C_41  and  O_44
REMARK                            x       y       z     vdW  Elec       q    Type
REMARK                         _______ _______ _______ _____ _____    ______ ____
ROOT
ATOM      1  C   UNL     1       5.187   1.053  27.212  0.00  0.00    +0.191 C 
ATOM      2  O   UNL     1       5.980   0.782  26.047  0.00  0.00    -0.330 OA
ATOM      3  C   UNL     1       6.015   1.896  25.134  0.00  0.00    +0.340 C 
ATOM      4  C   UNL     1       4.602   2.236  24.608  0.00  0.00    +0.214 C 
ATOM      5  C   UNL     1       3.662   2.452  25.789  0.00  0.00    +0.180 C 
ATOM      6  C   UNL     1       3.726   1.302  26.787  0.00  0.00    +0.178 C 
ENDROOT
BRANCH   6   7
ATOM      7  O   UNL     1       2.857   1.680  27.862  0.00  0.00    -0.386 OA
ATOM      8  H   UNL     1       3.057   1.102  28.618  0.00  0.00    +0.210 HD
ENDBRANCH   6   7
BRANCH   5   9
ATOM      9  O   UNL     1       2.312   2.605  25.328  0.00  0.00    -0.386 OA
ATOM     10  H   UNL     1       1.839   3.035  26.070  0.00  0.00    +0.210 HD
ENDBRANCH   5   9
BRANCH   4  11
ATOM     11  O   UNL     1       4.644   3.413  23.772  0.00  0.00    -0.383 OA
ATOM     12  H   UNL     1       4.924   4.163  24.329  0.00  0.00    +0.210 HD
ENDBRANCH   4  11
BRANCH   3  13
ATOM     13  O   UNL     1       6.777   1.562  23.975  0.00  0.00    -0.453 OA
BRANCH  13  14
ATOM     14  C   UNL     1       7.966   2.182  23.646  0.00  0.00    +0.214 A 
ATOM     15  C   UNL     1       8.069   3.627  23.276  0.00  0.00    +0.238 A 
ATOM     16  O   UNL     1       7.114   4.261  22.847  0.00  0.00    -0.283 OA
ATOM     17  C   UNL     1       9.404   4.240  23.381  0.00  0.00    +0.109 A 
ATOM     18  C   UNL     1      10.498   3.387  23.517  0.00  0.00    +0.147 A 
ATOM     19  C   UNL     1      11.787   3.914  23.661  0.00  0.00    +0.092 A 
ATOM     20  C   UNL     1      11.965   5.295  23.647  0.00  0.00    +0.124 A 
ATOM     21  C   UNL     1      10.887   6.156  23.476  0.00  0.00    +0.091 A 
ATOM     22  O   UNL     1      10.379   2.018  23.483  0.00  0.00    -0.451 OA
ATOM     23  C   UNL     1       9.606   5.629  23.343  0.00  0.00    +0.135 A 
ATOM     24  C   UNL     1       9.112   1.461  23.611  0.00  0.00    +0.181 A 
BRANCH  24  25
ATOM     25  C   UNL     1       9.119  -0.033  23.699  0.00  0.00    +0.025 A 
ATOM     26  C   UNL     1       9.259  -0.836  22.552  0.00  0.00    +0.015 A 
ATOM     27  C   UNL     1       9.268  -2.237  22.644  0.00  0.00    +0.050 A 
ATOM     28  C   UNL     1       9.143  -2.843  23.885  0.00  0.00    +0.158 A 
ATOM     29  C   UNL     1       8.972  -2.076  25.027  0.00  0.00    +0.159 A 
ATOM     30  C   UNL     1       8.930  -0.686  24.937  0.00  0.00    +0.060 A 
BRANCH  29  31
ATOM     31  O   UNL     1       8.857  -2.722  26.227  0.00  0.00    -0.503 OA
ATOM     32  H   UNL     1       9.720  -3.127  26.431  0.00  0.00    +0.292 HD
ENDBRANCH  29  31
BRANCH  28  33
ATOM     33  O   UNL     1       9.193  -4.204  23.977  0.00  0.00    -0.503 OA
ATOM     34  H   UNL     1       9.809  -4.376  24.719  0.00  0.00    +0.292 HD
ENDBRANCH  28  33
ENDBRANCH  24  25
BRANCH  20  35
ATOM     35  O   UNL     1      13.195   5.863  23.802  0.00  0.00    -0.507 OA
ATOM     36  H   UNL     1      13.089   6.802  24.031  0.00  0.00    +0.292 HD
ENDBRANCH  20  35
BRANCH  23  37
ATOM     37  O   UNL     1       8.555   6.488  23.195  0.00  0.00    -0.506 OA
ATOM     38  H   UNL     1       7.817   6.045  22.746  0.00  0.00    +0.292 HD
ENDBRANCH  23  37
ENDBRANCH  13  14
ENDBRANCH   3  13
BRANCH   1  39
ATOM     39  C   UNL     1       5.268  -0.124  28.211  0.00  0.00    +0.266 C 
BRANCH  39  40
ATOM     40  O   UNL     1       4.058  -0.923  28.156  0.00  0.00    -0.459 OA
BRANCH  40  41
ATOM     41  C   UNL     1       4.221  -2.263  27.998  0.00  0.00    +0.332 C 
ATOM     42  O   UNL     1       4.197  -3.098  28.890  0.00  0.00    -0.246 OA
BRANCH  41  44
ATOM     43  C   UNL     1       5.432  -3.021  26.020  0.00  0.00    +0.015 C 
ATOM     44  C   UNL     1       4.280  -2.562  26.545  0.00  0.00    +0.092 C 
BRANCH  43  46
ATOM     45  C   UNL     1       5.593  -2.577  23.533  0.00  0.00    +0.011 A 
ATOM     46  C   UNL     1       5.650  -3.453  24.627  0.00  0.00    -0.025 A 
ATOM     47  C   UNL     1       5.801  -4.825  24.374  0.00  0.00    +0.011 A 
ATOM     48  C   UNL     1       5.901  -5.310  23.069  0.00  0.00    +0.046 A 
ATOM     49  C   UNL     1       5.836  -4.429  21.998  0.00  0.00    +0.117 A 
ATOM     50  C   UNL     1       5.688  -3.062  22.220  0.00  0.00    +0.046 A 
BRANCH  49  51
ATOM     51  O   UNL     1       5.904  -4.947  20.745  0.00  0.00    -0.507 OA
ATOM     52  H   UNL     1       5.668  -4.260  20.101  0.00  0.00    +0.292 HD
ENDBRANCH  49  51
ENDBRANCH  43  46
ENDBRANCH  41  44
ENDBRANCH  40  41
ENDBRANCH  39  40
ENDBRANCH   1  39
TORSDOF 16
ENDMDL
MODEL 7
REMARK VINA RESULT:      -7.2      2.053      7.638
REMARK  Name = 
REMARK  16 active torsions:
REMARK  status: ('A' for Active; 'I' for Inactive)
REMARK    1  A    between atoms: C_3  and  O_49
REMARK    2  A    between atoms: C_6  and  C_7
REMARK    3  A    between atoms: C_8  and  C_9
REMARK    4  A    between atoms: C_9  and  O_11
REMARK    5  A    between atoms: O_11  and  C_12
REMARK    6  A    between atoms: C_12  and  C_13
REMARK    7  A    between atoms: C_15  and  O_48
REMARK    8  A    between atoms: C_17  and  O_47
REMARK    9  A    between atoms: C_19  and  O_46
REMARK   10  A    between atoms: C_21  and  O_24
REMARK   11  A    between atoms: O_24  and  C_25
REMARK   12  A    between atoms: C_26  and  C_38
REMARK   13  A    between atoms: C_30  and  O_37
REMARK   14  A    between atoms: C_32  and  O_36
REMARK   15  A    between atoms: C_40  and  O_45
REMARK   16  A    between atoms: C_41  and  O_44
REMARK                            x       y       z     vdW  Elec       q    Type
REMARK                         _______ _______ _______ _____ _____    ______ ____
ROOT
ATOM      1  C   UNL     1       5.506  -0.972  27.681  0.00  0.00    +0.191 C 
ATOM      2  O   UNL     1       6.494  -1.210  26.667  0.00  0.00    -0.330 OA
ATOM      3  C   UNL     1       7.506  -0.185  26.635  0.00  0.00    +0.340 C 
ATOM      4  C   UNL     1       6.897   1.197  26.310  0.00  0.00    +0.214 C 
ATOM      5  C   UNL     1       5.768   1.494  27.291  0.00  0.00    +0.180 C 
ATOM      6  C   UNL     1       4.769   0.347  27.376  0.00  0.00    +0.178 C 
ENDROOT
BRANCH   6   7
ATOM      7  O   UNL     1       3.823   0.738  28.379  0.00  0.00    -0.386 OA
ATOM      8  H   UNL     1       3.660  -0.036  28.946  0.00  0.00    +0.210 HD
ENDBRANCH   6   7
BRANCH   5   9
ATOM      9  O   UNL     1       5.081   2.694  26.908  0.00  0.00    -0.386 OA
ATOM     10  H   UNL     1       4.483   2.894  27.657  0.00  0.00    +0.210 HD
ENDBRANCH   5   9
BRANCH   4  11
ATOM     11  O   UNL     1       7.911   2.224  26.378  0.00  0.00    -0.383 OA
ATOM     12  H   UNL     1       7.726   2.870  25.671  0.00  0.00    +0.210 HD
ENDBRANCH   4  11
BRANCH   3  13
ATOM     13  O   UNL     1       8.437  -0.442  25.584  0.00  0.00    -0.453 OA
BRANCH  13  14
ATOM     14  C   UNL     1       8.201  -1.345  24.567  0.00  0.00    +0.214 A 
ATOM     15  C   UNL     1       8.409  -2.820  24.707  0.00  0.00    +0.238 A 
ATOM     16  O   UNL     1       9.160  -3.296  25.548  0.00  0.00    -0.283 OA
ATOM     17  C   UNL     1       7.719  -3.678  23.730  0.00  0.00    +0.109 A 
ATOM     18  C   UNL     1       7.188  -3.067  22.595  0.00  0.00    +0.147 A 
ATOM     19  C   UNL     1       6.487  -3.826  21.650  0.00  0.00    +0.092 A 
ATOM     20  C   UNL     1       6.344  -5.197  21.847  0.00  0.00    +0.124 A 
ATOM     21  C   UNL     1       6.900  -5.825  22.956  0.00  0.00    +0.091 A 
ATOM     22  O   UNL     1       7.349  -1.727  22.330  0.00  0.00    -0.451 OA
ATOM     23  C   UNL     1       7.587  -5.065  23.898  0.00  0.00    +0.135 A 
ATOM     24  C   UNL     1       7.795  -0.900  23.354  0.00  0.00    +0.181 A 
BRANCH  24  25
ATOM     25  C   UNL     1       7.800   0.552  22.994  0.00  0.00    +0.025 A 
ATOM     26  C   UNL     1       6.617   1.224  22.633  0.00  0.00    +0.015 A 
ATOM     27  C   UNL     1       6.630   2.587  22.300  0.00  0.00    +0.050 A 
ATOM     28  C   UNL     1       7.826   3.289  22.331  0.00  0.00    +0.158 A 
ATOM     29  C   UNL     1       9.010   2.644  22.652  0.00  0.00    +0.159 A 
ATOM     30  C   UNL     1       9.008   1.284  22.952  0.00  0.00    +0.060 A 
BRANCH  29  31
ATOM     31  O   UNL     1      10.162   3.382  22.672  0.00  0.00    -0.503 OA
ATOM     32  H   UNL     1      10.376   3.624  21.751  0.00  0.00    +0.292 HD
ENDBRANCH  29  31
BRANCH  28  33
ATOM     33  O   UNL     1       7.830   4.625  22.045  0.00  0.00    -0.503 OA
ATOM     34  H   UNL     1       6.895   4.899  22.150  0.00  0.00    +0.292 HD
ENDBRANCH  28  33
ENDBRANCH  24  25
BRANCH  20  35
ATOM     35  O   UNL     1       5.656  -5.981  20.969  0.00  0.00    -0.507 OA
ATOM     36  H   UNL     1       6.285  -6.510  20.450  0.00  0.00    +0.292 HD
ENDBRANCH  20  35
BRANCH  23  37
ATOM     37  O   UNL     1       8.111  -5.694  24.991  0.00  0.00    -0.506 OA
ATOM     38  H   UNL     1       8.930  -6.159  24.754  0.00  0.00    +0.292 HD
ENDBRANCH  23  37
ENDBRANCH  13  14
ENDBRANCH   3  13
BRANCH   1  39
ATOM     39  C   UNL     1       4.505  -2.149  27.753  0.00  0.00    +0.266 C 
BRANCH  39  40
ATOM     40  O   UNL     1       5.130  -3.314  28.351  0.00  0.00    -0.459 OA
BRANCH  40  41
ATOM     41  C   UNL     1       5.761  -4.168  27.503  0.00  0.00    +0.332 C 
ATOM     42  O   UNL     1       6.843  -4.701  27.696  0.00  0.00    -0.246 OA
BRANCH  41  44
ATOM     43  C   UNL     1       4.695  -5.745  25.977  0.00  0.00    +0.015 C 
ATOM     44  C   UNL     1       4.848  -4.467  26.370  0.00  0.00    +0.092 C 
BRANCH  43  46
ATOM     45  C   UNL     1       3.279  -5.433  23.902  0.00  0.00    +0.011 A 
ATOM     46  C   UNL     1       3.771  -6.239  24.939  0.00  0.00    -0.025 A 
ATOM     47  C   UNL     1       3.266  -7.542  25.067  0.00  0.00    +0.011 A 
ATOM     48  C   UNL     1       2.304  -8.031  24.181  0.00  0.00    +0.046 A 
ATOM     49  C   UNL     1       1.825  -7.218  23.164  0.00  0.00    +0.117 A 
ATOM     50  C   UNL     1       2.309  -5.920  23.014  0.00  0.00    +0.046 A 
BRANCH  49  51
ATOM     51  O   UNL     1       0.865  -7.722  22.345  0.00  0.00    -0.507 OA
ATOM     52  H   UNL     1       0.134  -7.087  22.279  0.00  0.00    +0.292 HD
ENDBRANCH  49  51
ENDBRANCH  43  46
ENDBRANCH  41  44
ENDBRANCH  40  41
ENDBRANCH  39  40
ENDBRANCH   1  39
TORSDOF 16
ENDMDL
MODEL 8
REMARK VINA RESULT:      -7.1      2.077      7.904
REMARK  Name = 
REMARK  16 active torsions:
REMARK  status: ('A' for Active; 'I' for Inactive)
REMARK    1  A    between atoms: C_3  and  O_49
REMARK    2  A    between atoms: C_6  and  C_7
REMARK    3  A    between atoms: C_8  and  C_9
REMARK    4  A    between atoms: C_9  and  O_11
REMARK    5  A    between atoms: O_11  and  C_12
REMARK    6  A    between atoms: C_12  and  C_13
REMARK    7  A    between atoms: C_15  and  O_48
REMARK    8  A    between atoms: C_17  and  O_47
REMARK    9  A    between atoms: C_19  and  O_46
REMARK   10  A    between atoms: C_21  and  O_24
REMARK   11  A    between atoms: O_24  and  C_25
REMARK   12  A    between atoms: C_26  and  C_38
REMARK   13  A    between atoms: C_30  and  O_37
REMARK   14  A    between atoms: C_32  and  O_36
REMARK   15  A    between atoms: C_40  and  O_45
REMARK   16  A    between atoms: C_41  and  O_44
REMARK                            x       y       z     vdW  Elec       q    Type
REMARK                         _______ _______ _______ _____ _____    ______ ____
ROOT
ATOM      1  C   UNL     1       4.781  -0.398  27.717  0.00  0.00    +0.191 C 
ATOM      2  O   UNL     1       5.914  -1.071  27.148  0.00  0.00    -0.330 OA
ATOM      3  C   UNL     1       7.091  -0.241  27.125  0.00  0.00    +0.340 C 
ATOM      4  C   UNL     1       6.874   1.019  26.257  0.00  0.00    +0.214 C 
ATOM      5  C   UNL     1       5.627   1.753  26.737  0.00  0.00    +0.180 C 
ATOM      6  C   UNL     1       4.424   0.824  26.848  0.00  0.00    +0.178 C 
ENDROOT
BRANCH   6   7
ATOM      7  O   UNL     1       3.364   1.632  27.374  0.00  0.00    -0.386 OA
ATOM      8  H   UNL     1       3.739   2.503  27.590  0.00  0.00    +0.210 HD
ENDBRANCH   6   7
BRANCH   5   9
ATOM      9  O   UNL     1       5.312   2.832  25.845  0.00  0.00    -0.386 OA
ATOM     10  H   UNL     1       4.397   3.093  26.076  0.00  0.00    +0.210 HD
ENDBRANCH   5   9
BRANCH   4  11
ATOM     11  O   UNL     1       8.029   1.885  26.325  0.00  0.00    -0.383 OA
ATOM     12  H   UNL     1       8.531   1.646  27.126  0.00  0.00    +0.210 HD
ENDBRANCH   4  11
BRANCH   3  13
ATOM     13  O   UNL     1       8.176  -0.937  26.512  0.00  0.00    -0.453 OA
BRANCH  13  14
ATOM     14  C   UNL     1       8.004  -1.892  25.530  0.00  0.00    +0.214 A 
ATOM     15  C   UNL     1       7.552  -3.291  25.809  0.00  0.00    +0.238 A 
ATOM     16  O   UNL     1       7.686  -3.813  26.907  0.00  0.00    -0.283 OA
ATOM     17  C   UNL     1       7.002  -4.044  24.670  0.00  0.00    +0.109 A 
ATOM     18  C   UNL     1       7.215  -3.530  23.391  0.00  0.00    +0.147 A 
ATOM     19  C   UNL     1       6.681  -4.182  22.274  0.00  0.00    +0.092 A 
ATOM     20  C   UNL     1       5.954  -5.356  22.451  0.00  0.00    +0.124 A 
ATOM     21  C   UNL     1       5.764  -5.898  23.717  0.00  0.00    +0.091 A 
ATOM     22  O   UNL     1       7.972  -2.405  23.162  0.00  0.00    -0.451 OA
ATOM     23  C   UNL     1       6.288  -5.242  24.827  0.00  0.00    +0.135 A 
ATOM     24  C   UNL     1       8.288  -1.589  24.241  0.00  0.00    +0.181 A 
BRANCH  24  25
ATOM     25  C   UNL     1       8.992  -0.327  23.854  0.00  0.00    +0.025 A 
ATOM     26  C   UNL     1      10.207   0.051  24.455  0.00  0.00    +0.015 A 
ATOM     27  C   UNL     1      10.863   1.235  24.082  0.00  0.00    +0.050 A 
ATOM     28  C   UNL     1      10.310   2.046  23.102  0.00  0.00    +0.158 A 
ATOM     29  C   UNL     1       9.098   1.713  22.517  0.00  0.00    +0.159 A 
ATOM     30  C   UNL     1       8.427   0.556  22.906  0.00  0.00    +0.060 A 
BRANCH  29  31
ATOM     31  O   UNL     1       8.597   2.544  21.554  0.00  0.00    -0.503 OA
ATOM     32  H   UNL     1       8.517   3.435  21.942  0.00  0.00    +0.292 HD
ENDBRANCH  29  31
BRANCH  28  33
ATOM     33  O   UNL     1      10.970   3.176  22.713  0.00  0.00    -0.503 OA
ATOM     34  H   UNL     1      11.886   3.047  23.035  0.00  0.00    +0.292 HD
ENDBRANCH  28  33
ENDBRANCH  24  25
BRANCH  20  35
ATOM     35  O   UNL     1       5.396  -6.022  21.400  0.00  0.00    -0.507 OA
ATOM     36  H   UNL     1       6.086  -6.522  20.934  0.00  0.00    +0.292 HD
ENDBRANCH  20  35
BRANCH  23  37
ATOM     37  O   UNL     1       6.077  -5.778  26.065  0.00  0.00    -0.506 OA
ATOM     38  H   UNL     1       6.086  -5.081  26.741  0.00  0.00    +0.292 HD
ENDBRANCH  23  37
ENDBRANCH  13  14
ENDBRANCH   3  13
BRANCH   1  39
ATOM     39  C   UNL     1       3.573  -1.359  27.822  0.00  0.00    +0.266 C 
BRANCH  39  40
ATOM     40  O   UNL     1       2.668  -1.163  26.705  0.00  0.00    -0.459 OA
BRANCH  40  41
ATOM     41  C   UNL     1       1.392  -1.599  26.874  0.00  0.00    +0.332 C 
ATOM     42  O   UNL     1       0.459  -0.937  27.304  0.00  0.00    -0.246 OA
BRANCH  41  44
ATOM     43  C   UNL     1       2.232  -3.398  25.457  0.00  0.00    +0.015 C 
ATOM     44  C   UNL     1       1.282  -2.967  26.307  0.00  0.00    +0.092 C 
BRANCH  43  46
ATOM     45  C   UNL     1       2.149  -5.005  23.503  0.00  0.00    +0.011 A 
ATOM     46  C   UNL     1       2.337  -4.746  24.869  0.00  0.00    -0.025 A 
ATOM     47  C   UNL     1       2.512  -5.836  25.735  0.00  0.00    +0.011 A 
ATOM     48  C   UNL     1       2.509  -7.147  25.253  0.00  0.00    +0.046 A 
ATOM     49  C   UNL     1       2.315  -7.384  23.900  0.00  0.00    +0.117 A 
ATOM     50  C   UNL     1       2.141  -6.321  23.017  0.00  0.00    +0.046 A 
BRANCH  49  51
ATOM     51  O   UNL     1       2.286  -8.675  23.479  0.00  0.00    -0.507 OA
ATOM     52  H   UNL     1       1.838  -8.722  22.618  0.00  0.00    +0.292 HD
ENDBRANCH  49  51
ENDBRANCH  43  46
ENDBRANCH  41  44
ENDBRANCH  40  41
ENDBRANCH  39  40
ENDBRANCH   1  39
TORSDOF 16
ENDMDL
MODEL 9
REMARK VINA RESULT:      -7.1      2.896      6.764
REMARK  Name = 
REMARK  16 active torsions:
REMARK  status: ('A' for Active; 'I' for Inactive)
REMARK    1  A    between atoms: C_3  and  O_49
REMARK    2  A    between atoms: C_6  and  C_7
REMARK    3  A    between atoms: C_8  and  C_9
REMARK    4  A    between atoms: C_9  and  O_11
REMARK    5  A    between atoms: O_11  and  C_12
REMARK    6  A    between atoms: C_12  and  C_13
REMARK    7  A    between atoms: C_15  and  O_48
REMARK    8  A    between atoms: C_17  and  O_47
REMARK    9  A    between atoms: C_19  and  O_46
REMARK   10  A    between atoms: C_21  and  O_24
REMARK   11  A    between atoms: O_24  and  C_25
REMARK   12  A    between atoms: C_26  and  C_38
REMARK   13  A    between atoms: C_30  and  O_37
REMARK   14  A    between atoms: C_32  and  O_36
REMARK   15  A    between atoms: C_40  and  O_45
REMARK   16  A    between atoms: C_41  and  O_44
REMARK                            x       y       z     vdW  Elec       q    Type
REMARK                         _______ _______ _______ _____ _____    ______ ____
ROOT
ATOM      1  C   UNL     1      10.055   1.366  23.781  0.00  0.00    +0.191 C 
ATOM      2  O   UNL     1       9.408   0.344  24.552  0.00  0.00    -0.330 OA
ATOM      3  C   UNL     1       9.684  -0.979  24.053  0.00  0.00    +0.340 C 
ATOM      4  C   UNL     1       9.167  -1.154  22.608  0.00  0.00    +0.214 C 
ATOM      5  C   UNL     1       9.738  -0.046  21.730  0.00  0.00    +0.180 C 
ATOM      6  C   UNL     1       9.517   1.334  22.337  0.00  0.00    +0.178 C 
ENDROOT
BRANCH   6   7
ATOM      7  O   UNL     1      10.165   2.251  21.446  0.00  0.00    -0.386 OA
ATOM      8  H   UNL     1      10.576   2.945  21.989  0.00  0.00    +0.210 HD
ENDBRANCH   6   7
BRANCH   5   9
ATOM      9  O   UNL     1       9.143  -0.092  20.425  0.00  0.00    -0.386 OA
ATOM     10  H   UNL     1       8.672   0.762  20.331  0.00  0.00    +0.210 HD
ENDBRANCH   5   9
BRANCH   4  11
ATOM     11  O   UNL     1       9.539  -2.452  22.092  0.00  0.00    -0.383 OA
ATOM     12  H   UNL     1       9.834  -2.331  21.171  0.00  0.00    +0.210 HD
ENDBRANCH   4  11
BRANCH   3  13
ATOM     13  O   UNL     1       8.984  -1.955  24.824  0.00  0.00    -0.453 OA
BRANCH  13  14
ATOM     14  C   UNL     1       7.891  -1.656  25.612  0.00  0.00    +0.214 A 
ATOM     15  C   UNL     1       7.968  -0.814  26.846  0.00  0.00    +0.238 A 
ATOM     16  O   UNL     1       9.010  -0.664  27.470  0.00  0.00    -0.283 OA
ATOM     17  C   UNL     1       6.705  -0.226  27.322  0.00  0.00    +0.109 A 
ATOM     18  C   UNL     1       5.518  -0.727  26.789  0.00  0.00    +0.147 A 
ATOM     19  C   UNL     1       4.288  -0.180  27.174  0.00  0.00    +0.092 A 
ATOM     20  C   UNL     1       4.264   0.853  28.108  0.00  0.00    +0.124 A 
ATOM     21  C   UNL     1       5.437   1.337  28.674  0.00  0.00    +0.091 A 
ATOM     22  O   UNL     1       5.488  -1.780  25.906  0.00  0.00    -0.451 OA
ATOM     23  C   UNL     1       6.658   0.797  28.281  0.00  0.00    +0.135 A 
ATOM     24  C   UNL     1       6.677  -2.168  25.299  0.00  0.00    +0.181 A 
BRANCH  24  25
ATOM     25  C   UNL     1       6.502  -3.229  24.258  0.00  0.00    +0.025 A 
ATOM     26  C   UNL     1       6.710  -4.589  24.552  0.00  0.00    +0.015 A 
ATOM     27  C   UNL     1       6.540  -5.578  23.570  0.00  0.00    +0.050 A 
ATOM     28  C   UNL     1       6.154  -5.212  22.289  0.00  0.00    +0.158 A 
ATOM     29  C   UNL     1       5.973  -3.876  21.965  0.00  0.00    +0.159 A 
ATOM     30  C   UNL     1       6.172  -2.889  22.927  0.00  0.00    +0.060 A 
BRANCH  29  31
ATOM     31  O   UNL     1       5.589  -3.568  20.688  0.00  0.00    -0.503 OA
ATOM     32  H   UNL     1       6.397  -3.479  20.149  0.00  0.00    +0.292 HD
ENDBRANCH  29  31
BRANCH  28  33
ATOM     33  O   UNL     1       5.949  -6.178  21.346  0.00  0.00    -0.503 OA
ATOM     34  H   UNL     1       5.541  -6.919  21.841  0.00  0.00    +0.292 HD
ENDBRANCH  28  33
ENDBRANCH  24  25
BRANCH  20  35
ATOM     35  O   UNL     1       3.096   1.435  28.506  0.00  0.00    -0.507 OA
ATOM     36  H   UNL     1       2.638   0.844  29.127  0.00  0.00    +0.292 HD
ENDBRANCH  20  35
BRANCH  23  37
ATOM     37  O   UNL     1       7.803   1.297  28.832  0.00  0.00    -0.506 OA
ATOM     38  H   UNL     1       7.926   0.949  29.731  0.00  0.00    +0.292 HD
ENDBRANCH  23  37
ENDBRANCH  13  14
ENDBRANCH   3  13
BRANCH   1  39
ATOM     39  C   UNL     1       9.821   2.757  24.415  0.00  0.00    +0.266 C 
BRANCH  39  40
ATOM     40  O   UNL     1      10.462   3.792  23.624  0.00  0.00    -0.459 OA
BRANCH  40  41
ATOM     41  C   UNL     1       9.897   5.027  23.668  0.00  0.00    +0.332 C 
ATOM     42  O   UNL     1      10.481   6.088  23.507  0.00  0.00    -0.246 OA
BRANCH  41  44
ATOM     43  C   UNL     1       7.648   5.175  22.734  0.00  0.00    +0.015 C 
ATOM     44  C   UNL     1       8.426   4.868  23.789  0.00  0.00    +0.092 C 
BRANCH  43  46
ATOM     45  C   UNL     1       5.276   6.060  22.726  0.00  0.00    +0.011 A 
ATOM     46  C   UNL     1       6.187   4.997  22.640  0.00  0.00    -0.025 A 
ATOM     47  C   UNL     1       5.681   3.689  22.585  0.00  0.00    +0.011 A 
ATOM     48  C   UNL     1       4.306   3.448  22.606  0.00  0.00    +0.046 A 
ATOM     49  C   UNL     1       3.419   4.512  22.697  0.00  0.00    +0.117 A 
ATOM     50  C   UNL     1       3.895   5.820  22.752  0.00  0.00    +0.046 A 
BRANCH  49  51
ATOM     51  O   UNL     1       2.092   4.231  22.748  0.00  0.00    -0.507 OA
ATOM     52  H   UNL     1       1.605   5.029  23.012  0.00  0.00    +0.292 HD
ENDBRANCH  49  51
ENDBRANCH  43  46
ENDBRANCH  41  44
ENDBRANCH  40  41
ENDBRANCH  39  40
ENDBRANCH   1  39
TORSDOF 16
ENDMDL
