MODEL 1
REMARK VINA RESULT:      -7.8      0.000      0.000
REMARK  Name = 
REMARK  22 active torsions:
REMARK  status: ('A' for Active; 'I' for Inactive)
REMARK    1  A    between atoms: C_1  and  C_2
REMARK    2  A    between atoms: C_3  and  O_61
REMARK    3  A    between atoms: C_5  and  O_60
REMARK    4  A    between atoms: C_7  and  O_59
REMARK    5  A    between atoms: C_8  and  O_11
REMARK    6  A    between atoms: O_11  and  C_12
REMARK    7  A    between atoms: C_13  and  O_58
REMARK    8  A    between atoms: C_15  and  O_57
REMARK    9  A    between atoms: C_17  and  C_56
REMARK   10  A    between atoms: C_19  and  O_21
REMARK   11  A    between atoms: O_21  and  C_22
REMARK   12  A    between atoms: C_22  and  C_23
REMARK   13  A    between atoms: C_24  and  O_55
REMARK   14  A    between atoms: C_26  and  O_54
REMARK   15  A    between atoms: C_27  and  O_53
REMARK   16  A    between atoms: C_28  and  O_31
REMARK   17  A    between atoms: O_31  and  C_32
REMARK   18  A    between atoms: C_33  and  C_45
REMARK   19  A    between atoms: C_37  and  O_44
REMARK   20  A    between atoms: C_39  and  O_43
REMARK   21  A    between atoms: C_47  and  O_52
REMARK   22  A    between atoms: C_48  and  O_51
REMARK                            x       y       z     vdW  Elec       q    Type
REMARK                         _______ _______ _______ _____ _____    ______ ____
ROOT
ATOM      1  C   UNL     1       5.973   1.240  28.186  0.00  0.00    +0.179 C 
ATOM      2  O   UNL     1       6.881   0.238  27.617  0.00  0.00    -0.331 OA
ATOM      3  C   UNL     1       6.396  -0.802  26.710  0.00  0.00    +0.340 C 
ATOM      4  C   UNL     1       4.971  -1.326  27.074  0.00  0.00    +0.214 C 
ATOM      5  C   UNL     1       4.034  -0.208  27.528  0.00  0.00    +0.180 C 
ATOM      6  C   UNL     1       4.667   0.588  28.670  0.00  0.00    +0.177 C 
ENDROOT
BRANCH   4   7
ATOM      7  O   UNL     1       4.953  -2.342  28.106  0.00  0.00    -0.383 OA
ATOM      8  H   UNL     1       4.629  -1.940  28.928  0.00  0.00    +0.210 HD
ENDBRANCH   4   7
BRANCH   5   9
ATOM      9  O   UNL     1       2.796  -0.800  27.959  0.00  0.00    -0.386 OA
ATOM     10  H   UNL     1       2.559  -1.445  27.261  0.00  0.00    +0.210 HD
ENDBRANCH   5   9
BRANCH   6  11
ATOM     11  O   UNL     1       3.730   1.535  29.177  0.00  0.00    -0.386 OA
ATOM     12  H   UNL     1       3.862   2.380  28.709  0.00  0.00    +0.210 HD
ENDBRANCH   6  11
BRANCH   1  13
ATOM     13  C   UNL     1       5.772   2.626  27.404  0.00  0.00    +0.197 C 
BRANCH  13  14
ATOM     14  O   UNL     1       4.439   2.786  26.767  0.00  0.00    -0.346 OA
BRANCH  14  16
ATOM     15  C   UNL     1       5.800   4.290  25.013  0.00  0.00    +0.208 C 
ATOM     16  C   UNL     1       4.474   3.407  25.437  0.00  0.00    +0.282 C 
ATOM     17  O   UNL     1       4.221   2.423  24.420  0.00  0.00    -0.343 OA
ATOM     18  C   UNL     1       3.904   2.941  23.114  0.00  0.00    +0.149 C 
ATOM     19  C   UNL     1       2.459   3.442  23.065  0.00  0.00    +0.041 C 
ATOM     20  C   UNL     1       4.929   3.975  22.597  0.00  0.00    +0.174 C 
ATOM     21  C   UNL     1       5.356   4.978  23.691  0.00  0.00    +0.179 C 
BRANCH  20  22
ATOM     22  O   UNL     1       6.068   3.268  22.078  0.00  0.00    -0.387 OA
ATOM     23  H   UNL     1       6.080   3.439  21.119  0.00  0.00    +0.210 HD
ENDBRANCH  20  22
BRANCH  21  24
ATOM     24  O   UNL     1       6.340   5.890  23.193  0.00  0.00    -0.386 OA
ATOM     25  H   UNL     1       6.826   5.436  22.480  0.00  0.00    +0.210 HD
ENDBRANCH  21  24
BRANCH  15  26
ATOM     26  O   UNL     1       6.992   3.482  24.903  0.00  0.00    -0.338 OA
BRANCH  26  30
ATOM     27  C   UNL     1       9.974   6.693  26.297  0.00  0.00    +0.041 C 
ATOM     28  C   UNL     1       9.187   6.323  25.042  0.00  0.00    +0.149 C 
ATOM     29  O   UNL     1       8.223   5.308  25.305  0.00  0.00    -0.343 OA
ATOM     30  C   UNL     1       8.389   3.905  24.986  0.00  0.00    +0.282 C 
ATOM     31  C   UNL     1       9.396   3.649  23.803  0.00  0.00    +0.201 C 
ATOM     32  C   UNL     1      10.596   4.649  23.846  0.00  0.00    +0.179 C 
ATOM     33  C   UNL     1      10.093   6.086  23.842  0.00  0.00    +0.174 C 
BRANCH  31  34
ATOM     34  O   UNL     1       8.747   3.742  22.525  0.00  0.00    -0.384 OA
ATOM     35  H   UNL     1       8.990   2.919  22.047  0.00  0.00    +0.210 HD
ENDBRANCH  31  34
BRANCH  32  36
ATOM     36  O   UNL     1      11.465   4.463  22.710  0.00  0.00    -0.386 OA
ATOM     37  H   UNL     1      12.235   3.916  22.986  0.00  0.00    +0.210 HD
ENDBRANCH  32  36
BRANCH  33  38
ATOM     38  O   UNL     1       9.397   6.372  22.618  0.00  0.00    -0.387 OA
ATOM     39  H   UNL     1       8.847   5.593  22.400  0.00  0.00    +0.210 HD
ENDBRANCH  33  38
ENDBRANCH  26  30
ENDBRANCH  15  26
ENDBRANCH  14  16
ENDBRANCH  13  14
ENDBRANCH   1  13
BRANCH   3  40
ATOM     40  O   UNL     1       7.364  -1.951  26.676  0.00  0.00    -0.453 OA
BRANCH  40  41
ATOM     41  C   UNL     1       7.029  -3.023  25.838  0.00  0.00    +0.214 A 
ATOM     42  C   UNL     1       6.943  -4.384  26.409  0.00  0.00    +0.238 A 
ATOM     43  O   UNL     1       7.758  -4.819  27.213  0.00  0.00    -0.283 OA
ATOM     44  C   UNL     1       5.936  -5.249  25.854  0.00  0.00    +0.109 A 
ATOM     45  C   UNL     1       5.746  -5.146  24.487  0.00  0.00    +0.147 A 
ATOM     46  C   UNL     1       4.904  -6.065  23.857  0.00  0.00    +0.092 A 
ATOM     47  C   UNL     1       4.264  -7.040  24.636  0.00  0.00    +0.124 A 
ATOM     48  C   UNL     1       4.431  -7.102  26.025  0.00  0.00    +0.091 A 
ATOM     49  O   UNL     1       6.416  -4.179  23.766  0.00  0.00    -0.451 OA
ATOM     50  C   UNL     1       5.273  -6.191  26.637  0.00  0.00    +0.135 A 
ATOM     51  C   UNL     1       6.964  -3.066  24.469  0.00  0.00    +0.181 A 
BRANCH  51  52
ATOM     52  C   UNL     1       7.556  -2.071  23.514  0.00  0.00    +0.025 A 
ATOM     53  C   UNL     1       6.985  -0.786  23.401  0.00  0.00    +0.015 A 
ATOM     54  C   UNL     1       7.604   0.238  22.663  0.00  0.00    +0.050 A 
ATOM     55  C   UNL     1       8.812  -0.006  22.033  0.00  0.00    +0.158 A 
ATOM     56  C   UNL     1       9.416  -1.254  22.147  0.00  0.00    +0.159 A 
ATOM     57  C   UNL     1       8.807  -2.281  22.888  0.00  0.00    +0.060 A 
BRANCH  55  58
ATOM     58  O   UNL     1       9.421   0.993  21.329  0.00  0.00    -0.503 OA
ATOM     59  H   UNL     1      10.362   0.728  21.275  0.00  0.00    +0.292 HD
ENDBRANCH  55  58
BRANCH  56  60
ATOM     60  O   UNL     1      10.628  -1.414  21.528  0.00  0.00    -0.503 OA
ATOM     61  H   UNL     1      10.696  -0.767  20.806  0.00  0.00    +0.292 HD
ENDBRANCH  56  60
ENDBRANCH  51  52
BRANCH  47  62
ATOM     62  O   UNL     1       3.435  -7.966  24.082  0.00  0.00    -0.507 OA
ATOM     63  H   UNL     1       2.979  -7.588  23.300  0.00  0.00    +0.292 HD
ENDBRANCH  47  62
BRANCH  50  64
ATOM     64  O   UNL     1       5.417  -6.169  27.994  0.00  0.00    -0.506 OA
ATOM     65  H   UNL     1       4.841  -6.835  28.379  0.00  0.00    +0.292 HD
ENDBRANCH  50  64
ENDBRANCH  40  41
ENDBRANCH   3  40
TORSDOF 20
ENDMDL
MODEL 2
REMARK VINA RESULT:      -7.7      1.845      8.952
REMARK  Name = 
REMARK  22 active torsions:
REMARK  status: ('A' for Active; 'I' for Inactive)
REMARK    1  A    between atoms: C_1  and  C_2
REMARK    2  A    between atoms: C_3  and  O_61
REMARK    3  A    between atoms: C_5  and  O_60
REMARK    4  A    between atoms: C_7  and  O_59
REMARK    5  A    between atoms: C_8  and  O_11
REMARK    6  A    between atoms: O_11  and  C_12
REMARK    7  A    between atoms: C_13  and  O_58
REMARK    8  A    between atoms: C_15  and  O_57
REMARK    9  A    between atoms: C_17  and  C_56
REMARK   10  A    between atoms: C_19  and  O_21
REMARK   11  A    between atoms: O_21  and  C_22
REMARK   12  A    between atoms: C_22  and  C_23
REMARK   13  A    between atoms: C_24  and  O_55
REMARK   14  A    between atoms: C_26  and  O_54
REMARK   15  A    between atoms: C_27  and  O_53
REMARK   16  A    between atoms: C_28  and  O_31
REMARK   17  A    between atoms: O_31  and  C_32
REMARK   18  A    between atoms: C_33  and  C_45
REMARK   19  A    between atoms: C_37  and  O_44
REMARK   20  A    between atoms: C_39  and  O_43
REMARK   21  A    between atoms: C_47  and  O_52
REMARK   22  A    between atoms: C_48  and  O_51
REMARK                            x       y       z     vdW  Elec       q    Type
REMARK                         _______ _______ _______ _____ _____    ______ ____
ROOT
ATOM      1  C   UNL     1       9.736  -0.426  25.168  0.00  0.00    +0.179 C 
ATOM      2  O   UNL     1       9.654   0.986  24.779  0.00  0.00    -0.331 OA
ATOM      3  C   UNL     1       8.604   1.470  23.884  0.00  0.00    +0.340 C 
ATOM      4  C   UNL     1       8.223   0.449  22.765  0.00  0.00    +0.214 C 
ATOM      5  C   UNL     1       8.193  -0.992  23.274  0.00  0.00    +0.180 C 
ATOM      6  C   UNL     1       9.515  -1.346  23.956  0.00  0.00    +0.177 C 
ENDROOT
BRANCH   4   7
ATOM      7  O   UNL     1       9.097   0.473  21.610  0.00  0.00    -0.383 OA
ATOM      8  H   UNL     1       9.959   0.828  21.883  0.00  0.00    +0.210 HD
ENDBRANCH   4   7
BRANCH   5   9
ATOM      9  O   UNL     1       7.960  -1.864  22.153  0.00  0.00    -0.386 OA
ATOM     10  H   UNL     1       7.075  -1.619  21.812  0.00  0.00    +0.210 HD
ENDBRANCH   5   9
BRANCH   6  11
ATOM     11  O   UNL     1       9.527  -2.729  24.299  0.00  0.00    -0.386 OA
ATOM     12  H   UNL     1      10.143  -2.855  25.044  0.00  0.00    +0.210 HD
ENDBRANCH   6  11
BRANCH   1  13
ATOM     13  C   UNL     1       8.984  -0.899  26.504  0.00  0.00    +0.197 C 
BRANCH  13  14
ATOM     14  O   UNL     1       8.172   0.159  27.161  0.00  0.00    -0.346 OA
BRANCH  14  16
ATOM     15  C   UNL     1       6.162  -1.407  26.327  0.00  0.00    +0.208 C 
ATOM     16  C   UNL     1       6.722  -0.058  27.091  0.00  0.00    +0.282 C 
ATOM     17  O   UNL     1       6.143   0.011  28.405  0.00  0.00    -0.343 OA
ATOM     18  C   UNL     1       4.710   0.143  28.451  0.00  0.00    +0.149 C 
ATOM     19  C   UNL     1       4.286   1.577  28.129  0.00  0.00    +0.041 C 
ATOM     20  C   UNL     1       3.967  -0.919  27.608  0.00  0.00    +0.174 C 
ATOM     21  C   UNL     1       4.632  -1.148  26.233  0.00  0.00    +0.179 C 
BRANCH  20  22
ATOM     22  O   UNL     1       3.914  -2.142  28.361  0.00  0.00    -0.387 OA
ATOM     23  H   UNL     1       4.698  -2.658  28.098  0.00  0.00    +0.210 HD
ENDBRANCH  20  22
BRANCH  21  24
ATOM     24  O   UNL     1       3.950  -2.170  25.499  0.00  0.00    -0.386 OA
ATOM     25  H   UNL     1       4.302  -2.163  24.590  0.00  0.00    +0.210 HD
ENDBRANCH  21  24
BRANCH  15  26
ATOM     26  O   UNL     1       6.528  -2.625  27.014  0.00  0.00    -0.338 OA
BRANCH  26  30
ATOM     27  C   UNL     1       7.414  -5.258  23.350  0.00  0.00    +0.041 C 
ATOM     28  C   UNL     1       6.212  -4.621  24.044  0.00  0.00    +0.149 C 
ATOM     29  O   UNL     1       6.614  -3.699  25.051  0.00  0.00    -0.343 OA
ATOM     30  C   UNL     1       6.629  -3.979  26.472  0.00  0.00    +0.282 C 
ATOM     31  C   UNL     1       5.618  -5.110  26.896  0.00  0.00    +0.201 C 
ATOM     32  C   UNL     1       5.536  -6.238  25.818  0.00  0.00    +0.179 C 
ATOM     33  C   UNL     1       5.172  -5.652  24.460  0.00  0.00    +0.174 C 
BRANCH  31  34
ATOM     34  O   UNL     1       4.303  -4.584  27.133  0.00  0.00    -0.384 OA
ATOM     35  H   UNL     1       3.875  -5.216  27.751  0.00  0.00    +0.210 HD
ENDBRANCH  31  34
BRANCH  32  36
ATOM     36  O   UNL     1       4.545  -7.223  26.174  0.00  0.00    -0.386 OA
ATOM     37  H   UNL     1       4.432  -7.220  27.151  0.00  0.00    +0.210 HD
ENDBRANCH  32  36
BRANCH  33  38
ATOM     38  O   UNL     1       3.862  -5.063  24.502  0.00  0.00    -0.387 OA
ATOM     39  H   UNL     1       3.237  -5.699  24.101  0.00  0.00    +0.210 HD
ENDBRANCH  33  38
ENDBRANCH  26  30
ENDBRANCH  15  26
ENDBRANCH  14  16
ENDBRANCH  13  14
ENDBRANCH   1  13
BRANCH   3  40
ATOM     40  O   UNL     1       9.016   2.773  23.259  0.00  0.00    -0.453 OA
BRANCH  40  41
ATOM     41  C   UNL     1       8.098   3.827  23.352  0.00  0.00    +0.214 A 
ATOM     42  C   UNL     1       6.864   3.781  22.539  0.00  0.00    +0.238 A 
ATOM     43  O   UNL     1       6.853   3.420  21.370  0.00  0.00    -0.283 OA
ATOM     44  C   UNL     1       5.681   4.338  23.139  0.00  0.00    +0.109 A 
ATOM     45  C   UNL     1       5.874   5.482  23.894  0.00  0.00    +0.147 A 
ATOM     46  C   UNL     1       4.754   6.167  24.371  0.00  0.00    +0.092 A 
ATOM     47  C   UNL     1       3.479   5.657  24.089  0.00  0.00    +0.124 A 
ATOM     48  C   UNL     1       3.301   4.473  23.362  0.00  0.00    +0.091 A 
ATOM     49  O   UNL     1       7.151   5.951  24.125  0.00  0.00    -0.451 OA
ATOM     50  C   UNL     1       4.417   3.807  22.890  0.00  0.00    +0.135 A 
ATOM     51  C   UNL     1       8.246   5.057  23.941  0.00  0.00    +0.181 A 
BRANCH  51  52
ATOM     52  C   UNL     1       9.538   5.706  24.341  0.00  0.00    +0.025 A 
ATOM     53  C   UNL     1       9.594   6.482  25.518  0.00  0.00    +0.015 A 
ATOM     54  C   UNL     1      10.813   6.959  26.033  0.00  0.00    +0.050 A 
ATOM     55  C   UNL     1      11.997   6.658  25.383  0.00  0.00    +0.158 A 
ATOM     56  C   UNL     1      11.979   5.872  24.236  0.00  0.00    +0.159 A 
ATOM     57  C   UNL     1      10.767   5.386  23.718  0.00  0.00    +0.060 A 
BRANCH  55  58
ATOM     58  O   UNL     1      13.181   7.108  25.892  0.00  0.00    -0.503 OA
ATOM     59  H   UNL     1      13.818   6.382  25.733  0.00  0.00    +0.292 HD
ENDBRANCH  55  58
BRANCH  56  60
ATOM     60  O   UNL     1      13.191   5.582  23.665  0.00  0.00    -0.503 OA
ATOM     61  H   UNL     1      13.603   4.857  24.162  0.00  0.00    +0.292 HD
ENDBRANCH  56  60
ENDBRANCH  51  52
BRANCH  47  62
ATOM     62  O   UNL     1       2.349   6.279  24.520  0.00  0.00    -0.507 OA
ATOM     63  H   UNL     1       2.529   7.227  24.695  0.00  0.00    +0.292 HD
ENDBRANCH  47  62
BRANCH  50  64
ATOM     64  O   UNL     1       4.300   2.615  22.234  0.00  0.00    -0.506 OA
ATOM     65  H   UNL     1       3.407   2.281  22.355  0.00  0.00    +0.292 HD
ENDBRANCH  50  64
ENDBRANCH  40  41
ENDBRANCH   3  40
TORSDOF 20
ENDMDL
MODEL 3
REMARK VINA RESULT:      -7.7      2.084      6.057
REMARK  Name = 
REMARK  22 active torsions:
REMARK  status: ('A' for Active; 'I' for Inactive)
REMARK    1  A    between atoms: C_1  and  C_2
REMARK    2  A    between atoms: C_3  and  O_61
REMARK    3  A    between atoms: C_5  and  O_60
REMARK    4  A    between atoms: C_7  and  O_59
REMARK    5  A    between atoms: C_8  and  O_11
REMARK    6  A    between atoms: O_11  and  C_12
REMARK    7  A    between atoms: C_13  and  O_58
REMARK    8  A    between atoms: C_15  and  O_57
REMARK    9  A    between atoms: C_17  and  C_56
REMARK   10  A    between atoms: C_19  and  O_21
REMARK   11  A    between atoms: O_21  and  C_22
REMARK   12  A    between atoms: C_22  and  C_23
REMARK   13  A    between atoms: C_24  and  O_55
REMARK   14  A    between atoms: C_26  and  O_54
REMARK   15  A    between atoms: C_27  and  O_53
REMARK   16  A    between atoms: C_28  and  O_31
REMARK   17  A    between atoms: O_31  and  C_32
REMARK   18  A    between atoms: C_33  and  C_45
REMARK   19  A    between atoms: C_37  and  O_44
REMARK   20  A    between atoms: C_39  and  O_43
REMARK   21  A    between atoms: C_47  and  O_52
REMARK   22  A    between atoms: C_48  and  O_51
REMARK                            x       y       z     vdW  Elec       q    Type
REMARK                         _______ _______ _______ _____ _____    ______ ____
ROOT
ATOM      1  C   UNL     1       8.045  -2.485  25.661  0.00  0.00    +0.179 C 
ATOM      2  O   UNL     1       6.798  -2.762  26.383  0.00  0.00    -0.331 OA
ATOM      3  C   UNL     1       6.684  -3.894  27.301  0.00  0.00    +0.340 C 
ATOM      4  C   UNL     1       7.473  -5.157  26.829  0.00  0.00    +0.214 C 
ATOM      5  C   UNL     1       8.826  -4.804  26.211  0.00  0.00    +0.180 C 
ATOM      6  C   UNL     1       8.650  -3.779  25.090  0.00  0.00    +0.177 C 
ENDROOT
BRANCH   4   7
ATOM      7  O   UNL     1       6.767  -5.978  25.867  0.00  0.00    -0.383 OA
ATOM      8  H   UNL     1       5.912  -5.560  25.673  0.00  0.00    +0.210 HD
ENDBRANCH   4   7
BRANCH   5   9
ATOM      9  O   UNL     1       9.417  -6.010  25.696  0.00  0.00    -0.386 OA
ATOM     10  H   UNL     1       9.162  -6.042  24.751  0.00  0.00    +0.210 HD
ENDBRANCH   5   9
BRANCH   6  11
ATOM     11  O   UNL     1       9.895  -3.565  24.431  0.00  0.00    -0.386 OA
ATOM     12  H   UNL     1       9.725  -3.076  23.604  0.00  0.00    +0.210 HD
ENDBRANCH   6  11
BRANCH   1  13
ATOM     13  C   UNL     1       9.113  -1.492  26.328  0.00  0.00    +0.197 C 
BRANCH  13  14
ATOM     14  O   UNL     1       8.992  -0.075  25.895  0.00  0.00    -0.346 OA
BRANCH  14  16
ATOM     15  C   UNL     1       7.762   1.379  24.007  0.00  0.00    +0.208 C 
ATOM     16  C   UNL     1       8.694   0.099  24.468  0.00  0.00    +0.282 C 
ATOM     17  O   UNL     1       9.911   0.105  23.702  0.00  0.00    -0.343 OA
ATOM     18  C   UNL     1       9.755  -0.060  22.280  0.00  0.00    +0.149 C 
ATOM     19  C   UNL     1       9.478  -1.523  21.930  0.00  0.00    +0.041 C 
ATOM     20  C   UNL     1       8.738   0.923  21.654  0.00  0.00    +0.174 C 
ATOM     21  C   UNL     1       7.463   1.074  22.512  0.00  0.00    +0.179 C 
BRANCH  20  22
ATOM     22  O   UNL     1       9.385   2.192  21.471  0.00  0.00    -0.387 OA
ATOM     23  H   UNL     1       9.138   2.738  22.240  0.00  0.00    +0.210 HD
ENDBRANCH  20  22
BRANCH  21  24
ATOM     24  O   UNL     1       6.566   2.025  21.930  0.00  0.00    -0.386 OA
ATOM     25  H   UNL     1       6.595   1.903  20.964  0.00  0.00    +0.210 HD
ENDBRANCH  21  24
BRANCH  15  26
ATOM     26  O   UNL     1       8.406   2.649  24.248  0.00  0.00    -0.338 OA
BRANCH  26  30
ATOM     27  C   UNL     1       4.779   5.031  25.771  0.00  0.00    +0.041 C 
ATOM     28  C   UNL     1       5.282   4.409  24.470  0.00  0.00    +0.149 C 
ATOM     29  O   UNL     1       6.417   3.578  24.688  0.00  0.00    -0.343 OA
ATOM     30  C   UNL     1       7.789   3.962  24.428  0.00  0.00    +0.282 C 
ATOM     31  C   UNL     1       7.924   5.089  23.336  0.00  0.00    +0.201 C 
ATOM     32  C   UNL     1       6.764   6.131  23.442  0.00  0.00    +0.179 C 
ATOM     33  C   UNL     1       5.412   5.435  23.353  0.00  0.00    +0.174 C 
BRANCH  31  34
ATOM     34  O   UNL     1       7.949   4.541  22.009  0.00  0.00    -0.384 OA
ATOM     35  H   UNL     1       8.590   3.797  22.044  0.00  0.00    +0.210 HD
ENDBRANCH  31  34
BRANCH  32  36
ATOM     36  O   UNL     1       6.849   7.108  22.384  0.00  0.00    -0.386 OA
ATOM     37  H   UNL     1       6.697   6.657  21.523  0.00  0.00    +0.210 HD
ENDBRANCH  32  36
BRANCH  33  38
ATOM     38  O   UNL     1       5.253   4.810  22.069  0.00  0.00    -0.387 OA
ATOM     39  H   UNL     1       5.789   5.313  21.425  0.00  0.00    +0.210 HD
ENDBRANCH  33  38
ENDBRANCH  26  30
ENDBRANCH  15  26
ENDBRANCH  14  16
ENDBRANCH  13  14
ENDBRANCH   1  13
BRANCH   3  40
ATOM     40  O   UNL     1       5.238  -4.250  27.506  0.00  0.00    -0.453 OA
BRANCH  40  41
ATOM     41  C   UNL     1       4.321  -3.192  27.441  0.00  0.00    +0.214 A 
ATOM     42  C   UNL     1       4.122  -2.337  28.630  0.00  0.00    +0.238 A 
ATOM     43  O   UNL     1       4.044  -2.787  29.766  0.00  0.00    -0.283 OA
ATOM     44  C   UNL     1       3.859  -0.944  28.381  0.00  0.00    +0.109 A 
ATOM     45  C   UNL     1       3.052  -0.674  27.290  0.00  0.00    +0.147 A 
ATOM     46  C   UNL     1       2.623   0.640  27.083  0.00  0.00    +0.092 A 
ATOM     47  C   UNL     1       3.047   1.637  27.973  0.00  0.00    +0.124 A 
ATOM     48  C   UNL     1       3.901   1.355  29.046  0.00  0.00    +0.091 A 
ATOM     49  O   UNL     1       2.648  -1.697  26.457  0.00  0.00    -0.451 OA
ATOM     50  C   UNL     1       4.314   0.050  29.244  0.00  0.00    +0.135 A 
ATOM     51  C   UNL     1       3.376  -2.922  26.484  0.00  0.00    +0.181 A 
BRANCH  51  52
ATOM     52  C   UNL     1       2.864  -3.871  25.441  0.00  0.00    +0.025 A 
ATOM     53  C   UNL     1       1.478  -3.953  25.192  0.00  0.00    +0.015 A 
ATOM     54  C   UNL     1       0.961  -4.686  24.109  0.00  0.00    +0.050 A 
ATOM     55  C   UNL     1       1.827  -5.342  23.251  0.00  0.00    +0.158 A 
ATOM     56  C   UNL     1       3.201  -5.260  23.453  0.00  0.00    +0.159 A 
ATOM     57  C   UNL     1       3.725  -4.524  24.529  0.00  0.00    +0.060 A 
BRANCH  55  58
ATOM     58  O   UNL     1       1.326  -6.042  22.191  0.00  0.00    -0.503 OA
ATOM     59  H   UNL     1       1.007  -6.885  22.571  0.00  0.00    +0.292 HD
ENDBRANCH  55  58
BRANCH  56  60
ATOM     60  O   UNL     1       4.000  -5.904  22.544  0.00  0.00    -0.503 OA
ATOM     61  H   UNL     1       3.884  -6.862  22.654  0.00  0.00    +0.292 HD
ENDBRANCH  56  60
ENDBRANCH  51  52
BRANCH  47  62
ATOM     62  O   UNL     1       2.662   2.934  27.829  0.00  0.00    -0.507 OA
ATOM     63  H   UNL     1       3.430   3.531  27.949  0.00  0.00    +0.292 HD
ENDBRANCH  47  62
BRANCH  50  64
ATOM     64  O   UNL     1       5.198  -0.265  30.235  0.00  0.00    -0.506 OA
ATOM     65  H   UNL     1       5.603   0.544  30.559  0.00  0.00    +0.292 HD
ENDBRANCH  50  64
ENDBRANCH  40  41
ENDBRANCH   3  40
TORSDOF 20
ENDMDL
MODEL 4
REMARK VINA RESULT:      -7.5      2.073      9.505
REMARK  Name = 
REMARK  22 active torsions:
REMARK  status: ('A' for Active; 'I' for Inactive)
REMARK    1  A    between atoms: C_1  and  C_2
REMARK    2  A    between atoms: C_3  and  O_61
REMARK    3  A    between atoms: C_5  and  O_60
REMARK    4  A    between atoms: C_7  and  O_59
REMARK    5  A    between atoms: C_8  and  O_11
REMARK    6  A    between atoms: O_11  and  C_12
REMARK    7  A    between atoms: C_13  and  O_58
REMARK    8  A    between atoms: C_15  and  O_57
REMARK    9  A    between atoms: C_17  and  C_56
REMARK   10  A    between atoms: C_19  and  O_21
REMARK   11  A    between atoms: O_21  and  C_22
REMARK   12  A    between atoms: C_22  and  C_23
REMARK   13  A    between atoms: C_24  and  O_55
REMARK   14  A    between atoms: C_26  and  O_54
REMARK   15  A    between atoms: C_27  and  O_53
REMARK   16  A    between atoms: C_28  and  O_31
REMARK   17  A    between atoms: O_31  and  C_32
REMARK   18  A    between atoms: C_33  and  C_45
REMARK   19  A    between atoms: C_37  and  O_44
REMARK   20  A    between atoms: C_39  and  O_43
REMARK   21  A    between atoms: C_47  and  O_52
REMARK   22  A    between atoms: C_48  and  O_51
REMARK                            x       y       z     vdW  Elec       q    Type
REMARK                         _______ _______ _______ _____ _____    ______ ____
ROOT
ATOM      1  C   UNL     1       7.892  -0.198  24.192  0.00  0.00    +0.179 C 
ATOM      2  O   UNL     1       7.542   1.169  23.788  0.00  0.00    -0.331 OA
ATOM      3  C   UNL     1       7.569   1.580  22.385  0.00  0.00    +0.340 C 
ATOM      4  C   UNL     1       8.726   0.921  21.569  0.00  0.00    +0.214 C 
ATOM      5  C   UNL     1       8.946  -0.544  21.943  0.00  0.00    +0.180 C 
ATOM      6  C   UNL     1       9.149  -0.686  23.452  0.00  0.00    +0.177 C 
ENDROOT
BRANCH   4   7
ATOM      7  O   UNL     1      10.005   1.590  21.698  0.00  0.00    -0.383 OA
ATOM      8  H   UNL     1      10.699   0.992  21.376  0.00  0.00    +0.210 HD
ENDBRANCH   4   7
BRANCH   5   9
ATOM      9  O   UNL     1      10.104  -1.024  21.237  0.00  0.00    -0.386 OA
ATOM     10  H   UNL     1       9.837  -1.883  20.852  0.00  0.00    +0.210 HD
ENDBRANCH   5   9
BRANCH   6  11
ATOM     11  O   UNL     1       9.492  -2.032  23.770  0.00  0.00    -0.386 OA
ATOM     12  H   UNL     1      10.464  -2.098  23.821  0.00  0.00    +0.210 HD
ENDBRANCH   6  11
BRANCH   1  13
ATOM     13  C   UNL     1       6.722  -1.289  24.302  0.00  0.00    +0.197 C 
BRANCH  13  14
ATOM     14  O   UNL     1       6.455  -2.035  23.044  0.00  0.00    -0.346 OA
BRANCH  14  16
ATOM     15  C   UNL     1       5.504  -4.029  24.563  0.00  0.00    +0.208 C 
ATOM     16  C   UNL     1       6.290  -3.483  23.221  0.00  0.00    +0.282 C 
ATOM     17  O   UNL     1       5.682  -4.062  22.053  0.00  0.00    -0.343 OA
ATOM     18  C   UNL     1       5.761  -5.497  21.955  0.00  0.00    +0.149 C 
ATOM     19  C   UNL     1       7.158  -5.935  21.512  0.00  0.00    +0.041 C 
ATOM     20  C   UNL     1       5.261  -6.228  23.222  0.00  0.00    +0.174 C 
ATOM     21  C   UNL     1       5.762  -5.562  24.521  0.00  0.00    +0.179 C 
BRANCH  20  22
ATOM     22  O   UNL     1       3.825  -6.269  23.187  0.00  0.00    -0.387 OA
ATOM     23  H   UNL     1       3.520  -5.430  23.578  0.00  0.00    +0.210 HD
ENDBRANCH  20  22
BRANCH  21  24
ATOM     24  O   UNL     1       5.242  -6.234  25.674  0.00  0.00    -0.386 OA
ATOM     25  H   UNL     1       4.682  -5.598  26.156  0.00  0.00    +0.210 HD
ENDBRANCH  21  24
BRANCH  15  26
ATOM     26  O   UNL     1       4.109  -3.651  24.581  0.00  0.00    -0.338 OA
BRANCH  26  30
ATOM     27  C   UNL     1       3.709  -2.605  29.041  0.00  0.00    +0.041 C 
ATOM     28  C   UNL     1       3.907  -3.838  28.163  0.00  0.00    +0.149 C 
ATOM     29  O   UNL     1       4.185  -3.484  26.813  0.00  0.00    -0.343 OA
ATOM     30  C   UNL     1       3.220  -3.511  25.733  0.00  0.00    +0.282 C 
ATOM     31  C   UNL     1       2.034  -4.516  25.981  0.00  0.00    +0.201 C 
ATOM     32  C   UNL     1       1.613  -4.545  27.486  0.00  0.00    +0.179 C 
ATOM     33  C   UNL     1       2.810  -4.875  28.368  0.00  0.00    +0.174 C 
BRANCH  31  34
ATOM     34  O   UNL     1       2.370  -5.847  25.557  0.00  0.00    -0.384 OA
ATOM     35  H   UNL     1       3.198  -5.756  25.038  0.00  0.00    +0.210 HD
ENDBRANCH  31  34
BRANCH  32  36
ATOM     36  O   UNL     1       0.587  -5.532  27.718  0.00  0.00    -0.386 OA
ATOM     37  H   UNL     1       0.547  -6.135  26.941  0.00  0.00    +0.210 HD
ENDBRANCH  32  36
BRANCH  33  38
ATOM     38  O   UNL     1       3.300  -6.194  28.079  0.00  0.00    -0.387 OA
ATOM     39  H   UNL     1       4.152  -6.304  28.547  0.00  0.00    +0.210 HD
ENDBRANCH  33  38
ENDBRANCH  26  30
ENDBRANCH  15  26
ENDBRANCH  14  16
ENDBRANCH  13  14
ENDBRANCH   1  13
BRANCH   3  40
ATOM     40  O   UNL     1       7.668   3.076  22.286  0.00  0.00    -0.453 OA
BRANCH  40  41
ATOM     41  C   UNL     1       7.024   3.811  23.291  0.00  0.00    +0.214 A 
ATOM     42  C   UNL     1       5.553   3.947  23.252  0.00  0.00    +0.238 A 
ATOM     43  O   UNL     1       4.933   4.164  22.219  0.00  0.00    -0.283 OA
ATOM     44  C   UNL     1       4.879   3.973  24.523  0.00  0.00    +0.109 A 
ATOM     45  C   UNL     1       5.531   4.660  25.532  0.00  0.00    +0.147 A 
ATOM     46  C   UNL     1       4.863   4.865  26.743  0.00  0.00    +0.092 A 
ATOM     47  C   UNL     1       3.570   4.346  26.898  0.00  0.00    +0.124 A 
ATOM     48  C   UNL     1       2.942   3.614  25.883  0.00  0.00    +0.091 A 
ATOM     49  O   UNL     1       6.796   5.167  25.319  0.00  0.00    -0.451 OA
ATOM     50  C   UNL     1       3.609   3.422  24.687  0.00  0.00    +0.135 A 
ATOM     51  C   UNL     1       7.564   4.642  24.239  0.00  0.00    +0.181 A 
BRANCH  51  52
ATOM     52  C   UNL     1       8.944   5.231  24.229  0.00  0.00    +0.025 A 
ATOM     53  C   UNL     1       9.225   6.364  25.020  0.00  0.00    +0.015 A 
ATOM     54  C   UNL     1      10.536   6.844  25.188  0.00  0.00    +0.050 A 
ATOM     55  C   UNL     1      11.589   6.190  24.573  0.00  0.00    +0.158 A 
ATOM     56  C   UNL     1      11.349   5.054  23.807  0.00  0.00    +0.159 A 
ATOM     57  C   UNL     1      10.043   4.564  23.640  0.00  0.00    +0.060 A 
BRANCH  55  58
ATOM     58  O   UNL     1      12.864   6.648  24.748  0.00  0.00    -0.503 OA
ATOM     59  H   UNL     1      12.835   7.168  25.577  0.00  0.00    +0.292 HD
ENDBRANCH  55  58
BRANCH  56  60
ATOM     60  O   UNL     1      12.443   4.437  23.257  0.00  0.00    -0.503 OA
ATOM     61  H   UNL     1      12.269   3.482  23.210  0.00  0.00    +0.292 HD
ENDBRANCH  56  60
ENDBRANCH  51  52
BRANCH  47  62
ATOM     62  O   UNL     1       2.866   4.515  28.050  0.00  0.00    -0.507 OA
ATOM     63  H   UNL     1       3.462   4.441  28.825  0.00  0.00    +0.292 HD
ENDBRANCH  47  62
BRANCH  50  64
ATOM     64  O   UNL     1       3.067   2.661  23.693  0.00  0.00    -0.506 OA
ATOM     65  H   UNL     1       3.758   2.430  23.066  0.00  0.00    +0.292 HD
ENDBRANCH  50  64
ENDBRANCH  40  41
ENDBRANCH   3  40
TORSDOF 20
ENDMDL
MODEL 5
REMARK VINA RESULT:      -7.4      2.026      9.856
REMARK  Name = 
REMARK  22 active torsions:
REMARK  status: ('A' for Active; 'I' for Inactive)
REMARK    1  A    between atoms: C_1  and  C_2
REMARK    2  A    between atoms: C_3  and  O_61
REMARK    3  A    between atoms: C_5  and  O_60
REMARK    4  A    between atoms: C_7  and  O_59
REMARK    5  A    between atoms: C_8  and  O_11
REMARK    6  A    between atoms: O_11  and  C_12
REMARK    7  A    between atoms: C_13  and  O_58
REMARK    8  A    between atoms: C_15  and  O_57
REMARK    9  A    between atoms: C_17  and  C_56
REMARK   10  A    between atoms: C_19  and  O_21
REMARK   11  A    between atoms: O_21  and  C_22
REMARK   12  A    between atoms: C_22  and  C_23
REMARK   13  A    between atoms: C_24  and  O_55
REMARK   14  A    between atoms: C_26  and  O_54
REMARK   15  A    between atoms: C_27  and  O_53
REMARK   16  A    between atoms: C_28  and  O_31
REMARK   17  A    between atoms: O_31  and  C_32
REMARK   18  A    between atoms: C_33  and  C_45
REMARK   19  A    between atoms: C_37  and  O_44
REMARK   20  A    between atoms: C_39  and  O_43
REMARK   21  A    between atoms: C_47  and  O_52
REMARK   22  A    between atoms: C_48  and  O_51
REMARK                            x       y       z     vdW  Elec       q    Type
REMARK                         _______ _______ _______ _____ _____    ______ ____
ROOT
ATOM      1  C   UNL     1       9.200  -1.858  25.730  0.00  0.00    +0.179 C 
ATOM      2  O   UNL     1       8.987  -0.426  25.967  0.00  0.00    -0.331 OA
ATOM      3  C   UNL     1       8.385   0.433  24.948  0.00  0.00    +0.340 C 
ATOM      4  C   UNL     1       8.804   0.055  23.492  0.00  0.00    +0.214 C 
ATOM      5  C   UNL     1       8.872  -1.457  23.276  0.00  0.00    +0.180 C 
ATOM      6  C   UNL     1       9.775  -2.106  24.326  0.00  0.00    +0.177 C 
ENDROOT
BRANCH   4   7
ATOM      7  O   UNL     1      10.078   0.602  23.074  0.00  0.00    -0.383 OA
ATOM      8  H   UNL     1       9.917   1.272  22.391  0.00  0.00    +0.210 HD
ENDBRANCH   4   7
BRANCH   5   9
ATOM      9  O   UNL     1       9.384  -1.705  21.955  0.00  0.00    -0.386 OA
ATOM     10  H   UNL     1       8.743  -2.316  21.538  0.00  0.00    +0.210 HD
ENDBRANCH   5   9
BRANCH   6  11
ATOM     11  O   UNL     1       9.943  -3.490  24.031  0.00  0.00    -0.386 OA
ATOM     12  H   UNL     1      10.623  -3.576  23.337  0.00  0.00    +0.210 HD
ENDBRANCH   6  11
BRANCH   1  13
ATOM     13  C   UNL     1       8.049  -2.887  26.165  0.00  0.00    +0.197 C 
BRANCH  13  14
ATOM     14  O   UNL     1       6.713  -2.601  25.579  0.00  0.00    -0.346 OA
BRANCH  14  16
ATOM     15  C   UNL     1       5.477  -4.931  25.097  0.00  0.00    +0.208 C 
ATOM     16  C   UNL     1       6.266  -3.580  24.580  0.00  0.00    +0.282 C 
ATOM     17  O   UNL     1       5.477  -2.934  23.566  0.00  0.00    -0.343 OA
ATOM     18  C   UNL     1       5.252  -3.699  22.367  0.00  0.00    +0.149 C 
ATOM     19  C   UNL     1       6.497  -3.692  21.478  0.00  0.00    +0.041 C 
ATOM     20  C   UNL     1       4.699  -5.117  22.636  0.00  0.00    +0.174 C 
ATOM     21  C   UNL     1       5.412  -5.811  23.817  0.00  0.00    +0.179 C 
BRANCH  20  22
ATOM     22  O   UNL     1       3.286  -5.016  22.878  0.00  0.00    -0.387 OA
ATOM     23  H   UNL     1       3.189  -4.694  23.793  0.00  0.00    +0.210 HD
ENDBRANCH  20  22
BRANCH  21  24
ATOM     24  O   UNL     1       4.844  -7.101  24.070  0.00  0.00    -0.386 OA
ATOM     25  H   UNL     1       4.534  -7.109  24.994  0.00  0.00    +0.210 HD
ENDBRANCH  21  24
BRANCH  15  26
ATOM     26  O   UNL     1       4.194  -4.631  25.690  0.00  0.00    -0.338 OA
BRANCH  26  30
ATOM     27  C   UNL     1       4.805  -4.457  30.244  0.00  0.00    +0.041 C 
ATOM     28  C   UNL     1       5.134  -5.382  29.075  0.00  0.00    +0.149 C 
ATOM     29  O   UNL     1       4.866  -4.763  27.822  0.00  0.00    -0.343 OA
ATOM     30  C   UNL     1       3.691  -5.008  27.010  0.00  0.00    +0.282 C 
ATOM     31  C   UNL     1       3.038  -6.417  27.268  0.00  0.00    +0.201 C 
ATOM     32  C   UNL     1       3.116  -6.817  28.777  0.00  0.00    +0.179 C 
ATOM     33  C   UNL     1       4.558  -6.779  29.265  0.00  0.00    +0.174 C 
BRANCH  31  34
ATOM     34  O   UNL     1       3.656  -7.442  26.473  0.00  0.00    -0.384 OA
ATOM     35  H   UNL     1       4.102  -8.037  27.114  0.00  0.00    +0.210 HD
ENDBRANCH  31  34
BRANCH  32  36
ATOM     36  O   UNL     1       2.594  -8.145  28.987  0.00  0.00    -0.386 OA
ATOM     37  H   UNL     1       3.301  -8.799  28.787  0.00  0.00    +0.210 HD
ENDBRANCH  32  36
BRANCH  33  38
ATOM     38  O   UNL     1       5.350  -7.753  28.566  0.00  0.00    -0.387 OA
ATOM     39  H   UNL     1       4.747  -8.279  28.004  0.00  0.00    +0.210 HD
ENDBRANCH  33  38
ENDBRANCH  26  30
ENDBRANCH  15  26
ENDBRANCH  14  16
ENDBRANCH  13  14
ENDBRANCH   1  13
BRANCH   3  40
ATOM     40  O   UNL     1       8.729   1.871  25.215  0.00  0.00    -0.453 OA
BRANCH  40  41
ATOM     41  C   UNL     1       7.712   2.808  24.989  0.00  0.00    +0.214 A 
ATOM     42  C   UNL     1       8.077   4.197  24.637  0.00  0.00    +0.238 A 
ATOM     43  O   UNL     1       8.986   4.804  25.189  0.00  0.00    -0.283 OA
ATOM     44  C   UNL     1       7.205   4.873  23.714  0.00  0.00    +0.109 A 
ATOM     45  C   UNL     1       5.854   4.616  23.870  0.00  0.00    +0.147 A 
ATOM     46  C   UNL     1       4.940   5.360  23.119  0.00  0.00    +0.092 A 
ATOM     47  C   UNL     1       5.426   6.319  22.219  0.00  0.00    +0.124 A 
ATOM     48  C   UNL     1       6.798   6.536  22.041  0.00  0.00    +0.091 A 
ATOM     49  O   UNL     1       5.429   3.674  24.784  0.00  0.00    -0.451 OA
ATOM     50  C   UNL     1       7.694   5.798  22.794  0.00  0.00    +0.135 A 
ATOM     51  C   UNL     1       6.370   2.710  25.252  0.00  0.00    +0.181 A 
BRANCH  51  52
ATOM     52  C   UNL     1       5.705   1.708  26.150  0.00  0.00    +0.025 A 
ATOM     53  C   UNL     1       5.344   2.079  27.462  0.00  0.00    +0.015 A 
ATOM     54  C   UNL     1       4.562   1.243  28.279  0.00  0.00    +0.050 A 
ATOM     55  C   UNL     1       4.119   0.027  27.790  0.00  0.00    +0.158 A 
ATOM     56  C   UNL     1       4.435  -0.357  26.490  0.00  0.00    +0.159 A 
ATOM     57  C   UNL     1       5.211   0.475  25.666  0.00  0.00    +0.060 A 
BRANCH  55  58
ATOM     58  O   UNL     1       3.346  -0.778  28.577  0.00  0.00    -0.503 OA
ATOM     59  H   UNL     1       2.558  -0.240  28.794  0.00  0.00    +0.292 HD
ENDBRANCH  55  58
BRANCH  56  60
ATOM     60  O   UNL     1       3.933  -1.558  26.060  0.00  0.00    -0.503 OA
ATOM     61  H   UNL     1       3.080  -1.399  25.624  0.00  0.00    +0.292 HD
ENDBRANCH  56  60
ENDBRANCH  51  52
BRANCH  47  62
ATOM     62  O   UNL     1       4.588   7.078  21.462  0.00  0.00    -0.507 OA
ATOM     63  H   UNL     1       4.706   6.867  20.512  0.00  0.00    +0.292 HD
ENDBRANCH  47  62
BRANCH  50  64
ATOM     64  O   UNL     1       9.040   5.925  22.609  0.00  0.00    -0.506 OA
ATOM     65  H   UNL     1       9.292   6.837  22.778  0.00  0.00    +0.292 HD
ENDBRANCH  50  64
ENDBRANCH  40  41
ENDBRANCH   3  40
TORSDOF 20
ENDMDL
MODEL 6
REMARK VINA RESULT:      -7.3      2.280      9.997
REMARK  Name = 
REMARK  22 active torsions:
REMARK  status: ('A' for Active; 'I' for Inactive)
REMARK    1  A    between atoms: C_1  and  C_2
REMARK    2  A    between atoms: C_3  and  O_61
REMARK    3  A    between atoms: C_5  and  O_60
REMARK    4  A    between atoms: C_7  and  O_59
REMARK    5  A    between atoms: C_8  and  O_11
REMARK    6  A    between atoms: O_11  and  C_12
REMARK    7  A    between atoms: C_13  and  O_58
REMARK    8  A    between atoms: C_15  and  O_57
REMARK    9  A    between atoms: C_17  and  C_56
REMARK   10  A    between atoms: C_19  and  O_21
REMARK   11  A    between atoms: O_21  and  C_22
REMARK   12  A    between atoms: C_22  and  C_23
REMARK   13  A    between atoms: C_24  and  O_55
REMARK   14  A    between atoms: C_26  and  O_54
REMARK   15  A    between atoms: C_27  and  O_53
REMARK   16  A    between atoms: C_28  and  O_31
REMARK   17  A    between atoms: O_31  and  C_32
REMARK   18  A    between atoms: C_33  and  C_45
REMARK   19  A    between atoms: C_37  and  O_44
REMARK   20  A    between atoms: C_39  and  O_43
REMARK   21  A    between atoms: C_47  and  O_52
REMARK   22  A    between atoms: C_48  and  O_51
REMARK                            x       y       z     vdW  Elec       q    Type
REMARK                         _______ _______ _______ _____ _____    ______ ____
ROOT
ATOM      1  C   UNL     1       8.317  -0.967  25.393  0.00  0.00    +0.179 C 
ATOM      2  O   UNL     1       8.139   0.484  25.518  0.00  0.00    -0.331 OA
ATOM      3  C   UNL     1       8.151   1.358  24.346  0.00  0.00    +0.340 C 
ATOM      4  C   UNL     1       9.164   0.905  23.247  0.00  0.00    +0.214 C 
ATOM      5  C   UNL     1       9.199  -0.613  23.072  0.00  0.00    +0.180 C 
ATOM      6  C   UNL     1       9.456  -1.300  24.414  0.00  0.00    +0.177 C 
ENDROOT
BRANCH   4   7
ATOM      7  O   UNL     1      10.527   1.338  23.474  0.00  0.00    -0.383 OA
ATOM      8  H   UNL     1      11.081   0.552  23.613  0.00  0.00    +0.210 HD
ENDBRANCH   4   7
BRANCH   5   9
ATOM      9  O   UNL     1      10.243  -0.939  22.137  0.00  0.00    -0.386 OA
ATOM     10  H   UNL     1      10.016  -0.457  21.315  0.00  0.00    +0.210 HD
ENDBRANCH   5   9
BRANCH   6  11
ATOM     11  O   UNL     1       9.626  -2.701  24.217  0.00  0.00    -0.386 OA
ATOM     12  H   UNL     1       9.692  -3.129  25.090  0.00  0.00    +0.210 HD
ENDBRANCH   6  11
BRANCH   1  13
ATOM     13  C   UNL     1       7.015  -1.889  25.233  0.00  0.00    +0.197 C 
BRANCH  13  14
ATOM     14  O   UNL     1       7.235  -3.326  25.545  0.00  0.00    -0.346 OA
BRANCH  14  16
ATOM     15  C   UNL     1       5.604  -5.401  25.071  0.00  0.00    +0.208 C 
ATOM     16  C   UNL     1       6.672  -4.255  24.557  0.00  0.00    +0.282 C 
ATOM     17  O   UNL     1       6.087  -3.526  23.465  0.00  0.00    -0.343 OA
ATOM     18  C   UNL     1       5.794  -4.297  22.284  0.00  0.00    +0.149 C 
ATOM     19  C   UNL     1       7.070  -4.575  21.487  0.00  0.00    +0.041 C 
ATOM     20  C   UNL     1       4.961  -5.567  22.570  0.00  0.00    +0.174 C 
ATOM     21  C   UNL     1       5.451  -6.320  23.826  0.00  0.00    +0.179 C 
BRANCH  20  22
ATOM     22  O   UNL     1       3.582  -5.187  22.706  0.00  0.00    -0.387 OA
ATOM     23  H   UNL     1       3.210  -5.190  21.805  0.00  0.00    +0.210 HD
ENDBRANCH  20  22
BRANCH  21  24
ATOM     24  O   UNL     1       4.629  -7.462  24.090  0.00  0.00    -0.386 OA
ATOM     25  H   UNL     1       5.158  -8.257  23.889  0.00  0.00    +0.210 HD
ENDBRANCH  21  24
BRANCH  15  26
ATOM     26  O   UNL     1       4.369  -4.831  25.558  0.00  0.00    -0.338 OA
BRANCH  26  30
ATOM     27  C   UNL     1       4.337  -4.130  30.102  0.00  0.00    +0.041 C 
ATOM     28  C   UNL     1       4.842  -5.168  29.103  0.00  0.00    +0.149 C 
ATOM     29  O   UNL     1       4.740  -4.702  27.762  0.00  0.00    -0.343 OA
ATOM     30  C   UNL     1       3.695  -5.074  26.831  0.00  0.00    +0.282 C 
ATOM     31  C   UNL     1       3.036  -6.467  27.158  0.00  0.00    +0.201 C 
ATOM     32  C   UNL     1       2.910  -6.693  28.700  0.00  0.00    +0.179 C 
ATOM     33  C   UNL     1       4.269  -6.553  29.372  0.00  0.00    +0.174 C 
BRANCH  31  34
ATOM     34  O   UNL     1       3.777  -7.553  26.579  0.00  0.00    -0.384 OA
ATOM     35  H   UNL     1       4.367  -7.879  27.293  0.00  0.00    +0.210 HD
ENDBRANCH  31  34
BRANCH  32  36
ATOM     36  O   UNL     1       2.387  -8.006  28.988  0.00  0.00    -0.386 OA
ATOM     37  H   UNL     1       1.455  -8.051  28.679  0.00  0.00    +0.210 HD
ENDBRANCH  32  36
BRANCH  33  38
ATOM     38  O   UNL     1       5.168  -7.572  28.905  0.00  0.00    -0.387 OA
ATOM     39  H   UNL     1       6.078  -7.289  29.124  0.00  0.00    +0.210 HD
ENDBRANCH  33  38
ENDBRANCH  26  30
ENDBRANCH  15  26
ENDBRANCH  14  16
ENDBRANCH  13  14
ENDBRANCH   1  13
BRANCH   3  40
ATOM     40  O   UNL     1       8.451   2.771  24.757  0.00  0.00    -0.453 OA
BRANCH  40  41
ATOM     41  C   UNL     1       7.814   3.782  24.024  0.00  0.00    +0.214 A 
ATOM     42  C   UNL     1       6.770   3.411  23.045  0.00  0.00    +0.238 A 
ATOM     43  O   UNL     1       6.878   2.455  22.288  0.00  0.00    -0.283 OA
ATOM     44  C   UNL     1       5.670   4.329  22.905  0.00  0.00    +0.109 A 
ATOM     45  C   UNL     1       5.999   5.672  22.971  0.00  0.00    +0.147 A 
ATOM     46  C   UNL     1       5.012   6.618  22.681  0.00  0.00    +0.092 A 
ATOM     47  C   UNL     1       3.722   6.173  22.361  0.00  0.00    +0.124 A 
ATOM     48  C   UNL     1       3.394   4.812  22.343  0.00  0.00    +0.091 A 
ATOM     49  O   UNL     1       7.290   6.054  23.272  0.00  0.00    -0.451 OA
ATOM     50  C   UNL     1       4.380   3.884  22.624  0.00  0.00    +0.135 A 
ATOM     51  C   UNL     1       8.150   5.105  23.899  0.00  0.00    +0.181 A 
BRANCH  51  52
ATOM     52  C   UNL     1       9.469   5.729  24.247  0.00  0.00    +0.025 A 
ATOM     53  C   UNL     1       9.554   6.620  25.337  0.00  0.00    +0.015 A 
ATOM     54  C   UNL     1      10.790   7.089  25.817  0.00  0.00    +0.050 A 
ATOM     55  C   UNL     1      11.963   6.664  25.218  0.00  0.00    +0.158 A 
ATOM     56  C   UNL     1      11.916   5.764  24.158  0.00  0.00    +0.159 A 
ATOM     57  C   UNL     1      10.686   5.286  23.677  0.00  0.00    +0.060 A 
BRANCH  55  58
ATOM     58  O   UNL     1      13.164   7.107  25.694  0.00  0.00    -0.503 OA
ATOM     59  H   UNL     1      13.761   7.104  24.918  0.00  0.00    +0.292 HD
ENDBRANCH  55  58
BRANCH  56  60
ATOM     60  O   UNL     1      13.117   5.358  23.637  0.00  0.00    -0.503 OA
ATOM     61  H   UNL     1      13.461   4.630  24.181  0.00  0.00    +0.292 HD
ENDBRANCH  56  60
ENDBRANCH  51  52
BRANCH  47  62
ATOM     62  O   UNL     1       2.719   7.043  22.066  0.00  0.00    -0.507 OA
ATOM     63  H   UNL     1       3.080   7.947  21.940  0.00  0.00    +0.292 HD
ENDBRANCH  47  62
BRANCH  50  64
ATOM     64  O   UNL     1       4.095   2.551  22.684  0.00  0.00    -0.506 OA
ATOM     65  H   UNL     1       4.912   2.053  22.587  0.00  0.00    +0.292 HD
ENDBRANCH  50  64
ENDBRANCH  40  41
ENDBRANCH   3  40
TORSDOF 20
ENDMDL
MODEL 7
REMARK VINA RESULT:      -7.2      1.693      8.536
REMARK  Name = 
REMARK  22 active torsions:
REMARK  status: ('A' for Active; 'I' for Inactive)
REMARK    1  A    between atoms: C_1  and  C_2
REMARK    2  A    between atoms: C_3  and  O_61
REMARK    3  A    between atoms: C_5  and  O_60
REMARK    4  A    between atoms: C_7  and  O_59
REMARK    5  A    between atoms: C_8  and  O_11
REMARK    6  A    between atoms: O_11  and  C_12
REMARK    7  A    between atoms: C_13  and  O_58
REMARK    8  A    between atoms: C_15  and  O_57
REMARK    9  A    between atoms: C_17  and  C_56
REMARK   10  A    between atoms: C_19  and  O_21
REMARK   11  A    between atoms: O_21  and  C_22
REMARK   12  A    between atoms: C_22  and  C_23
REMARK   13  A    between atoms: C_24  and  O_55
REMARK   14  A    between atoms: C_26  and  O_54
REMARK   15  A    between atoms: C_27  and  O_53
REMARK   16  A    between atoms: C_28  and  O_31
REMARK   17  A    between atoms: O_31  and  C_32
REMARK   18  A    between atoms: C_33  and  C_45
REMARK   19  A    between atoms: C_37  and  O_44
REMARK   20  A    between atoms: C_39  and  O_43
REMARK   21  A    between atoms: C_47  and  O_52
REMARK   22  A    between atoms: C_48  and  O_51
REMARK                            x       y       z     vdW  Elec       q    Type
REMARK                         _______ _______ _______ _____ _____    ______ ____
ROOT
ATOM      1  C   UNL     1       9.693   0.224  24.635  0.00  0.00    +0.179 C 
ATOM      2  O   UNL     1       9.111   1.548  24.385  0.00  0.00    -0.331 OA
ATOM      3  C   UNL     1       8.147   1.766  23.307  0.00  0.00    +0.340 C 
ATOM      4  C   UNL     1       8.444   0.918  22.029  0.00  0.00    +0.214 C 
ATOM      5  C   UNL     1       8.914  -0.498  22.362  0.00  0.00    +0.180 C 
ATOM      6  C   UNL     1      10.107  -0.453  23.318  0.00  0.00    +0.177 C 
ENDROOT
BRANCH   4   7
ATOM      7  O   UNL     1       9.432   1.497  21.143  0.00  0.00    -0.383 OA
ATOM      8  H   UNL     1       9.418   2.462  21.254  0.00  0.00    +0.210 HD
ENDBRANCH   4   7
BRANCH   5   9
ATOM      9  O   UNL     1       9.280  -1.154  21.136  0.00  0.00    -0.386 OA
ATOM     10  H   UNL     1       8.439  -1.297  20.656  0.00  0.00    +0.210 HD
ENDBRANCH   5   9
BRANCH   6  11
ATOM     11  O   UNL     1      10.624  -1.768  23.508  0.00  0.00    -0.386 OA
ATOM     12  H   UNL     1      10.756  -2.176  22.633  0.00  0.00    +0.210 HD
ENDBRANCH   6  11
BRANCH   1  13
ATOM     13  C   UNL     1       8.963  -0.750  25.679  0.00  0.00    +0.197 C 
BRANCH  13  14
ATOM     14  O   UNL     1       7.537  -1.032  25.366  0.00  0.00    -0.346 OA
BRANCH  14  16
ATOM     15  C   UNL     1       4.991  -0.638  26.107  0.00  0.00    +0.208 C 
ATOM     16  C   UNL     1       6.578  -0.194  26.096  0.00  0.00    +0.282 C 
ATOM     17  O   UNL     1       7.019   0.004  27.450  0.00  0.00    -0.343 OA
ATOM     18  C   UNL     1       6.358   1.059  28.175  0.00  0.00    +0.149 C 
ATOM     19  C   UNL     1       6.887   2.428  27.745  0.00  0.00    +0.041 C 
ATOM     20  C   UNL     1       4.815   0.958  28.136  0.00  0.00    +0.174 C 
ATOM     21  C   UNL     1       4.285   0.599  26.731  0.00  0.00    +0.179 C 
BRANCH  20  22
ATOM     22  O   UNL     1       4.398  -0.017  29.106  0.00  0.00    -0.387 OA
ATOM     23  H   UNL     1       3.426  -0.052  29.055  0.00  0.00    +0.210 HD
ENDBRANCH  20  22
BRANCH  21  24
ATOM     24  O   UNL     1       2.860   0.467  26.741  0.00  0.00    -0.386 OA
ATOM     25  H   UNL     1       2.534   0.735  25.863  0.00  0.00    +0.210 HD
ENDBRANCH  21  24
BRANCH  15  26
ATOM     26  O   UNL     1       4.767  -1.880  26.809  0.00  0.00    -0.338 OA
BRANCH  26  30
ATOM     27  C   UNL     1       7.403  -5.614  27.308  0.00  0.00    +0.041 C 
ATOM     28  C   UNL     1       7.353  -4.349  26.456  0.00  0.00    +0.149 C 
ATOM     29  O   UNL     1       6.379  -3.428  26.936  0.00  0.00    -0.343 OA
ATOM     30  C   UNL     1       5.061  -3.241  26.366  0.00  0.00    +0.282 C 
ATOM     31  C   UNL     1       4.977  -3.646  24.846  0.00  0.00    +0.201 C 
ATOM     32  C   UNL     1       5.857  -4.900  24.538  0.00  0.00    +0.179 C 
ATOM     33  C   UNL     1       7.298  -4.658  24.966  0.00  0.00    +0.174 C 
BRANCH  31  34
ATOM     34  O   UNL     1       5.373  -2.565  23.987  0.00  0.00    -0.384 OA
ATOM     35  H   UNL     1       4.616  -2.423  23.378  0.00  0.00    +0.210 HD
ENDBRANCH  31  34
BRANCH  32  36
ATOM     36  O   UNL     1       5.842  -5.209  23.129  0.00  0.00    -0.386 OA
ATOM     37  H   UNL     1       5.899  -4.369  22.620  0.00  0.00    +0.210 HD
ENDBRANCH  32  36
BRANCH  33  38
ATOM     38  O   UNL     1       7.875  -3.585  24.204  0.00  0.00    -0.387 OA
ATOM     39  H   UNL     1       8.274  -3.972  23.399  0.00  0.00    +0.210 HD
ENDBRANCH  33  38
ENDBRANCH  26  30
ENDBRANCH  15  26
ENDBRANCH  14  16
ENDBRANCH  13  14
ENDBRANCH   1  13
BRANCH   3  40
ATOM     40  O   UNL     1       8.096   3.224  22.946  0.00  0.00    -0.453 OA
BRANCH  40  41
ATOM     41  C   UNL     1       7.286   4.037  23.750  0.00  0.00    +0.214 A 
ATOM     42  C   UNL     1       5.831   4.080  23.494  0.00  0.00    +0.238 A 
ATOM     43  O   UNL     1       5.356   4.131  22.367  0.00  0.00    -0.283 OA
ATOM     44  C   UNL     1       4.982   4.222  24.648  0.00  0.00    +0.109 A 
ATOM     45  C   UNL     1       5.456   5.065  25.638  0.00  0.00    +0.147 A 
ATOM     46  C   UNL     1       4.615   5.377  26.710  0.00  0.00    +0.092 A 
ATOM     47  C   UNL     1       3.335   4.806  26.754  0.00  0.00    +0.124 A 
ATOM     48  C   UNL     1       2.888   3.919  25.767  0.00  0.00    +0.091 A 
ATOM     49  O   UNL     1       6.716   5.616  25.535  0.00  0.00    -0.451 OA
ATOM     50  C   UNL     1       3.726   3.622  24.708  0.00  0.00    +0.135 A 
ATOM     51  C   UNL     1       7.651   5.008  24.646  0.00  0.00    +0.181 A 
BRANCH  51  52
ATOM     52  C   UNL     1       8.993   5.673  24.747  0.00  0.00    +0.025 A 
ATOM     53  C   UNL     1       9.315   6.423  25.897  0.00  0.00    +0.015 A 
ATOM     54  C   UNL     1      10.615   6.911  26.123  0.00  0.00    +0.050 A 
ATOM     55  C   UNL     1      11.615   6.647  25.204  0.00  0.00    +0.158 A 
ATOM     56  C   UNL     1      11.337   5.887  24.072  0.00  0.00    +0.159 A 
ATOM     57  C   UNL     1      10.043   5.390  23.843  0.00  0.00    +0.060 A 
BRANCH  55  58
ATOM     58  O   UNL     1      12.880   7.108  25.430  0.00  0.00    -0.503 OA
ATOM     59  H   UNL     1      13.232   6.543  26.148  0.00  0.00    +0.292 HD
ENDBRANCH  55  58
BRANCH  56  60
ATOM     60  O   UNL     1      12.383   5.634  23.223  0.00  0.00    -0.503 OA
ATOM     61  H   UNL     1      13.098   5.213  23.729  0.00  0.00    +0.292 HD
ENDBRANCH  56  60
ENDBRANCH  51  52
BRANCH  47  62
ATOM     62  O   UNL     1       2.468   5.073  27.768  0.00  0.00    -0.507 OA
ATOM     63  H   UNL     1       2.752   5.876  28.254  0.00  0.00    +0.292 HD
ENDBRANCH  47  62
BRANCH  50  64
ATOM     64  O   UNL     1       3.363   2.713  23.757  0.00  0.00    -0.506 OA
ATOM     65  H   UNL     1       4.061   2.058  23.671  0.00  0.00    +0.292 HD
ENDBRANCH  50  64
ENDBRANCH  40  41
ENDBRANCH   3  40
TORSDOF 20
ENDMDL
MODEL 8
REMARK VINA RESULT:      -7.1      2.582      8.961
REMARK  Name = 
REMARK  22 active torsions:
REMARK  status: ('A' for Active; 'I' for Inactive)
REMARK    1  A    between atoms: C_1  and  C_2
REMARK    2  A    between atoms: C_3  and  O_61
REMARK    3  A    between atoms: C_5  and  O_60
REMARK    4  A    between atoms: C_7  and  O_59
REMARK    5  A    between atoms: C_8  and  O_11
REMARK    6  A    between atoms: O_11  and  C_12
REMARK    7  A    between atoms: C_13  and  O_58
REMARK    8  A    between atoms: C_15  and  O_57
REMARK    9  A    between atoms: C_17  and  C_56
REMARK   10  A    between atoms: C_19  and  O_21
REMARK   11  A    between atoms: O_21  and  C_22
REMARK   12  A    between atoms: C_22  and  C_23
REMARK   13  A    between atoms: C_24  and  O_55
REMARK   14  A    between atoms: C_26  and  O_54
REMARK   15  A    between atoms: C_27  and  O_53
REMARK   16  A    between atoms: C_28  and  O_31
REMARK   17  A    between atoms: O_31  and  C_32
REMARK   18  A    between atoms: C_33  and  C_45
REMARK   19  A    between atoms: C_37  and  O_44
REMARK   20  A    between atoms: C_39  and  O_43
REMARK   21  A    between atoms: C_47  and  O_52
REMARK   22  A    between atoms: C_48  and  O_51
REMARK                            x       y       z     vdW  Elec       q    Type
REMARK                         _______ _______ _______ _____ _____    ______ ____
ROOT
ATOM      1  C   UNL     1       6.302  -4.615  24.216  0.00  0.00    +0.179 C 
ATOM      2  O   UNL     1       5.858  -3.539  25.110  0.00  0.00    -0.331 OA
ATOM      3  C   UNL     1       6.473  -2.213  25.070  0.00  0.00    +0.340 C 
ATOM      4  C   UNL     1       8.008  -2.250  24.785  0.00  0.00    +0.214 C 
ATOM      5  C   UNL     1       8.385  -3.301  23.741  0.00  0.00    +0.180 C 
ATOM      6  C   UNL     1       7.837  -4.671  24.142  0.00  0.00    +0.177 C 
ENDROOT
BRANCH   4   7
ATOM      7  O   UNL     1       8.827  -2.497  25.953  0.00  0.00    -0.383 OA
ATOM      8  H   UNL     1       8.914  -3.458  26.071  0.00  0.00    +0.210 HD
ENDBRANCH   4   7
BRANCH   5   9
ATOM      9  O   UNL     1       9.819  -3.346  23.641  0.00  0.00    -0.386 OA
ATOM     10  H   UNL     1      10.037  -2.875  22.810  0.00  0.00    +0.210 HD
ENDBRANCH   5   9
BRANCH   6  11
ATOM     11  O   UNL     1       8.313  -5.665  23.238  0.00  0.00    -0.386 OA
ATOM     12  H   UNL     1       8.666  -5.218  22.447  0.00  0.00    +0.210 HD
ENDBRANCH   6  11
BRANCH   1  13
ATOM     13  C   UNL     1       5.563  -4.793  22.804  0.00  0.00    +0.197 C 
BRANCH  13  14
ATOM     14  O   UNL     1       4.100  -4.532  22.836  0.00  0.00    -0.346 OA
BRANCH  14  16
ATOM     15  C   UNL     1       3.462  -6.511  24.529  0.00  0.00    +0.208 C 
ATOM     16  C   UNL     1       3.278  -5.721  23.094  0.00  0.00    +0.282 C 
ATOM     17  O   UNL     1       1.886  -5.416  22.901  0.00  0.00    -0.343 OA
ATOM     18  C   UNL     1       1.006  -6.551  22.800  0.00  0.00    +0.149 C 
ATOM     19  C   UNL     1       1.111  -7.199  21.418  0.00  0.00    +0.041 C 
ATOM     20  C   UNL     1       1.164  -7.558  23.962  0.00  0.00    +0.174 C 
ATOM     21  C   UNL     1       2.644  -7.817  24.318  0.00  0.00    +0.179 C 
BRANCH  20  22
ATOM     22  O   UNL     1       0.444  -7.057  25.100  0.00  0.00    -0.387 OA
ATOM     23  H   UNL     1      -0.427  -6.773  24.767  0.00  0.00    +0.210 HD
ENDBRANCH  20  22
BRANCH  21  24
ATOM     24  O   UNL     1       2.754  -8.715  25.427  0.00  0.00    -0.386 OA
ATOM     25  H   UNL     1       2.302  -9.542  25.181  0.00  0.00    +0.210 HD
ENDBRANCH  21  24
BRANCH  15  26
ATOM     26  O   UNL     1       3.044  -5.713  25.659  0.00  0.00    -0.338 OA
BRANCH  26  30
ATOM     27  C   UNL     1       3.723  -3.561  29.665  0.00  0.00    +0.041 C 
ATOM     28  C   UNL     1       4.518  -3.953  28.422  0.00  0.00    +0.149 C 
ATOM     29  O   UNL     1       3.670  -4.429  27.383  0.00  0.00    -0.343 OA
ATOM     30  C   UNL     1       3.463  -5.824  27.055  0.00  0.00    +0.282 C 
ATOM     31  C   UNL     1       4.663  -6.750  27.481  0.00  0.00    +0.201 C 
ATOM     32  C   UNL     1       5.289  -6.288  28.837  0.00  0.00    +0.179 C 
ATOM     33  C   UNL     1       5.718  -4.829  28.757  0.00  0.00    +0.174 C 
BRANCH  31  34
ATOM     34  O   UNL     1       5.687  -6.786  26.474  0.00  0.00    -0.384 OA
ATOM     35  H   UNL     1       5.847  -7.739  26.296  0.00  0.00    +0.210 HD
ENDBRANCH  31  34
BRANCH  32  36
ATOM     36  O   UNL     1       6.442  -7.087  29.173  0.00  0.00    -0.386 OA
ATOM     37  H   UNL     1       7.152  -6.912  28.515  0.00  0.00    +0.210 HD
ENDBRANCH  32  36
BRANCH  33  38
ATOM     38  O   UNL     1       6.755  -4.662  27.776  0.00  0.00    -0.387 OA
ATOM     39  H   UNL     1       7.601  -4.550  28.254  0.00  0.00    +0.210 HD
ENDBRANCH  33  38
ENDBRANCH  26  30
ENDBRANCH  15  26
ENDBRANCH  14  16
ENDBRANCH  13  14
ENDBRANCH   1  13
BRANCH   3  40
ATOM     40  O   UNL     1       6.215  -1.484  26.359  0.00  0.00    -0.453 OA
BRANCH  40  41
ATOM     41  C   UNL     1       5.458  -0.308  26.269  0.00  0.00    +0.214 A 
ATOM     42  C   UNL     1       4.044  -0.328  26.698  0.00  0.00    +0.238 A 
ATOM     43  O   UNL     1       3.281  -1.247  26.429  0.00  0.00    -0.283 OA
ATOM     44  C   UNL     1       3.547   0.870  27.320  0.00  0.00    +0.109 A 
ATOM     45  C   UNL     1       4.007   2.059  26.780  0.00  0.00    +0.147 A 
ATOM     46  C   UNL     1       3.444   3.258  27.225  0.00  0.00    +0.092 A 
ATOM     47  C   UNL     1       2.455   3.214  28.218  0.00  0.00    +0.124 A 
ATOM     48  C   UNL     1       2.033   2.006  28.786  0.00  0.00    +0.091 A 
ATOM     49  O   UNL     1       4.969   2.044  25.791  0.00  0.00    -0.451 OA
ATOM     50  C   UNL     1       2.592   0.824  28.334  0.00  0.00    +0.135 A 
ATOM     51  C   UNL     1       5.755   0.867  25.628  0.00  0.00    +0.181 A 
BRANCH  51  52
ATOM     52  C   UNL     1       6.815   1.073  24.585  0.00  0.00    +0.025 A 
ATOM     53  C   UNL     1       6.451   1.141  23.224  0.00  0.00    +0.015 A 
ATOM     54  C   UNL     1       7.372   1.511  22.228  0.00  0.00    +0.050 A 
ATOM     55  C   UNL     1       8.671   1.831  22.582  0.00  0.00    +0.158 A 
ATOM     56  C   UNL     1       9.055   1.800  23.918  0.00  0.00    +0.159 A 
ATOM     57  C   UNL     1       8.139   1.437  24.920  0.00  0.00    +0.060 A 
BRANCH  55  58
ATOM     58  O   UNL     1       9.561   2.206  21.617  0.00  0.00    -0.503 OA
ATOM     59  H   UNL     1      10.295   2.636  22.101  0.00  0.00    +0.292 HD
ENDBRANCH  55  58
BRANCH  56  60
ATOM     60  O   UNL     1      10.347   2.163  24.200  0.00  0.00    -0.503 OA
ATOM     61  H   UNL     1      10.412   2.369  25.147  0.00  0.00    +0.292 HD
ENDBRANCH  56  60
ENDBRANCH  51  52
BRANCH  47  62
ATOM     62  O   UNL     1       1.865   4.345  28.690  0.00  0.00    -0.507 OA
ATOM     63  H   UNL     1       2.543   5.029  28.875  0.00  0.00    +0.292 HD
ENDBRANCH  47  62
BRANCH  50  64
ATOM     64  O   UNL     1       2.263  -0.372  28.901  0.00  0.00    -0.506 OA
ATOM     65  H   UNL     1       2.318  -1.060  28.231  0.00  0.00    +0.292 HD
ENDBRANCH  50  64
ENDBRANCH  40  41
ENDBRANCH   3  40
TORSDOF 20
ENDMDL
MODEL 9
REMARK VINA RESULT:      -7.0      2.033      7.376
REMARK  Name = 
REMARK  22 active torsions:
REMARK  status: ('A' for Active; 'I' for Inactive)
REMARK    1  A    between atoms: C_1  and  C_2
REMARK    2  A    between atoms: C_3  and  O_61
REMARK    3  A    between atoms: C_5  and  O_60
REMARK    4  A    between atoms: C_7  and  O_59
REMARK    5  A    between atoms: C_8  and  O_11
REMARK    6  A    between atoms: O_11  and  C_12
REMARK    7  A    between atoms: C_13  and  O_58
REMARK    8  A    between atoms: C_15  and  O_57
REMARK    9  A    between atoms: C_17  and  C_56
REMARK   10  A    between atoms: C_19  and  O_21
REMARK   11  A    between atoms: O_21  and  C_22
REMARK   12  A    between atoms: C_22  and  C_23
REMARK   13  A    between atoms: C_24  and  O_55
REMARK   14  A    between atoms: C_26  and  O_54
REMARK   15  A    between atoms: C_27  and  O_53
REMARK   16  A    between atoms: C_28  and  O_31
REMARK   17  A    between atoms: O_31  and  C_32
REMARK   18  A    between atoms: C_33  and  C_45
REMARK   19  A    between atoms: C_37  and  O_44
REMARK   20  A    between atoms: C_39  and  O_43
REMARK   21  A    between atoms: C_47  and  O_52
REMARK   22  A    between atoms: C_48  and  O_51
REMARK                            x       y       z     vdW  Elec       q    Type
REMARK                         _______ _______ _______ _____ _____    ______ ____
ROOT
ATOM      1  C   UNL     1       5.323  -4.404  24.198  0.00  0.00    +0.179 C 
ATOM      2  O   UNL     1       6.377  -3.466  23.793  0.00  0.00    -0.331 OA
ATOM      3  C   UNL     1       6.647  -3.185  22.384  0.00  0.00    +0.340 C 
ATOM      4  C   UNL     1       6.476  -4.433  21.459  0.00  0.00    +0.214 C 
ATOM      5  C   UNL     1       5.276  -5.293  21.853  0.00  0.00    +0.180 C 
ATOM      6  C   UNL     1       5.354  -5.674  23.332  0.00  0.00    +0.177 C 
ENDROOT
BRANCH   4   7
ATOM      7  O   UNL     1       7.630  -5.307  21.415  0.00  0.00    -0.383 OA
ATOM      8  H   UNL     1       7.325  -6.225  21.511  0.00  0.00    +0.210 HD
ENDBRANCH   4   7
BRANCH   5   9
ATOM      9  O   UNL     1       5.275  -6.475  21.033  0.00  0.00    -0.386 OA
ATOM     10  H   UNL     1       5.787  -6.236  20.233  0.00  0.00    +0.210 HD
ENDBRANCH   5   9
BRANCH   6  11
ATOM     11  O   UNL     1       4.309  -6.589  23.652  0.00  0.00    -0.386 OA
ATOM     12  H   UNL     1       4.014  -6.411  24.564  0.00  0.00    +0.210 HD
ENDBRANCH   6  11
BRANCH   1  13
ATOM     13  C   UNL     1       3.852  -3.830  24.480  0.00  0.00    +0.197 C 
BRANCH  13  14
ATOM     14  O   UNL     1       3.815  -2.397  24.876  0.00  0.00    -0.346 OA
BRANCH  14  16
ATOM     15  C   UNL     1       4.419  -0.639  26.808  0.00  0.00    +0.208 C 
ATOM     16  C   UNL     1       4.022  -2.159  26.310  0.00  0.00    +0.282 C 
ATOM     17  O   UNL     1       2.883  -2.616  27.061  0.00  0.00    -0.343 OA
ATOM     18  C   UNL     1       3.083  -2.745  28.481  0.00  0.00    +0.149 C 
ATOM     19  C   UNL     1       3.874  -4.014  28.805  0.00  0.00    +0.041 C 
ATOM     20  C   UNL     1       3.666  -1.474  29.139  0.00  0.00    +0.174 C 
ATOM     21  C   UNL     1       4.801  -0.847  28.301  0.00  0.00    +0.179 C 
BRANCH  20  22
ATOM     22  O   UNL     1       2.598  -0.534  29.339  0.00  0.00    -0.387 OA
ATOM     23  H   UNL     1       2.812   0.242  28.788  0.00  0.00    +0.210 HD
ENDBRANCH  20  22
BRANCH  21  24
ATOM     24  O   UNL     1       5.286   0.353  28.913  0.00  0.00    -0.386 OA
ATOM     25  H   UNL     1       6.183   0.170  29.247  0.00  0.00    +0.210 HD
ENDBRANCH  21  24
BRANCH  15  26
ATOM     26  O   UNL     1       3.356   0.314  26.584  0.00  0.00    -0.338 OA
BRANCH  26  30
ATOM     27  C   UNL     1       1.131   4.278  25.897  0.00  0.00    +0.041 C 
ATOM     28  C   UNL     1       1.760   3.156  25.075  0.00  0.00    +0.149 C 
ATOM     29  O   UNL     1       2.118   2.044  25.888  0.00  0.00    -0.343 OA
ATOM     30  C   UNL     1       3.459   1.753  26.352  0.00  0.00    +0.282 C 
ATOM     31  C   UNL     1       4.582   2.358  25.429  0.00  0.00    +0.201 C 
ATOM     32  C   UNL     1       4.171   3.758  24.868  0.00  0.00    +0.179 C 
ATOM     33  C   UNL     1       2.841   3.668  24.132  0.00  0.00    +0.174 C 
BRANCH  31  34
ATOM     34  O   UNL     1       4.897   1.482  24.334  0.00  0.00    -0.384 OA
ATOM     35  H   UNL     1       5.532   0.826  24.697  0.00  0.00    +0.210 HD
ENDBRANCH  31  34
BRANCH  32  36
ATOM     36  O   UNL     1       5.168   4.262  23.956  0.00  0.00    -0.386 OA
ATOM     37  H   UNL     1       6.003   4.416  24.452  0.00  0.00    +0.210 HD
ENDBRANCH  32  36
BRANCH  33  38
ATOM     38  O   UNL     1       2.959   2.811  22.984  0.00  0.00    -0.387 OA
ATOM     39  H   UNL     1       2.066   2.474  22.772  0.00  0.00    +0.210 HD
ENDBRANCH  33  38
ENDBRANCH  26  30
ENDBRANCH  15  26
ENDBRANCH  14  16
ENDBRANCH  13  14
ENDBRANCH   1  13
BRANCH   3  40
ATOM     40  O   UNL     1       8.032  -2.624  22.224  0.00  0.00    -0.453 OA
BRANCH  40  41
ATOM     41  C   UNL     1       8.377  -1.567  23.077  0.00  0.00    +0.214 A 
ATOM     42  C   UNL     1       9.016  -0.362  22.506  0.00  0.00    +0.238 A 
ATOM     43  O   UNL     1       9.893  -0.415  21.654  0.00  0.00    -0.283 OA
ATOM     44  C   UNL     1       8.671   0.895  23.117  0.00  0.00    +0.109 A 
ATOM     45  C   UNL     1       8.528   0.871  24.493  0.00  0.00    +0.147 A 
ATOM     46  C   UNL     1       8.354   2.082  25.169  0.00  0.00    +0.092 A 
ATOM     47  C   UNL     1       8.308   3.270  24.427  0.00  0.00    +0.124 A 
ATOM     48  C   UNL     1       8.409   3.273  23.030  0.00  0.00    +0.091 A 
ATOM     49  O   UNL     1       8.601  -0.325  25.177  0.00  0.00    -0.451 OA
ATOM     50  C   UNL     1       8.587   2.069  22.372  0.00  0.00    +0.135 A 
ATOM     51  C   UNL     1       8.418  -1.536  24.447  0.00  0.00    +0.181 A 
BRANCH  51  52
ATOM     52  C   UNL     1       8.423  -2.720  25.368  0.00  0.00    +0.025 A 
ATOM     53  C   UNL     1       7.496  -2.783  26.429  0.00  0.00    +0.015 A 
ATOM     54  C   UNL     1       7.337  -3.945  27.206  0.00  0.00    +0.050 A 
ATOM     55  C   UNL     1       8.098  -5.066  26.926  0.00  0.00    +0.158 A 
ATOM     56  C   UNL     1       9.002  -5.046  25.869  0.00  0.00    +0.159 A 
ATOM     57  C   UNL     1       9.162  -3.892  25.084  0.00  0.00    +0.060 A 
BRANCH  55  58
ATOM     58  O   UNL     1       7.932  -6.198  27.670  0.00  0.00    -0.503 OA
ATOM     59  H   UNL     1       8.368  -6.006  28.526  0.00  0.00    +0.292 HD
ENDBRANCH  55  58
BRANCH  56  60
ATOM     60  O   UNL     1       9.696  -6.203  25.626  0.00  0.00    -0.503 OA
ATOM     61  H   UNL     1      10.249  -6.402  26.399  0.00  0.00    +0.292 HD
ENDBRANCH  56  60
ENDBRANCH  51  52
BRANCH  47  62
ATOM     62  O   UNL     1       8.146   4.481  25.025  0.00  0.00    -0.507 OA
ATOM     63  H   UNL     1       8.349   5.202  24.392  0.00  0.00    +0.292 HD
ENDBRANCH  47  62
BRANCH  50  64
ATOM     64  O   UNL     1       8.625   2.012  21.009  0.00  0.00    -0.506 OA
ATOM     65  H   UNL     1       8.279   2.835  20.653  0.00  0.00    +0.292 HD
ENDBRANCH  50  64
ENDBRANCH  40  41
ENDBRANCH   3  40
TORSDOF 20
ENDMDL
