MODEL 1
REMARK VINA RESULT:      -7.7      0.000      0.000
REMARK  Name = 
REMARK  17 active torsions:
REMARK  status: ('A' for Active; 'I' for Inactive)
REMARK    1  A    between atoms: C_1  and  C_2
REMARK    2  A    between atoms: C_3  and  O_43
REMARK    3  A    between atoms: C_4  and  O_42
REMARK    4  A    between atoms: C_5  and  O_41
REMARK    5  A    between atoms: C_6  and  O_8
REMARK    6  A    between atoms: O_8  and  C_9
REMARK    7  A    between atoms: C_10  and  O_40
REMARK    8  A    between atoms: C_11  and  O_39
REMARK    9  A    between atoms: C_12  and  C_37
REMARK   10  A    between atoms: C_14  and  O_15
REMARK   11  A    between atoms: O_15  and  C_16
REMARK   12  A    between atoms: C_17  and  C_29
REMARK   13  A    between atoms: C_21  and  O_28
REMARK   14  A    between atoms: C_23  and  O_27
REMARK   15  A    between atoms: C_31  and  O_36
REMARK   16  A    between atoms: C_32  and  O_35
REMARK   17  A    between atoms: C_37  and  O_38
REMARK                            x       y       z     vdW  Elec       q    Type
REMARK                         _______ _______ _______ _____ _____    ______ ____
ROOT
ATOM      1  C   UNL     1       6.492  -2.610  22.567  0.00  0.00    +0.221 C 
ATOM      2  C   UNL     1       6.500  -2.897  24.096  0.00  0.00    +0.340 C 
ATOM      3  O   UNL     1       7.008  -4.219  24.397  0.00  0.00    -0.331 OA
ATOM      4  C   UNL     1       6.447  -5.331  23.693  0.00  0.00    +0.179 C 
ATOM      5  C   UNL     1       6.408  -5.101  22.177  0.00  0.00    +0.177 C 
ATOM      6  C   UNL     1       5.763  -3.759  21.853  0.00  0.00    +0.180 C 
ENDROOT
BRANCH   6   7
ATOM      7  O   UNL     1       5.669  -3.569  20.433  0.00  0.00    -0.386 OA
ATOM      8  H   UNL     1       5.378  -2.648  20.275  0.00  0.00    +0.210 HD
ENDBRANCH   6   7
BRANCH   5   9
ATOM      9  O   UNL     1       5.726  -6.154  21.485  0.00  0.00    -0.386 OA
ATOM     10  H   UNL     1       5.088  -6.574  22.093  0.00  0.00    +0.210 HD
ENDBRANCH   5   9
BRANCH   4  11
ATOM     11  C   UNL     1       5.104  -5.786  24.300  0.00  0.00    +0.190 C 
BRANCH  11  12
ATOM     12  O   UNL     1       4.777  -7.119  23.892  0.00  0.00    -0.392 OA
ATOM     13  H   UNL     1       5.594  -7.494  23.510  0.00  0.00    +0.210 HD
ENDBRANCH  11  12
ENDBRANCH   4  11
BRANCH   2  14
ATOM     14  O   UNL     1       5.186  -2.727  24.652  0.00  0.00    -0.453 OA
BRANCH  14  15
ATOM     15  C   UNL     1       5.015  -1.904  25.766  0.00  0.00    +0.214 A 
ATOM     16  C   UNL     1       5.011  -0.406  25.653  0.00  0.00    +0.238 A 
ATOM     17  O   UNL     1       5.378   0.161  24.631  0.00  0.00    -0.283 OA
ATOM     18  C   UNL     1       4.571   0.374  26.819  0.00  0.00    +0.109 A 
ATOM     19  C   UNL     1       4.346  -0.311  28.006  0.00  0.00    +0.147 A 
ATOM     20  C   UNL     1       3.929   0.380  29.147  0.00  0.00    +0.092 A 
ATOM     21  C   UNL     1       3.749   1.758  29.085  0.00  0.00    +0.124 A 
ATOM     22  C   UNL     1       3.972   2.457  27.906  0.00  0.00    +0.091 A 
ATOM     23  O   UNL     1       4.537  -1.658  28.131  0.00  0.00    -0.451 OA
ATOM     24  C   UNL     1       4.373   1.762  26.770  0.00  0.00    +0.135 A 
ATOM     25  C   UNL     1       4.834  -2.421  27.005  0.00  0.00    +0.181 A 
BRANCH  25  26
ATOM     26  C   UNL     1       4.970  -3.867  27.351  0.00  0.00    +0.025 A 
ATOM     27  C   UNL     1       3.830  -4.681  27.514  0.00  0.00    +0.015 A 
ATOM     28  C   UNL     1       3.931  -6.011  27.955  0.00  0.00    +0.050 A 
ATOM     29  C   UNL     1       5.179  -6.549  28.210  0.00  0.00    +0.158 A 
ATOM     30  C   UNL     1       6.316  -5.779  28.022  0.00  0.00    +0.159 A 
ATOM     31  C   UNL     1       6.224  -4.442  27.630  0.00  0.00    +0.060 A 
BRANCH  29  32
ATOM     32  O   UNL     1       5.286  -7.837  28.640  0.00  0.00    -0.503 OA
ATOM     33  H   UNL     1       4.541  -7.948  29.266  0.00  0.00    +0.292 HD
ENDBRANCH  29  32
BRANCH  30  34
ATOM     34  O   UNL     1       7.539  -6.367  28.201  0.00  0.00    -0.503 OA
ATOM     35  H   UNL     1       7.970  -6.350  27.315  0.00  0.00    +0.292 HD
ENDBRANCH  30  34
ENDBRANCH  25  26
BRANCH  24  36
ATOM     36  O   UNL     1       4.567   2.457  25.611  0.00  0.00    -0.506 OA
ATOM     37  H   UNL     1       5.100   1.942  24.983  0.00  0.00    +0.292 HD
ENDBRANCH  24  36
BRANCH  21  38
ATOM     38  O   UNL     1       3.356   2.481  30.172  0.00  0.00    -0.507 OA
ATOM     39  H   UNL     1       3.142   1.875  30.900  0.00  0.00    +0.292 HD
ENDBRANCH  21  38
ENDBRANCH  14  15
ENDBRANCH   2  14
BRANCH   1  40
ATOM     40  O   UNL     1       7.847  -2.368  22.124  0.00  0.00    -0.337 OA
BRANCH  40  44
ATOM     41  C   UNL     1       8.241   1.752  21.579  0.00  0.00    +0.041 C 
ATOM     42  C   UNL     1       9.476   0.840  21.596  0.00  0.00    +0.149 C 
ATOM     43  O   UNL     1       9.101  -0.534  21.378  0.00  0.00    -0.343 OA
ATOM     44  C   UNL     1       8.402  -1.105  22.495  0.00  0.00    +0.282 C 
ATOM     45  C   UNL     1       9.344  -1.129  23.718  0.00  0.00    +0.201 C 
ATOM     46  C   UNL     1       9.685   0.318  24.071  0.00  0.00    +0.179 C 
ATOM     47  C   UNL     1      10.332   1.021  22.867  0.00  0.00    +0.174 C 
BRANCH  47  48
ATOM     48  O   UNL     1      10.525   2.417  23.132  0.00  0.00    -0.387 OA
ATOM     49  H   UNL     1      11.061   2.780  22.404  0.00  0.00    +0.210 HD
ENDBRANCH  47  48
BRANCH  46  50
ATOM     50  O   UNL     1      10.579   0.354  25.193  0.00  0.00    -0.386 OA
ATOM     51  H   UNL     1      10.286   1.125  25.724  0.00  0.00    +0.210 HD
ENDBRANCH  46  50
BRANCH  45  52
ATOM     52  O   UNL     1      10.583  -1.808  23.446  0.00  0.00    -0.384 OA
ATOM     53  H   UNL     1      11.246  -1.114  23.253  0.00  0.00    +0.210 HD
ENDBRANCH  45  52
ENDBRANCH  40  44
ENDBRANCH   1  40
TORSDOF 16
ENDMDL
MODEL 2
REMARK VINA RESULT:      -7.3      1.960      2.912
REMARK  Name = 
REMARK  17 active torsions:
REMARK  status: ('A' for Active; 'I' for Inactive)
REMARK    1  A    between atoms: C_1  and  C_2
REMARK    2  A    between atoms: C_3  and  O_43
REMARK    3  A    between atoms: C_4  and  O_42
REMARK    4  A    between atoms: C_5  and  O_41
REMARK    5  A    between atoms: C_6  and  O_8
REMARK    6  A    between atoms: O_8  and  C_9
REMARK    7  A    between atoms: C_10  and  O_40
REMARK    8  A    between atoms: C_11  and  O_39
REMARK    9  A    between atoms: C_12  and  C_37
REMARK   10  A    between atoms: C_14  and  O_15
REMARK   11  A    between atoms: O_15  and  C_16
REMARK   12  A    between atoms: C_17  and  C_29
REMARK   13  A    between atoms: C_21  and  O_28
REMARK   14  A    between atoms: C_23  and  O_27
REMARK   15  A    between atoms: C_31  and  O_36
REMARK   16  A    between atoms: C_32  and  O_35
REMARK   17  A    between atoms: C_37  and  O_38
REMARK                            x       y       z     vdW  Elec       q    Type
REMARK                         _______ _______ _______ _____ _____    ______ ____
ROOT
ATOM      1  C   UNL     1       7.751  -2.120  24.428  0.00  0.00    +0.221 C 
ATOM      2  C   UNL     1       8.221  -2.499  25.861  0.00  0.00    +0.340 C 
ATOM      3  O   UNL     1       9.056  -3.682  25.864  0.00  0.00    -0.331 OA
ATOM      4  C   UNL     1       8.575  -4.845  25.182  0.00  0.00    +0.179 C 
ATOM      5  C   UNL     1       8.092  -4.530  23.761  0.00  0.00    +0.177 C 
ATOM      6  C   UNL     1       7.118  -3.358  23.773  0.00  0.00    +0.180 C 
ENDROOT
BRANCH   6   7
ATOM      7  O   UNL     1       6.616  -3.101  22.452  0.00  0.00    -0.386 OA
ATOM      8  H   UNL     1       6.540  -2.131  22.347  0.00  0.00    +0.210 HD
ENDBRANCH   6   7
BRANCH   5   9
ATOM      9  O   UNL     1       7.489  -5.664  23.128  0.00  0.00    -0.386 OA
ATOM     10  H   UNL     1       7.966  -5.857  22.298  0.00  0.00    +0.210 HD
ENDBRANCH   5   9
BRANCH   4  11
ATOM     11  C   UNL     1       7.566  -5.642  26.034  0.00  0.00    +0.190 C 
BRANCH  11  12
ATOM     12  O   UNL     1       7.943  -5.643  27.416  0.00  0.00    -0.392 OA
ATOM     13  H   UNL     1       8.082  -6.579  27.659  0.00  0.00    +0.210 HD
ENDBRANCH  11  12
ENDBRANCH   4  11
BRANCH   2  14
ATOM     14  O   UNL     1       7.094  -2.680  26.735  0.00  0.00    -0.453 OA
BRANCH  14  15
ATOM     15  C   UNL     1       6.171  -1.644  26.886  0.00  0.00    +0.214 A 
ATOM     16  C   UNL     1       6.574  -0.292  27.402  0.00  0.00    +0.238 A 
ATOM     17  O   UNL     1       7.666  -0.104  27.923  0.00  0.00    -0.283 OA
ATOM     18  C   UNL     1       5.606   0.808  27.286  0.00  0.00    +0.109 A 
ATOM     19  C   UNL     1       4.322   0.496  26.861  0.00  0.00    +0.147 A 
ATOM     20  C   UNL     1       3.359   1.502  26.734  0.00  0.00    +0.092 A 
ATOM     21  C   UNL     1       3.697   2.815  27.046  0.00  0.00    +0.124 A 
ATOM     22  C   UNL     1       4.976   3.142  27.475  0.00  0.00    +0.091 A 
ATOM     23  O   UNL     1       3.927  -0.780  26.571  0.00  0.00    -0.451 OA
ATOM     24  C   UNL     1       5.933   2.139  27.585  0.00  0.00    +0.135 A 
ATOM     25  C   UNL     1       4.867  -1.807  26.560  0.00  0.00    +0.181 A 
BRANCH  25  26
ATOM     26  C   UNL     1       4.240  -3.110  26.189  0.00  0.00    +0.025 A 
ATOM     27  C   UNL     1       4.090  -4.138  27.143  0.00  0.00    +0.015 A 
ATOM     28  C   UNL     1       3.613  -5.411  26.787  0.00  0.00    +0.050 A 
ATOM     29  C   UNL     1       3.255  -5.659  25.476  0.00  0.00    +0.158 A 
ATOM     30  C   UNL     1       3.360  -4.654  24.527  0.00  0.00    +0.159 A 
ATOM     31  C   UNL     1       3.877  -3.401  24.860  0.00  0.00    +0.060 A 
BRANCH  29  32
ATOM     32  O   UNL     1       2.793  -6.891  25.121  0.00  0.00    -0.503 OA
ATOM     33  H   UNL     1       2.741  -7.384  25.966  0.00  0.00    +0.292 HD
ENDBRANCH  29  32
BRANCH  30  34
ATOM     34  O   UNL     1       2.916  -4.906  23.257  0.00  0.00    -0.503 OA
ATOM     35  H   UNL     1       2.230  -5.606  23.353  0.00  0.00    +0.292 HD
ENDBRANCH  30  34
ENDBRANCH  25  26
BRANCH  24  36
ATOM     36  O   UNL     1       7.194   2.478  27.986  0.00  0.00    -0.506 OA
ATOM     37  H   UNL     1       7.820   2.421  27.246  0.00  0.00    +0.292 HD
ENDBRANCH  24  36
BRANCH  21  38
ATOM     38  O   UNL     1       2.793   3.830  26.953  0.00  0.00    -0.507 OA
ATOM     39  H   UNL     1       2.013   3.617  27.491  0.00  0.00    +0.292 HD
ENDBRANCH  21  38
ENDBRANCH  14  15
ENDBRANCH   2  14
BRANCH   1  40
ATOM     40  O   UNL     1       8.860  -1.538  23.705  0.00  0.00    -0.337 OA
BRANCH  40  44
ATOM     41  C   UNL     1       6.847   2.108  23.990  0.00  0.00    +0.041 C 
ATOM     42  C   UNL     1       7.127   1.471  22.622  0.00  0.00    +0.149 C 
ATOM     43  O   UNL     1       7.439   0.071  22.764  0.00  0.00    -0.343 OA
ATOM     44  C   UNL     1       8.721  -0.156  23.369  0.00  0.00    +0.282 C 
ATOM     45  C   UNL     1       9.820   0.414  22.446  0.00  0.00    +0.201 C 
ATOM     46  C   UNL     1       9.610   1.925  22.351  0.00  0.00    +0.179 C 
ATOM     47  C   UNL     1       8.201   2.233  21.819  0.00  0.00    +0.174 C 
BRANCH  47  48
ATOM     48  O   UNL     1       7.935   3.641  21.860  0.00  0.00    -0.387 OA
ATOM     49  H   UNL     1       8.791   4.097  21.963  0.00  0.00    +0.210 HD
ENDBRANCH  47  48
BRANCH  46  50
ATOM     50  O   UNL     1      10.595   2.506  21.485  0.00  0.00    -0.386 OA
ATOM     51  H   UNL     1      11.382   2.642  22.053  0.00  0.00    +0.210 HD
ENDBRANCH  46  50
BRANCH  45  52
ATOM     52  O   UNL     1       9.746  -0.115  21.110  0.00  0.00    -0.384 OA
ATOM     53  H   UNL     1      10.341   0.434  20.559  0.00  0.00    +0.210 HD
ENDBRANCH  45  52
ENDBRANCH  40  44
ENDBRANCH   1  40
TORSDOF 16
ENDMDL
MODEL 3
REMARK VINA RESULT:      -7.2      2.213      7.287
REMARK  Name = 
REMARK  17 active torsions:
REMARK  status: ('A' for Active; 'I' for Inactive)
REMARK    1  A    between atoms: C_1  and  C_2
REMARK    2  A    between atoms: C_3  and  O_43
REMARK    3  A    between atoms: C_4  and  O_42
REMARK    4  A    between atoms: C_5  and  O_41
REMARK    5  A    between atoms: C_6  and  O_8
REMARK    6  A    between atoms: O_8  and  C_9
REMARK    7  A    between atoms: C_10  and  O_40
REMARK    8  A    between atoms: C_11  and  O_39
REMARK    9  A    between atoms: C_12  and  C_37
REMARK   10  A    between atoms: C_14  and  O_15
REMARK   11  A    between atoms: O_15  and  C_16
REMARK   12  A    between atoms: C_17  and  C_29
REMARK   13  A    between atoms: C_21  and  O_28
REMARK   14  A    between atoms: C_23  and  O_27
REMARK   15  A    between atoms: C_31  and  O_36
REMARK   16  A    between atoms: C_32  and  O_35
REMARK   17  A    between atoms: C_37  and  O_38
REMARK                            x       y       z     vdW  Elec       q    Type
REMARK                         _______ _______ _______ _____ _____    ______ ____
ROOT
ATOM      1  C   UNL     1       7.269  -1.578  23.450  0.00  0.00    +0.221 C 
ATOM      2  C   UNL     1       6.739  -0.117  23.388  0.00  0.00    +0.340 C 
ATOM      3  O   UNL     1       7.175   0.569  22.191  0.00  0.00    -0.331 OA
ATOM      4  C   UNL     1       8.570   0.540  21.871  0.00  0.00    +0.179 C 
ATOM      5  C   UNL     1       9.151  -0.878  21.921  0.00  0.00    +0.177 C 
ATOM      6  C   UNL     1       8.791  -1.559  23.237  0.00  0.00    +0.180 C 
ENDROOT
BRANCH   6   7
ATOM      7  O   UNL     1       9.385  -2.864  23.313  0.00  0.00    -0.386 OA
ATOM      8  H   UNL     1       8.952  -3.428  22.641  0.00  0.00    +0.210 HD
ENDBRANCH   6   7
BRANCH   5   9
ATOM      9  O   UNL     1      10.571  -0.892  21.734  0.00  0.00    -0.386 OA
ATOM     10  H   UNL     1      10.896  -1.807  21.830  0.00  0.00    +0.210 HD
ENDBRANCH   5   9
BRANCH   4  11
ATOM     11  C   UNL     1       9.373   1.584  22.676  0.00  0.00    +0.190 C 
BRANCH  11  12
ATOM     12  O   UNL     1      10.255   2.325  21.825  0.00  0.00    -0.392 OA
ATOM     13  H   UNL     1       9.991   3.262  21.912  0.00  0.00    +0.210 HD
ENDBRANCH  11  12
ENDBRANCH   4  11
BRANCH   2  14
ATOM     14  O   UNL     1       7.134   0.619  24.559  0.00  0.00    -0.453 OA
BRANCH  14  15
ATOM     15  C   UNL     1       6.165   1.289  25.306  0.00  0.00    +0.214 A 
ATOM     16  C   UNL     1       5.041   0.559  25.986  0.00  0.00    +0.238 A 
ATOM     17  O   UNL     1       4.795  -0.615  25.734  0.00  0.00    -0.283 OA
ATOM     18  C   UNL     1       4.223   1.300  26.956  0.00  0.00    +0.109 A 
ATOM     19  C   UNL     1       4.429   2.669  27.062  0.00  0.00    +0.147 A 
ATOM     20  C   UNL     1       3.677   3.425  27.966  0.00  0.00    +0.092 A 
ATOM     21  C   UNL     1       2.717   2.795  28.751  0.00  0.00    +0.124 A 
ATOM     22  C   UNL     1       2.498   1.427  28.655  0.00  0.00    +0.091 A 
ATOM     23  O   UNL     1       5.336   3.343  26.294  0.00  0.00    -0.451 OA
ATOM     24  C   UNL     1       3.259   0.679  27.764  0.00  0.00    +0.135 A 
ATOM     25  C   UNL     1       6.199   2.634  25.462  0.00  0.00    +0.181 A 
BRANCH  25  26
ATOM     26  C   UNL     1       7.129   3.550  24.739  0.00  0.00    +0.025 A 
ATOM     27  C   UNL     1       8.332   3.980  25.338  0.00  0.00    +0.015 A 
ATOM     28  C   UNL     1       9.161   4.934  24.724  0.00  0.00    +0.050 A 
ATOM     29  C   UNL     1       8.808   5.446  23.490  0.00  0.00    +0.158 A 
ATOM     30  C   UNL     1       7.649   5.012  22.865  0.00  0.00    +0.159 A 
ATOM     31  C   UNL     1       6.794   4.101  23.487  0.00  0.00    +0.060 A 
BRANCH  29  32
ATOM     32  O   UNL     1       9.605   6.374  22.888  0.00  0.00    -0.503 OA
ATOM     33  H   UNL     1       8.978   7.031  22.520  0.00  0.00    +0.292 HD
ENDBRANCH  29  32
BRANCH  30  34
ATOM     34  O   UNL     1       7.374   5.475  21.607  0.00  0.00    -0.503 OA
ATOM     35  H   UNL     1       7.292   6.453  21.700  0.00  0.00    +0.292 HD
ENDBRANCH  30  34
ENDBRANCH  25  26
BRANCH  24  36
ATOM     36  O   UNL     1       3.050  -0.669  27.695  0.00  0.00    -0.506 OA
ATOM     37  H   UNL     1       3.893  -1.151  27.682  0.00  0.00    +0.292 HD
ENDBRANCH  24  36
BRANCH  21  38
ATOM     38  O   UNL     1       1.948   3.488  29.639  0.00  0.00    -0.507 OA
ATOM     39  H   UNL     1       2.517   3.868  30.328  0.00  0.00    +0.292 HD
ENDBRANCH  21  38
ENDBRANCH  14  15
ENDBRANCH   2  14
BRANCH   1  40
ATOM     40  O   UNL     1       6.524  -2.391  22.516  0.00  0.00    -0.337 OA
BRANCH  40  44
ATOM     41  C   UNL     1       6.408  -6.524  21.940  0.00  0.00    +0.041 C 
ATOM     42  C   UNL     1       5.132  -5.743  22.285  0.00  0.00    +0.149 C 
ATOM     43  O   UNL     1       5.309  -4.336  22.030  0.00  0.00    -0.343 OA
ATOM     44  C   UNL     1       6.199  -3.708  22.965  0.00  0.00    +0.282 C 
ATOM     45  C   UNL     1       5.584  -3.792  24.379  0.00  0.00    +0.201 C 
ATOM     46  C   UNL     1       5.479  -5.270  24.754  0.00  0.00    +0.179 C 
ATOM     47  C   UNL     1       4.631  -6.023  23.717  0.00  0.00    +0.174 C 
BRANCH  47  48
ATOM     48  O   UNL     1       4.643  -7.433  23.973  0.00  0.00    -0.387 OA
ATOM     49  H   UNL     1       4.477  -7.885  23.125  0.00  0.00    +0.210 HD
ENDBRANCH  47  48
BRANCH  46  50
ATOM     50  O   UNL     1       4.892  -5.408  26.056  0.00  0.00    -0.386 OA
ATOM     51  H   UNL     1       4.001  -5.781  25.892  0.00  0.00    +0.210 HD
ENDBRANCH  46  50
BRANCH  45  52
ATOM     52  O   UNL     1       4.256  -3.240  24.436  0.00  0.00    -0.384 OA
ATOM     53  H   UNL     1       4.307  -2.348  24.033  0.00  0.00    +0.210 HD
ENDBRANCH  45  52
ENDBRANCH  40  44
ENDBRANCH   1  40
TORSDOF 16
ENDMDL
MODEL 4
REMARK VINA RESULT:      -7.2      1.861      2.605
REMARK  Name = 
REMARK  17 active torsions:
REMARK  status: ('A' for Active; 'I' for Inactive)
REMARK    1  A    between atoms: C_1  and  C_2
REMARK    2  A    between atoms: C_3  and  O_43
REMARK    3  A    between atoms: C_4  and  O_42
REMARK    4  A    between atoms: C_5  and  O_41
REMARK    5  A    between atoms: C_6  and  O_8
REMARK    6  A    between atoms: O_8  and  C_9
REMARK    7  A    between atoms: C_10  and  O_40
REMARK    8  A    between atoms: C_11  and  O_39
REMARK    9  A    between atoms: C_12  and  C_37
REMARK   10  A    between atoms: C_14  and  O_15
REMARK   11  A    between atoms: O_15  and  C_16
REMARK   12  A    between atoms: C_17  and  C_29
REMARK   13  A    between atoms: C_21  and  O_28
REMARK   14  A    between atoms: C_23  and  O_27
REMARK   15  A    between atoms: C_31  and  O_36
REMARK   16  A    between atoms: C_32  and  O_35
REMARK   17  A    between atoms: C_37  and  O_38
REMARK                            x       y       z     vdW  Elec       q    Type
REMARK                         _______ _______ _______ _____ _____    ______ ____
ROOT
ATOM      1  C   UNL     1       7.201  -3.163  22.843  0.00  0.00    +0.221 C 
ATOM      2  C   UNL     1       7.810  -4.177  23.854  0.00  0.00    +0.340 C 
ATOM      3  O   UNL     1       8.267  -5.386  23.202  0.00  0.00    -0.331 OA
ATOM      4  C   UNL     1       7.360  -6.057  22.320  0.00  0.00    +0.179 C 
ATOM      5  C   UNL     1       6.723  -5.103  21.302  0.00  0.00    +0.177 C 
ATOM      6  C   UNL     1       6.135  -3.884  22.003  0.00  0.00    +0.180 C 
ENDROOT
BRANCH   6   7
ATOM      7  O   UNL     1       5.483  -3.020  21.060  0.00  0.00    -0.386 OA
ATOM      8  H   UNL     1       6.153  -2.737  20.404  0.00  0.00    +0.210 HD
ENDBRANCH   6   7
BRANCH   5   9
ATOM      9  O   UNL     1       5.718  -5.747  20.510  0.00  0.00    -0.386 OA
ATOM     10  H   UNL     1       5.458  -5.151  19.781  0.00  0.00    +0.210 HD
ENDBRANCH   5   9
BRANCH   4  11
ATOM     11  C   UNL     1       6.350  -6.936  23.086  0.00  0.00    +0.190 C 
BRANCH  11  12
ATOM     12  O   UNL     1       5.034  -6.370  23.040  0.00  0.00    -0.392 OA
ATOM     13  H   UNL     1       4.469  -7.033  22.598  0.00  0.00    +0.210 HD
ENDBRANCH  11  12
ENDBRANCH   4  11
BRANCH   2  14
ATOM     14  O   UNL     1       6.865  -4.493  24.890  0.00  0.00    -0.453 OA
BRANCH  14  15
ATOM     15  C   UNL     1       6.398  -3.476  25.724  0.00  0.00    +0.214 A 
ATOM     16  C   UNL     1       7.329  -2.491  26.372  0.00  0.00    +0.238 A 
ATOM     17  O   UNL     1       8.541  -2.668  26.385  0.00  0.00    -0.283 OA
ATOM     18  C   UNL     1       6.742  -1.308  27.018  0.00  0.00    +0.109 A 
ATOM     19  C   UNL     1       5.359  -1.256  27.136  0.00  0.00    +0.147 A 
ATOM     20  C   UNL     1       4.746  -0.156  27.743  0.00  0.00    +0.092 A 
ATOM     21  C   UNL     1       5.534   0.879  28.235  0.00  0.00    +0.124 A 
ATOM     22  C   UNL     1       6.918   0.840  28.127  0.00  0.00    +0.091 A 
ATOM     23  O   UNL     1       4.541  -2.259  26.698  0.00  0.00    -0.451 OA
ATOM     24  C   UNL     1       7.520  -0.250  27.509  0.00  0.00    +0.135 A 
ATOM     25  C   UNL     1       5.077  -3.323  25.978  0.00  0.00    +0.181 A 
BRANCH  25  26
ATOM     26  C   UNL     1       4.014  -4.288  25.566  0.00  0.00    +0.025 A 
ATOM     27  C   UNL     1       3.080  -3.951  24.565  0.00  0.00    +0.015 A 
ATOM     28  C   UNL     1       2.002  -4.795  24.247  0.00  0.00    +0.050 A 
ATOM     29  C   UNL     1       1.866  -6.000  24.910  0.00  0.00    +0.158 A 
ATOM     30  C   UNL     1       2.793  -6.369  25.872  0.00  0.00    +0.159 A 
ATOM     31  C   UNL     1       3.839  -5.518  26.229  0.00  0.00    +0.060 A 
BRANCH  29  32
ATOM     32  O   UNL     1       0.823  -6.824  24.610  0.00  0.00    -0.503 OA
ATOM     33  H   UNL     1       1.094  -7.697  24.962  0.00  0.00    +0.292 HD
ENDBRANCH  29  32
BRANCH  30  34
ATOM     34  O   UNL     1       2.677  -7.606  26.448  0.00  0.00    -0.503 OA
ATOM     35  H   UNL     1       3.062  -7.511  27.351  0.00  0.00    +0.292 HD
ENDBRANCH  30  34
ENDBRANCH  25  26
BRANCH  24  36
ATOM     36  O   UNL     1       8.881  -0.266  27.389  0.00  0.00    -0.506 OA
ATOM     37  H   UNL     1       9.288  -0.763  28.117  0.00  0.00    +0.292 HD
ENDBRANCH  24  36
BRANCH  21  38
ATOM     38  O   UNL     1       4.988   1.968  28.848  0.00  0.00    -0.507 OA
ATOM     39  H   UNL     1       5.393   2.775  28.490  0.00  0.00    +0.292 HD
ENDBRANCH  21  38
ENDBRANCH  14  15
ENDBRANCH   2  14
BRANCH   1  40
ATOM     40  O   UNL     1       8.270  -2.548  22.089  0.00  0.00    -0.337 OA
BRANCH  40  44
ATOM     41  C   UNL     1       7.984   1.578  21.520  0.00  0.00    +0.041 C 
ATOM     42  C   UNL     1       9.353   0.886  21.573  0.00  0.00    +0.149 C 
ATOM     43  O   UNL     1       9.218  -0.533  21.357  0.00  0.00    -0.343 OA
ATOM     44  C   UNL     1       8.597  -1.208  22.462  0.00  0.00    +0.282 C 
ATOM     45  C   UNL     1       9.500  -1.069  23.707  0.00  0.00    +0.201 C 
ATOM     46  C   UNL     1       9.586   0.416  24.057  0.00  0.00    +0.179 C 
ATOM     47  C   UNL     1      10.135   1.212  22.862  0.00  0.00    +0.174 C 
BRANCH  47  48
ATOM     48  O   UNL     1      10.087   2.622  23.120  0.00  0.00    -0.387 OA
ATOM     49  H   UNL     1       9.234   2.951  22.782  0.00  0.00    +0.210 HD
ENDBRANCH  47  48
BRANCH  46  50
ATOM     50  O   UNL     1      10.434   0.606  25.198  0.00  0.00    -0.386 OA
ATOM     51  H   UNL     1       9.819   0.716  25.954  0.00  0.00    +0.210 HD
ENDBRANCH  46  50
BRANCH  45  52
ATOM     52  O   UNL     1      10.841  -1.533  23.469  0.00  0.00    -0.384 OA
ATOM     53  H   UNL     1      10.808  -2.078  22.656  0.00  0.00    +0.210 HD
ENDBRANCH  45  52
ENDBRANCH  40  44
ENDBRANCH   1  40
TORSDOF 16
ENDMDL
MODEL 5
REMARK VINA RESULT:      -7.1      2.587      7.608
REMARK  Name = 
REMARK  17 active torsions:
REMARK  status: ('A' for Active; 'I' for Inactive)
REMARK    1  A    between atoms: C_1  and  C_2
REMARK    2  A    between atoms: C_3  and  O_43
REMARK    3  A    between atoms: C_4  and  O_42
REMARK    4  A    between atoms: C_5  and  O_41
REMARK    5  A    between atoms: C_6  and  O_8
REMARK    6  A    between atoms: O_8  and  C_9
REMARK    7  A    between atoms: C_10  and  O_40
REMARK    8  A    between atoms: C_11  and  O_39
REMARK    9  A    between atoms: C_12  and  C_37
REMARK   10  A    between atoms: C_14  and  O_15
REMARK   11  A    between atoms: O_15  and  C_16
REMARK   12  A    between atoms: C_17  and  C_29
REMARK   13  A    between atoms: C_21  and  O_28
REMARK   14  A    between atoms: C_23  and  O_27
REMARK   15  A    between atoms: C_31  and  O_36
REMARK   16  A    between atoms: C_32  and  O_35
REMARK   17  A    between atoms: C_37  and  O_38
REMARK                            x       y       z     vdW  Elec       q    Type
REMARK                         _______ _______ _______ _____ _____    ______ ____
ROOT
ATOM      1  C   UNL     1       5.958  -0.224  26.072  0.00  0.00    +0.221 C 
ATOM      2  C   UNL     1       7.058   0.871  26.176  0.00  0.00    +0.340 C 
ATOM      3  O   UNL     1       7.082   1.495  27.482  0.00  0.00    -0.331 OA
ATOM      4  C   UNL     1       5.848   1.989  28.012  0.00  0.00    +0.179 C 
ATOM      5  C   UNL     1       4.721   0.952  27.931  0.00  0.00    +0.177 C 
ATOM      6  C   UNL     1       4.618   0.380  26.522  0.00  0.00    +0.180 C 
ENDROOT
BRANCH   6   7
ATOM      7  O   UNL     1       3.524  -0.545  26.427  0.00  0.00    -0.386 OA
ATOM      8  H   UNL     1       3.147  -0.468  25.527  0.00  0.00    +0.210 HD
ENDBRANCH   6   7
BRANCH   5   9
ATOM      9  O   UNL     1       3.457   1.489  28.337  0.00  0.00    -0.386 OA
ATOM     10  H   UNL     1       3.600   2.360  28.754  0.00  0.00    +0.210 HD
ENDBRANCH   5   9
BRANCH   4  11
ATOM     11  C   UNL     1       5.480   3.372  27.436  0.00  0.00    +0.190 C 
BRANCH  11  12
ATOM     12  O   UNL     1       6.463   4.354  27.782  0.00  0.00    -0.392 OA
ATOM     13  H   UNL     1       7.219   4.205  27.182  0.00  0.00    +0.210 HD
ENDBRANCH  11  12
ENDBRANCH   4  11
BRANCH   2  14
ATOM     14  O   UNL     1       6.888   1.863  25.150  0.00  0.00    -0.453 OA
BRANCH  14  15
ATOM     15  C   UNL     1       8.014   2.444  24.566  0.00  0.00    +0.214 A 
ATOM     16  C   UNL     1       8.311   3.911  24.702  0.00  0.00    +0.238 A 
ATOM     17  O   UNL     1       7.476   4.697  25.132  0.00  0.00    -0.283 OA
ATOM     18  C   UNL     1       9.637   4.389  24.283  0.00  0.00    +0.109 A 
ATOM     19  C   UNL     1      10.471   3.490  23.633  0.00  0.00    +0.147 A 
ATOM     20  C   UNL     1      11.742   3.890  23.210  0.00  0.00    +0.092 A 
ATOM     21  C   UNL     1      12.158   5.199  23.438  0.00  0.00    +0.124 A 
ATOM     22  C   UNL     1      11.333   6.109  24.085  0.00  0.00    +0.091 A 
ATOM     23  O   UNL     1      10.102   2.204  23.356  0.00  0.00    -0.451 OA
ATOM     24  C   UNL     1      10.076   5.701  24.516  0.00  0.00    +0.135 A 
ATOM     25  C   UNL     1       8.901   1.707  23.856  0.00  0.00    +0.181 A 
BRANCH  25  26
ATOM     26  C   UNL     1       8.703   0.279  23.469  0.00  0.00    +0.025 A 
ATOM     27  C   UNL     1       7.590  -0.112  22.695  0.00  0.00    +0.015 A 
ATOM     28  C   UNL     1       7.321  -1.464  22.422  0.00  0.00    +0.050 A 
ATOM     29  C   UNL     1       8.181  -2.436  22.896  0.00  0.00    +0.158 A 
ATOM     30  C   UNL     1       9.301  -2.073  23.628  0.00  0.00    +0.159 A 
ATOM     31  C   UNL     1       9.551  -0.738  23.946  0.00  0.00    +0.060 A 
BRANCH  29  32
ATOM     32  O   UNL     1       7.927  -3.750  22.638  0.00  0.00    -0.503 OA
ATOM     33  H   UNL     1       7.680  -3.768  21.690  0.00  0.00    +0.292 HD
ENDBRANCH  29  32
BRANCH  30  34
ATOM     34  O   UNL     1      10.177  -3.053  24.010  0.00  0.00    -0.503 OA
ATOM     35  H   UNL     1      10.960  -2.578  24.373  0.00  0.00    +0.292 HD
ENDBRANCH  30  34
ENDBRANCH  25  26
BRANCH  24  36
ATOM     36  O   UNL     1       9.284   6.600  25.171  0.00  0.00    -0.506 OA
ATOM     37  H   UNL     1       8.439   6.721  24.706  0.00  0.00    +0.292 HD
ENDBRANCH  24  36
BRANCH  21  38
ATOM     38  O   UNL     1      13.381   5.644  23.034  0.00  0.00    -0.507 OA
ATOM     39  H   UNL     1      13.313   6.576  22.771  0.00  0.00    +0.292 HD
ENDBRANCH  21  38
ENDBRANCH  14  15
ENDBRANCH   2  14
BRANCH   1  40
ATOM     40  O   UNL     1       6.385  -1.394  26.804  0.00  0.00    -0.337 OA
BRANCH  40  44
ATOM     41  C   UNL     1       4.746  -3.742  23.766  0.00  0.00    +0.041 C 
ATOM     42  C   UNL     1       4.670  -4.190  25.233  0.00  0.00    +0.149 C 
ATOM     43  O   UNL     1       4.906  -3.080  26.120  0.00  0.00    -0.343 OA
ATOM     44  C   UNL     1       6.272  -2.635  26.106  0.00  0.00    +0.282 C 
ATOM     45  C   UNL     1       7.176  -3.774  26.627  0.00  0.00    +0.201 C 
ATOM     46  C   UNL     1       7.056  -4.946  25.655  0.00  0.00    +0.179 C 
ATOM     47  C   UNL     1       5.590  -5.391  25.536  0.00  0.00    +0.174 C 
BRANCH  47  48
ATOM     48  O   UNL     1       5.438  -6.392  24.521  0.00  0.00    -0.387 OA
ATOM     49  H   UNL     1       4.981  -7.151  24.926  0.00  0.00    +0.210 HD
ENDBRANCH  47  48
BRANCH  46  50
ATOM     50  O   UNL     1       7.863  -6.044  26.104  0.00  0.00    -0.386 OA
ATOM     51  H   UNL     1       8.280  -5.728  26.933  0.00  0.00    +0.210 HD
ENDBRANCH  46  50
BRANCH  45  52
ATOM     52  O   UNL     1       6.771  -4.248  27.924  0.00  0.00    -0.384 OA
ATOM     53  H   UNL     1       7.404  -4.952  28.175  0.00  0.00    +0.210 HD
ENDBRANCH  45  52
ENDBRANCH  40  44
ENDBRANCH   1  40
TORSDOF 16
ENDMDL
MODEL 6
REMARK VINA RESULT:      -7.0      2.174      7.009
REMARK  Name = 
REMARK  17 active torsions:
REMARK  status: ('A' for Active; 'I' for Inactive)
REMARK    1  A    between atoms: C_1  and  C_2
REMARK    2  A    between atoms: C_3  and  O_43
REMARK    3  A    between atoms: C_4  and  O_42
REMARK    4  A    between atoms: C_5  and  O_41
REMARK    5  A    between atoms: C_6  and  O_8
REMARK    6  A    between atoms: O_8  and  C_9
REMARK    7  A    between atoms: C_10  and  O_40
REMARK    8  A    between atoms: C_11  and  O_39
REMARK    9  A    between atoms: C_12  and  C_37
REMARK   10  A    between atoms: C_14  and  O_15
REMARK   11  A    between atoms: O_15  and  C_16
REMARK   12  A    between atoms: C_17  and  C_29
REMARK   13  A    between atoms: C_21  and  O_28
REMARK   14  A    between atoms: C_23  and  O_27
REMARK   15  A    between atoms: C_31  and  O_36
REMARK   16  A    between atoms: C_32  and  O_35
REMARK   17  A    between atoms: C_37  and  O_38
REMARK                            x       y       z     vdW  Elec       q    Type
REMARK                         _______ _______ _______ _____ _____    ______ ____
ROOT
ATOM      1  C   UNL     1       5.721  -3.523  24.315  0.00  0.00    +0.221 C 
ATOM      2  C   UNL     1       6.267  -2.125  23.907  0.00  0.00    +0.340 C 
ATOM      3  O   UNL     1       7.386  -2.224  22.996  0.00  0.00    -0.331 OA
ATOM      4  C   UNL     1       8.470  -3.088  23.355  0.00  0.00    +0.179 C 
ATOM      5  C   UNL     1       7.990  -4.484  23.772  0.00  0.00    +0.177 C 
ATOM      6  C   UNL     1       6.890  -4.381  24.823  0.00  0.00    +0.180 C 
ENDROOT
BRANCH   6   7
ATOM      7  O   UNL     1       6.483  -5.686  25.262  0.00  0.00    -0.386 OA
ATOM      8  H   UNL     1       5.899  -5.570  26.039  0.00  0.00    +0.210 HD
ENDBRANCH   6   7
BRANCH   5   9
ATOM      9  O   UNL     1       9.059  -5.304  24.259  0.00  0.00    -0.386 OA
ATOM     10  H   UNL     1       9.232  -6.017  23.615  0.00  0.00    +0.210 HD
ENDBRANCH   5   9
BRANCH   4  11
ATOM     11  C   UNL     1       9.436  -2.423  24.357  0.00  0.00    +0.190 C 
BRANCH  11  12
ATOM     12  O   UNL     1      10.058  -1.266  23.785  0.00  0.00    -0.392 OA
ATOM     13  H   UNL     1      11.020  -1.400  23.880  0.00  0.00    +0.210 HD
ENDBRANCH  11  12
ENDBRANCH   4  11
BRANCH   2  14
ATOM     14  O   UNL     1       6.633  -1.363  25.070  0.00  0.00    -0.453 OA
BRANCH  14  15
ATOM     15  C   UNL     1       5.879  -0.242  25.420  0.00  0.00    +0.214 A 
ATOM     16  C   UNL     1       4.581  -0.361  26.167  0.00  0.00    +0.238 A 
ATOM     17  O   UNL     1       4.017  -1.440  26.304  0.00  0.00    -0.283 OA
ATOM     18  C   UNL     1       3.987   0.865  26.718  0.00  0.00    +0.109 A 
ATOM     19  C   UNL     1       4.571   2.077  26.373  0.00  0.00    +0.147 A 
ATOM     20  C   UNL     1       4.046   3.276  26.867  0.00  0.00    +0.092 A 
ATOM     21  C   UNL     1       2.931   3.243  27.697  0.00  0.00    +0.124 A 
ATOM     22  C   UNL     1       2.335   2.039  28.049  0.00  0.00    +0.091 A 
ATOM     23  O   UNL     1       5.647   2.169  25.537  0.00  0.00    -0.451 OA
ATOM     24  C   UNL     1       2.870   0.850  27.567  0.00  0.00    +0.135 A 
ATOM     25  C   UNL     1       6.290   1.010  25.110  0.00  0.00    +0.181 A 
BRANCH  25  26
ATOM     26  C   UNL     1       7.457   1.330  24.234  0.00  0.00    +0.025 A 
ATOM     27  C   UNL     1       8.645   1.859  24.779  0.00  0.00    +0.015 A 
ATOM     28  C   UNL     1       9.709   2.278  23.961  0.00  0.00    +0.050 A 
ATOM     29  C   UNL     1       9.603   2.143  22.589  0.00  0.00    +0.158 A 
ATOM     30  C   UNL     1       8.459   1.591  22.033  0.00  0.00    +0.159 A 
ATOM     31  C   UNL     1       7.379   1.217  22.833  0.00  0.00    +0.060 A 
BRANCH  29  32
ATOM     32  O   UNL     1      10.628   2.548  21.788  0.00  0.00    -0.503 OA
ATOM     33  H   UNL     1      11.433   2.209  22.233  0.00  0.00    +0.292 HD
ENDBRANCH  29  32
BRANCH  30  34
ATOM     34  O   UNL     1       8.422   1.393  20.679  0.00  0.00    -0.503 OA
ATOM     35  H   UNL     1       9.360   1.447  20.381  0.00  0.00    +0.292 HD
ENDBRANCH  30  34
ENDBRANCH  25  26
BRANCH  24  36
ATOM     36  O   UNL     1       2.288  -0.329  27.938  0.00  0.00    -0.506 OA
ATOM     37  H   UNL     1       1.490  -0.170  28.468  0.00  0.00    +0.292 HD
ENDBRANCH  24  36
BRANCH  21  38
ATOM     38  O   UNL     1       2.372   4.383  28.194  0.00  0.00    -0.507 OA
ATOM     39  H   UNL     1       2.492   4.406  29.157  0.00  0.00    +0.292 HD
ENDBRANCH  21  38
ENDBRANCH  14  15
ENDBRANCH   2  14
BRANCH   1  40
ATOM     40  O   UNL     1       4.979  -4.083  23.208  0.00  0.00    -0.337 OA
BRANCH  40  44
ATOM     41  C   UNL     1       1.219  -4.106  25.022  0.00  0.00    +0.041 C 
ATOM     42  C   UNL     1       2.272  -5.163  25.383  0.00  0.00    +0.149 C 
ATOM     43  O   UNL     1       3.587  -4.736  24.977  0.00  0.00    -0.343 OA
ATOM     44  C   UNL     1       3.760  -4.744  23.551  0.00  0.00    +0.282 C 
ATOM     45  C   UNL     1       3.626  -6.194  23.037  0.00  0.00    +0.201 C 
ATOM     46  C   UNL     1       2.203  -6.664  23.337  0.00  0.00    +0.179 C 
ATOM     47  C   UNL     1       1.916  -6.565  24.844  0.00  0.00    +0.174 C 
BRANCH  47  48
ATOM     48  O   UNL     1       0.543  -6.863  25.125  0.00  0.00    -0.387 OA
ATOM     49  H   UNL     1       0.404  -7.808  24.930  0.00  0.00    +0.210 HD
ENDBRANCH  47  48
BRANCH  46  50
ATOM     50  O   UNL     1       2.028  -8.019  22.897  0.00  0.00    -0.386 OA
ATOM     51  H   UNL     1       2.885  -8.264  22.490  0.00  0.00    +0.210 HD
ENDBRANCH  46  50
BRANCH  45  52
ATOM     52  O   UNL     1       4.526  -7.099  23.701  0.00  0.00    -0.384 OA
ATOM     53  H   UNL     1       5.382  -7.038  23.229  0.00  0.00    +0.210 HD
ENDBRANCH  45  52
ENDBRANCH  40  44
ENDBRANCH   1  40
TORSDOF 16
ENDMDL
MODEL 7
REMARK VINA RESULT:      -7.0      2.117      7.276
REMARK  Name = 
REMARK  17 active torsions:
REMARK  status: ('A' for Active; 'I' for Inactive)
REMARK    1  A    between atoms: C_1  and  C_2
REMARK    2  A    between atoms: C_3  and  O_43
REMARK    3  A    between atoms: C_4  and  O_42
REMARK    4  A    between atoms: C_5  and  O_41
REMARK    5  A    between atoms: C_6  and  O_8
REMARK    6  A    between atoms: O_8  and  C_9
REMARK    7  A    between atoms: C_10  and  O_40
REMARK    8  A    between atoms: C_11  and  O_39
REMARK    9  A    between atoms: C_12  and  C_37
REMARK   10  A    between atoms: C_14  and  O_15
REMARK   11  A    between atoms: O_15  and  C_16
REMARK   12  A    between atoms: C_17  and  C_29
REMARK   13  A    between atoms: C_21  and  O_28
REMARK   14  A    between atoms: C_23  and  O_27
REMARK   15  A    between atoms: C_31  and  O_36
REMARK   16  A    between atoms: C_32  and  O_35
REMARK   17  A    between atoms: C_37  and  O_38
REMARK                            x       y       z     vdW  Elec       q    Type
REMARK                         _______ _______ _______ _____ _____    ______ ____
ROOT
ATOM      1  C   UNL     1       7.543  -1.878  23.697  0.00  0.00    +0.221 C 
ATOM      2  C   UNL     1       7.114  -0.386  23.600  0.00  0.00    +0.340 C 
ATOM      3  O   UNL     1       7.561   0.229  22.368  0.00  0.00    -0.331 OA
ATOM      4  C   UNL     1       8.941   0.091  22.011  0.00  0.00    +0.179 C 
ATOM      5  C   UNL     1       9.422  -1.363  22.094  0.00  0.00    +0.177 C 
ATOM      6  C   UNL     1       9.055  -1.974  23.441  0.00  0.00    +0.180 C 
ENDROOT
BRANCH   6   7
ATOM      7  O   UNL     1       9.559  -3.314  23.546  0.00  0.00    -0.386 OA
ATOM      8  H   UNL     1      10.255  -3.424  22.866  0.00  0.00    +0.210 HD
ENDBRANCH   6   7
BRANCH   5   9
ATOM      9  O   UNL     1      10.831  -1.483  21.868  0.00  0.00    -0.386 OA
ATOM     10  H   UNL     1      11.193  -0.605  21.637  0.00  0.00    +0.210 HD
ENDBRANCH   5   9
BRANCH   4  11
ATOM     11  C   UNL     1       9.838   1.100  22.756  0.00  0.00    +0.190 C 
BRANCH  11  12
ATOM     12  O   UNL     1      10.228   2.178  21.897  0.00  0.00    -0.392 OA
ATOM     13  H   UNL     1      11.180   2.051  21.718  0.00  0.00    +0.210 HD
ENDBRANCH  11  12
ENDBRANCH   4  11
BRANCH   2  14
ATOM     14  O   UNL     1       7.595   0.357  24.733  0.00  0.00    -0.453 OA
BRANCH  14  15
ATOM     15  C   UNL     1       6.678   0.941  25.608  0.00  0.00    +0.214 A 
ATOM     16  C   UNL     1       5.730   0.116  26.431  0.00  0.00    +0.238 A 
ATOM     17  O   UNL     1       5.562  -1.077  26.210  0.00  0.00    -0.283 OA
ATOM     18  C   UNL     1       4.986   0.786  27.507  0.00  0.00    +0.109 A 
ATOM     19  C   UNL     1       5.076   2.169  27.589  0.00  0.00    +0.147 A 
ATOM     20  C   UNL     1       4.387   2.860  28.591  0.00  0.00    +0.092 A 
ATOM     21  C   UNL     1       3.605   2.150  29.496  0.00  0.00    +0.124 A 
ATOM     22  C   UNL     1       3.503   0.768  29.425  0.00  0.00    +0.091 A 
ATOM     23  O   UNL     1       5.804   2.918  26.708  0.00  0.00    -0.451 OA
ATOM     24  C   UNL     1       4.202   0.085  28.435  0.00  0.00    +0.135 A 
ATOM     25  C   UNL     1       6.609   2.285  25.764  0.00  0.00    +0.181 A 
BRANCH  25  26
ATOM     26  C   UNL     1       7.343   3.277  24.925  0.00  0.00    +0.025 A 
ATOM     27  C   UNL     1       8.386   4.054  25.470  0.00  0.00    +0.015 A 
ATOM     28  C   UNL     1       9.008   5.076  24.733  0.00  0.00    +0.050 A 
ATOM     29  C   UNL     1       8.611   5.310  23.430  0.00  0.00    +0.158 A 
ATOM     30  C   UNL     1       7.612   4.536  22.861  0.00  0.00    +0.159 A 
ATOM     31  C   UNL     1       6.955   3.551  23.599  0.00  0.00    +0.060 A 
BRANCH  29  32
ATOM     32  O   UNL     1       9.207   6.300  22.708  0.00  0.00    -0.503 OA
ATOM     33  H   UNL     1       9.246   7.060  23.324  0.00  0.00    +0.292 HD
ENDBRANCH  29  32
BRANCH  30  34
ATOM     34  O   UNL     1       7.302   4.737  21.543  0.00  0.00    -0.503 OA
ATOM     35  H   UNL     1       7.767   4.020  21.052  0.00  0.00    +0.292 HD
ENDBRANCH  30  34
ENDBRANCH  25  26
BRANCH  24  36
ATOM     36  O   UNL     1       4.112  -1.277  28.390  0.00  0.00    -0.506 OA
ATOM     37  H   UNL     1       4.729  -1.643  27.735  0.00  0.00    +0.292 HD
ENDBRANCH  24  36
BRANCH  21  38
ATOM     38  O   UNL     1       2.903   2.776  30.483  0.00  0.00    -0.507 OA
ATOM     39  H   UNL     1       2.024   2.370  30.559  0.00  0.00    +0.292 HD
ENDBRANCH  21  38
ENDBRANCH  14  15
ENDBRANCH   2  14
BRANCH   1  40
ATOM     40  O   UNL     1       6.715  -2.666  22.813  0.00  0.00    -0.337 OA
BRANCH  40  44
ATOM     41  C   UNL     1       5.706  -4.940  26.166  0.00  0.00    +0.041 C 
ATOM     42  C   UNL     1       6.195  -5.616  24.877  0.00  0.00    +0.149 C 
ATOM     43  O   UNL     1       6.867  -4.667  24.025  0.00  0.00    -0.343 OA
ATOM     44  C   UNL     1       5.969  -3.713  23.436  0.00  0.00    +0.282 C 
ATOM     45  C   UNL     1       4.978  -4.458  22.515  0.00  0.00    +0.201 C 
ATOM     46  C   UNL     1       4.151  -5.401  23.387  0.00  0.00    +0.179 C 
ATOM     47  C   UNL     1       5.071  -6.375  24.140  0.00  0.00    +0.174 C 
BRANCH  47  48
ATOM     48  O   UNL     1       4.325  -7.169  25.072  0.00  0.00    -0.387 OA
ATOM     49  H   UNL     1       4.954  -7.507  25.735  0.00  0.00    +0.210 HD
ENDBRANCH  47  48
BRANCH  46  50
ATOM     50  O   UNL     1       3.224  -6.137  22.576  0.00  0.00    -0.386 OA
ATOM     51  H   UNL     1       2.339  -5.891  22.917  0.00  0.00    +0.210 HD
ENDBRANCH  46  50
BRANCH  45  52
ATOM     52  O   UNL     1       5.645  -5.263  21.525  0.00  0.00    -0.384 OA
ATOM     53  H   UNL     1       6.328  -4.693  21.115  0.00  0.00    +0.210 HD
ENDBRANCH  45  52
ENDBRANCH  40  44
ENDBRANCH   1  40
TORSDOF 16
ENDMDL
MODEL 8
REMARK VINA RESULT:      -7.0      2.038      6.519
REMARK  Name = 
REMARK  17 active torsions:
REMARK  status: ('A' for Active; 'I' for Inactive)
REMARK    1  A    between atoms: C_1  and  C_2
REMARK    2  A    between atoms: C_3  and  O_43
REMARK    3  A    between atoms: C_4  and  O_42
REMARK    4  A    between atoms: C_5  and  O_41
REMARK    5  A    between atoms: C_6  and  O_8
REMARK    6  A    between atoms: O_8  and  C_9
REMARK    7  A    between atoms: C_10  and  O_40
REMARK    8  A    between atoms: C_11  and  O_39
REMARK    9  A    between atoms: C_12  and  C_37
REMARK   10  A    between atoms: C_14  and  O_15
REMARK   11  A    between atoms: O_15  and  C_16
REMARK   12  A    between atoms: C_17  and  C_29
REMARK   13  A    between atoms: C_21  and  O_28
REMARK   14  A    between atoms: C_23  and  O_27
REMARK   15  A    between atoms: C_31  and  O_36
REMARK   16  A    between atoms: C_32  and  O_35
REMARK   17  A    between atoms: C_37  and  O_38
REMARK                            x       y       z     vdW  Elec       q    Type
REMARK                         _______ _______ _______ _____ _____    ______ ____
ROOT
ATOM      1  C   UNL     1       6.367  -0.387  26.059  0.00  0.00    +0.221 C 
ATOM      2  C   UNL     1       5.141  -1.344  26.075  0.00  0.00    +0.340 C 
ATOM      3  O   UNL     1       3.965  -0.710  26.631  0.00  0.00    -0.331 OA
ATOM      4  C   UNL     1       4.091  -0.054  27.897  0.00  0.00    +0.179 C 
ATOM      5  C   UNL     1       5.290   0.901  27.942  0.00  0.00    +0.177 C 
ATOM      6  C   UNL     1       6.556   0.197  27.467  0.00  0.00    +0.180 C 
ENDROOT
BRANCH   6   7
ATOM      7  O   UNL     1       7.691   1.069  27.568  0.00  0.00    -0.386 OA
ATOM      8  H   UNL     1       8.156   0.859  28.403  0.00  0.00    +0.210 HD
ENDBRANCH   6   7
BRANCH   5   9
ATOM      9  O   UNL     1       5.496   1.455  29.247  0.00  0.00    -0.386 OA
ATOM     10  H   UNL     1       6.281   1.037  29.650  0.00  0.00    +0.210 HD
ENDBRANCH   5   9
BRANCH   4  11
ATOM     11  C   UNL     1       4.027  -1.047  29.076  0.00  0.00    +0.190 C 
BRANCH  11  12
ATOM     12  O   UNL     1       2.955  -1.983  28.904  0.00  0.00    -0.392 OA
ATOM     13  H   UNL     1       2.164  -1.453  28.690  0.00  0.00    +0.210 HD
ENDBRANCH  11  12
ENDBRANCH   4  11
BRANCH   2  14
ATOM     14  O   UNL     1       5.447  -2.551  26.793  0.00  0.00    -0.453 OA
BRANCH  14  15
ATOM     15  C   UNL     1       5.032  -3.779  26.277  0.00  0.00    +0.214 A 
ATOM     16  C   UNL     1       4.075  -4.670  27.018  0.00  0.00    +0.238 A 
ATOM     17  O   UNL     1       3.795  -4.471  28.194  0.00  0.00    -0.283 OA
ATOM     18  C   UNL     1       3.494  -5.811  26.296  0.00  0.00    +0.109 A 
ATOM     19  C   UNL     1       3.989  -6.095  25.031  0.00  0.00    +0.147 A 
ATOM     20  C   UNL     1       3.475  -7.169  24.299  0.00  0.00    +0.092 A 
ATOM     21  C   UNL     1       2.470  -7.956  24.855  0.00  0.00    +0.124 A 
ATOM     22  C   UNL     1       1.967  -7.686  26.120  0.00  0.00    +0.091 A 
ATOM     23  O   UNL     1       4.995  -5.375  24.451  0.00  0.00    -0.451 OA
ATOM     24  C   UNL     1       2.473  -6.607  26.837  0.00  0.00    +0.135 A 
ATOM     25  C   UNL     1       5.466  -4.221  25.073  0.00  0.00    +0.181 A 
BRANCH  25  26
ATOM     26  C   UNL     1       6.537  -3.568  24.263  0.00  0.00    +0.025 A 
ATOM     27  C   UNL     1       6.223  -2.876  23.074  0.00  0.00    +0.015 A 
ATOM     28  C   UNL     1       7.225  -2.357  22.237  0.00  0.00    +0.050 A 
ATOM     29  C   UNL     1       8.552  -2.503  22.596  0.00  0.00    +0.158 A 
ATOM     30  C   UNL     1       8.883  -3.148  23.777  0.00  0.00    +0.159 A 
ATOM     31  C   UNL     1       7.899  -3.708  24.592  0.00  0.00    +0.060 A 
BRANCH  29  32
ATOM     32  O   UNL     1       9.531  -2.006  21.789  0.00  0.00    -0.503 OA
ATOM     33  H   UNL     1      10.325  -1.971  22.362  0.00  0.00    +0.292 HD
ENDBRANCH  29  32
BRANCH  30  34
ATOM     34  O   UNL     1      10.201  -3.200  24.145  0.00  0.00    -0.503 OA
ATOM     35  H   UNL     1      10.232  -2.833  25.059  0.00  0.00    +0.292 HD
ENDBRANCH  30  34
ENDBRANCH  25  26
BRANCH  24  36
ATOM     36  O   UNL     1       1.953  -6.338  28.071  0.00  0.00    -0.506 OA
ATOM     37  H   UNL     1       2.305  -6.952  28.736  0.00  0.00    +0.292 HD
ENDBRANCH  24  36
BRANCH  21  38
ATOM     38  O   UNL     1       1.944  -9.023  24.190  0.00  0.00    -0.507 OA
ATOM     39  H   UNL     1       2.565  -9.310  23.501  0.00  0.00    +0.292 HD
ENDBRANCH  21  38
ENDBRANCH  14  15
ENDBRANCH   2  14
BRANCH   1  40
ATOM     40  O   UNL     1       6.194   0.586  25.004  0.00  0.00    -0.337 OA
BRANCH  40  44
ATOM     41  C   UNL     1      10.332   0.993  24.632  0.00  0.00    +0.041 C 
ATOM     42  C   UNL     1       9.391   2.138  24.231  0.00  0.00    +0.149 C 
ATOM     43  O   UNL     1       8.086   1.957  24.815  0.00  0.00    -0.343 OA
ATOM     44  C   UNL     1       7.358   0.868  24.226  0.00  0.00    +0.282 C 
ATOM     45  C   UNL     1       7.097   1.186  22.737  0.00  0.00    +0.201 C 
ATOM     46  C   UNL     1       8.452   1.276  22.036  0.00  0.00    +0.179 C 
ATOM     47  C   UNL     1       9.327   2.348  22.704  0.00  0.00    +0.174 C 
BRANCH  47  48
ATOM     48  O   UNL     1      10.651   2.345  22.154  0.00  0.00    -0.387 OA
ATOM     49  H   UNL     1      11.138   1.610  22.570  0.00  0.00    +0.210 HD
ENDBRANCH  47  48
BRANCH  46  50
ATOM     50  O   UNL     1       8.270   1.591  20.649  0.00  0.00    -0.386 OA
ATOM     51  H   UNL     1       9.103   2.031  20.378  0.00  0.00    +0.210 HD
ENDBRANCH  46  50
BRANCH  45  52
ATOM     52  O   UNL     1       6.434   2.450  22.552  0.00  0.00    -0.384 OA
ATOM     53  H   UNL     1       6.811   3.064  23.216  0.00  0.00    +0.210 HD
ENDBRANCH  45  52
ENDBRANCH  40  44
ENDBRANCH   1  40
TORSDOF 16
ENDMDL
MODEL 9
REMARK VINA RESULT:      -6.9      2.353      4.528
REMARK  Name = 
REMARK  17 active torsions:
REMARK  status: ('A' for Active; 'I' for Inactive)
REMARK    1  A    between atoms: C_1  and  C_2
REMARK    2  A    between atoms: C_3  and  O_43
REMARK    3  A    between atoms: C_4  and  O_42
REMARK    4  A    between atoms: C_5  and  O_41
REMARK    5  A    between atoms: C_6  and  O_8
REMARK    6  A    between atoms: O_8  and  C_9
REMARK    7  A    between atoms: C_10  and  O_40
REMARK    8  A    between atoms: C_11  and  O_39
REMARK    9  A    between atoms: C_12  and  C_37
REMARK   10  A    between atoms: C_14  and  O_15
REMARK   11  A    between atoms: O_15  and  C_16
REMARK   12  A    between atoms: C_17  and  C_29
REMARK   13  A    between atoms: C_21  and  O_28
REMARK   14  A    between atoms: C_23  and  O_27
REMARK   15  A    between atoms: C_31  and  O_36
REMARK   16  A    between atoms: C_32  and  O_35
REMARK   17  A    between atoms: C_37  and  O_38
REMARK                            x       y       z     vdW  Elec       q    Type
REMARK                         _______ _______ _______ _____ _____    ______ ____
ROOT
ATOM      1  C   UNL     1       8.430   0.581  24.430  0.00  0.00    +0.221 C 
ATOM      2  C   UNL     1       8.948  -0.549  25.366  0.00  0.00    +0.340 C 
ATOM      3  O   UNL     1      10.105  -1.222  24.815  0.00  0.00    -0.331 OA
ATOM      4  C   UNL     1      10.027  -1.698  23.468  0.00  0.00    +0.179 C 
ATOM      5  C   UNL     1       9.516  -0.625  22.498  0.00  0.00    +0.177 C 
ATOM      6  C   UNL     1       8.229   0.002  23.021  0.00  0.00    +0.180 C 
ENDROOT
BRANCH   6   7
ATOM      7  O   UNL     1       7.715   0.962  22.086  0.00  0.00    -0.386 OA
ATOM      8  H   UNL     1       7.565   1.799  22.572  0.00  0.00    +0.210 HD
ENDBRANCH   6   7
BRANCH   5   9
ATOM      9  O   UNL     1       9.311  -1.139  21.177  0.00  0.00    -0.386 OA
ATOM     10  H   UNL     1       9.771  -1.996  21.094  0.00  0.00    +0.210 HD
ENDBRANCH   5   9
BRANCH   4  11
ATOM     11  C   UNL     1       9.285  -3.047  23.370  0.00  0.00    +0.190 C 
BRANCH  11  12
ATOM     12  O   UNL     1       9.636  -3.910  24.458  0.00  0.00    -0.392 OA
ATOM     13  H   UNL     1       8.823  -4.397  24.692  0.00  0.00    +0.210 HD
ENDBRANCH  11  12
ENDBRANCH   4  11
BRANCH   2  14
ATOM     14  O   UNL     1       7.903  -1.497  25.645  0.00  0.00    -0.453 OA
BRANCH  14  15
ATOM     15  C   UNL     1       6.687  -1.044  26.157  0.00  0.00    +0.214 A 
ATOM     16  C   UNL     1       6.619   0.007  27.229  0.00  0.00    +0.238 A 
ATOM     17  O   UNL     1       7.615   0.347  27.857  0.00  0.00    -0.283 OA
ATOM     18  C   UNL     1       5.311   0.609  27.525  0.00  0.00    +0.109 A 
ATOM     19  C   UNL     1       4.193   0.054  26.917  0.00  0.00    +0.147 A 
ATOM     20  C   UNL     1       2.923   0.584  27.163  0.00  0.00    +0.092 A 
ATOM     21  C   UNL     1       2.790   1.665  28.029  0.00  0.00    +0.124 A 
ATOM     22  C   UNL     1       3.898   2.229  28.646  0.00  0.00    +0.091 A 
ATOM     23  O   UNL     1       4.263  -1.026  26.083  0.00  0.00    -0.451 OA
ATOM     24  C   UNL     1       5.160   1.706  28.386  0.00  0.00    +0.135 A 
ATOM     25  C   UNL     1       5.506  -1.525  25.701  0.00  0.00    +0.181 A 
BRANCH  25  26
ATOM     26  C   UNL     1       5.362  -2.679  24.766  0.00  0.00    +0.025 A 
ATOM     27  C   UNL     1       5.136  -3.983  25.256  0.00  0.00    +0.015 A 
ATOM     28  C   UNL     1       5.117  -5.098  24.402  0.00  0.00    +0.050 A 
ATOM     29  C   UNL     1       5.296  -4.916  23.043  0.00  0.00    +0.158 A 
ATOM     30  C   UNL     1       5.484  -3.640  22.535  0.00  0.00    +0.159 A 
ATOM     31  C   UNL     1       5.553  -2.531  23.379  0.00  0.00    +0.060 A 
BRANCH  29  32
ATOM     32  O   UNL     1       5.282  -5.992  22.208  0.00  0.00    -0.503 OA
ATOM     33  H   UNL     1       4.678  -6.629  22.642  0.00  0.00    +0.292 HD
ENDBRANCH  29  32
BRANCH  30  34
ATOM     34  O   UNL     1       5.573  -3.486  21.177  0.00  0.00    -0.503 OA
ATOM     35  H   UNL     1       6.479  -3.137  21.012  0.00  0.00    +0.292 HD
ENDBRANCH  30  34
ENDBRANCH  25  26
BRANCH  24  36
ATOM     36  O   UNL     1       6.245   2.284  28.982  0.00  0.00    -0.506 OA
ATOM     37  H   UNL     1       7.063   2.051  28.513  0.00  0.00    +0.292 HD
ENDBRANCH  24  36
BRANCH  21  38
ATOM     38  O   UNL     1       1.574   2.210  28.314  0.00  0.00    -0.507 OA
ATOM     39  H   UNL     1       1.267   2.728  27.552  0.00  0.00    +0.292 HD
ENDBRANCH  21  38
ENDBRANCH  14  15
ENDBRANCH   2  14
BRANCH   1  40
ATOM     40  O   UNL     1       9.329   1.710  24.512  0.00  0.00    -0.337 OA
BRANCH  40  44
ATOM     41  C   UNL     1       6.804   4.468  26.369  0.00  0.00    +0.041 C 
ATOM     42  C   UNL     1       6.588   4.069  24.903  0.00  0.00    +0.149 C 
ATOM     43  O   UNL     1       7.277   2.840  24.600  0.00  0.00    -0.343 OA
ATOM     44  C   UNL     1       8.704   2.994  24.568  0.00  0.00    +0.282 C 
ATOM     45  C   UNL     1       9.080   3.964  23.427  0.00  0.00    +0.201 C 
ATOM     46  C   UNL     1       8.470   5.326  23.754  0.00  0.00    +0.179 C 
ATOM     47  C   UNL     1       6.947   5.202  23.919  0.00  0.00    +0.174 C 
BRANCH  47  48
ATOM     48  O   UNL     1       6.378   6.439  24.368  0.00  0.00    -0.387 OA
ATOM     49  H   UNL     1       7.082   7.111  24.339  0.00  0.00    +0.210 HD
ENDBRANCH  47  48
BRANCH  46  50
ATOM     50  O   UNL     1       8.771   6.265  22.711  0.00  0.00    -0.386 OA
ATOM     51  H   UNL     1       8.532   7.140  23.082  0.00  0.00    +0.210 HD
ENDBRANCH  46  50
BRANCH  45  52
ATOM     52  O   UNL     1       8.548   3.550  22.155  0.00  0.00    -0.384 OA
ATOM     53  H   UNL     1       8.648   2.576  22.114  0.00  0.00    +0.210 HD
ENDBRANCH  45  52
ENDBRANCH  40  44
ENDBRANCH   1  40
TORSDOF 16
ENDMDL
