MODEL 1
REMARK VINA RESULT:      -7.2      0.000      0.000
REMARK  Name = 
REMARK  16 active torsions:
REMARK  status: ('A' for Active; 'I' for Inactive)
REMARK    1  A    between atoms: C_2  and  O_47
REMARK    2  A    between atoms: C_4  and  O_46
REMARK    3  A    between atoms: C_5  and  O_45
REMARK    4  A    between atoms: C_7  and  O_10
REMARK    5  A    between atoms: O_10  and  C_11
REMARK    6  A    between atoms: C_12  and  O_23
REMARK    7  A    between atoms: C_15  and  C_21
REMARK    8  A    between atoms: C_16  and  O_20
REMARK    9  A    between atoms: C_18  and  O_19
REMARK   10  A    between atoms: C_21  and  O_22
REMARK   11  A    between atoms: O_23  and  C_24
REMARK   12  A    between atoms: C_25  and  C_37
REMARK   13  A    between atoms: C_29  and  O_36
REMARK   14  A    between atoms: C_31  and  O_35
REMARK   15  A    between atoms: C_39  and  O_44
REMARK   16  A    between atoms: C_40  and  O_43
REMARK                            x       y       z     vdW  Elec       q    Type
REMARK                         _______ _______ _______ _____ _____    ______ ____
ROOT
ATOM      1  C   UNL     1       6.897  -2.453  25.442  0.00  0.00    +0.221 C 
ATOM      2  C   UNL     1       6.697  -3.391  24.234  0.00  0.00    +0.180 C 
ATOM      3  C   UNL     1       8.019  -3.944  23.686  0.00  0.00    +0.177 C 
ATOM      4  C   UNL     1       9.048  -2.839  23.435  0.00  0.00    +0.179 C 
ATOM      5  O   UNL     1       9.171  -2.022  24.601  0.00  0.00    -0.331 OA
ATOM      6  C   UNL     1       7.986  -1.407  25.102  0.00  0.00    +0.340 C 
ENDROOT
BRANCH   3   7
ATOM      7  O   UNL     1       8.576  -4.873  24.630  0.00  0.00    -0.386 OA
ATOM      8  H   UNL     1       8.422  -5.776  24.284  0.00  0.00    +0.210 HD
ENDBRANCH   3   7
BRANCH   2   9
ATOM      9  O   UNL     1       5.978  -2.721  23.183  0.00  0.00    -0.386 OA
ATOM     10  H   UNL     1       5.417  -3.358  22.701  0.00  0.00    +0.210 HD
ENDBRANCH   2   9
BRANCH   6  11
ATOM     11  O   UNL     1       7.472  -0.351  24.281  0.00  0.00    -0.453 OA
BRANCH  11  12
ATOM     12  C   UNL     1       7.868   0.946  24.642  0.00  0.00    +0.214 A 
ATOM     13  C   UNL     1       9.056   1.630  24.008  0.00  0.00    +0.238 A 
ATOM     14  O   UNL     1       9.912   1.021  23.381  0.00  0.00    -0.283 OA
ATOM     15  C   UNL     1       9.234   3.064  24.229  0.00  0.00    +0.109 A 
ATOM     16  C   UNL     1       8.419   3.657  25.179  0.00  0.00    +0.147 A 
ATOM     17  C   UNL     1       8.549   5.032  25.437  0.00  0.00    +0.092 A 
ATOM     18  C   UNL     1       9.510   5.774  24.752  0.00  0.00    +0.124 A 
ATOM     19  C   UNL     1      10.348   5.176  23.821  0.00  0.00    +0.091 A 
ATOM     20  O   UNL     1       7.516   2.969  25.925  0.00  0.00    -0.451 OA
ATOM     21  C   UNL     1      10.208   3.820  23.556  0.00  0.00    +0.135 A 
ATOM     22  C   UNL     1       7.232   1.635  25.617  0.00  0.00    +0.181 A 
BRANCH  22  23
ATOM     23  C   UNL     1       6.194   1.073  26.542  0.00  0.00    +0.025 A 
ATOM     24  C   UNL     1       6.533   0.831  27.891  0.00  0.00    +0.015 A 
ATOM     25  C   UNL     1       5.670   0.152  28.759  0.00  0.00    +0.050 A 
ATOM     26  C   UNL     1       4.442  -0.283  28.291  0.00  0.00    +0.158 A 
ATOM     27  C   UNL     1       4.068  -0.039  26.976  0.00  0.00    +0.159 A 
ATOM     28  C   UNL     1       4.932   0.625  26.104  0.00  0.00    +0.060 A 
BRANCH  27  29
ATOM     29  O   UNL     1       2.841  -0.496  26.576  0.00  0.00    -0.503 OA
ATOM     30  H   UNL     1       2.152   0.089  26.939  0.00  0.00    +0.292 HD
ENDBRANCH  27  29
BRANCH  26  31
ATOM     31  O   UNL     1       3.614  -0.971  29.128  0.00  0.00    -0.503 OA
ATOM     32  H   UNL     1       2.797  -0.434  29.165  0.00  0.00    +0.292 HD
ENDBRANCH  26  31
ENDBRANCH  22  23
BRANCH  21  33
ATOM     33  O   UNL     1      11.037   3.243  22.636  0.00  0.00    -0.506 OA
ATOM     34  H   UNL     1      11.063   3.765  21.817  0.00  0.00    +0.292 HD
ENDBRANCH  21  33
BRANCH  18  35
ATOM     35  O   UNL     1       9.683   7.107  24.974  0.00  0.00    -0.507 OA
ATOM     36  H   UNL     1       8.823   7.556  24.953  0.00  0.00    +0.292 HD
ENDBRANCH  18  35
ENDBRANCH  11  12
ENDBRANCH   6  11
BRANCH   4  37
ATOM     37  C   UNL     1       8.830  -1.994  22.172  0.00  0.00    +0.190 C 
BRANCH  37  38
ATOM     38  O   UNL     1      10.088  -1.538  21.663  0.00  0.00    -0.392 OA
ATOM     39  H   UNL     1      10.782  -2.012  22.162  0.00  0.00    +0.210 HD
ENDBRANCH  37  38
ENDBRANCH   4  37
BRANCH   1  40
ATOM     40  O   UNL     1       7.191  -3.190  26.660  0.00  0.00    -0.337 OA
BRANCH  40  43
ATOM     41  C   UNL     1       4.013  -4.350  27.997  0.00  0.00    +0.197 C 
ATOM     42  O   UNL     1       5.178  -3.505  27.880  0.00  0.00    -0.346 OA
ATOM     43  C   UNL     1       6.176  -4.138  27.059  0.00  0.00    +0.282 C 
ATOM     44  C   UNL     1       6.719  -5.393  27.794  0.00  0.00    +0.201 C 
ATOM     45  C   UNL     1       5.536  -6.337  28.071  0.00  0.00    +0.178 C 
ATOM     46  C   UNL     1       4.385  -5.615  28.771  0.00  0.00    +0.171 C 
BRANCH  46  47
ATOM     47  O   UNL     1       4.817  -5.266  30.095  0.00  0.00    -0.387 OA
ATOM     48  H   UNL     1       5.627  -4.725  30.001  0.00  0.00    +0.210 HD
ENDBRANCH  46  47
BRANCH  45  49
ATOM     49  O   UNL     1       5.983  -7.458  28.841  0.00  0.00    -0.386 OA
ATOM     50  H   UNL     1       5.288  -7.619  29.512  0.00  0.00    +0.210 HD
ENDBRANCH  45  49
BRANCH  44  51
ATOM     51  O   UNL     1       7.708  -6.108  27.033  0.00  0.00    -0.384 OA
ATOM     52  H   UNL     1       7.770  -7.013  27.386  0.00  0.00    +0.210 HD
ENDBRANCH  44  51
ENDBRANCH  40  43
ENDBRANCH   1  40
TORSDOF 16
ENDMDL
MODEL 2
REMARK VINA RESULT:      -7.2      2.228      6.951
REMARK  Name = 
REMARK  16 active torsions:
REMARK  status: ('A' for Active; 'I' for Inactive)
REMARK    1  A    between atoms: C_2  and  O_47
REMARK    2  A    between atoms: C_4  and  O_46
REMARK    3  A    between atoms: C_5  and  O_45
REMARK    4  A    between atoms: C_7  and  O_10
REMARK    5  A    between atoms: O_10  and  C_11
REMARK    6  A    between atoms: C_12  and  O_23
REMARK    7  A    between atoms: C_15  and  C_21
REMARK    8  A    between atoms: C_16  and  O_20
REMARK    9  A    between atoms: C_18  and  O_19
REMARK   10  A    between atoms: C_21  and  O_22
REMARK   11  A    between atoms: O_23  and  C_24
REMARK   12  A    between atoms: C_25  and  C_37
REMARK   13  A    between atoms: C_29  and  O_36
REMARK   14  A    between atoms: C_31  and  O_35
REMARK   15  A    between atoms: C_39  and  O_44
REMARK   16  A    between atoms: C_40  and  O_43
REMARK                            x       y       z     vdW  Elec       q    Type
REMARK                         _______ _______ _______ _____ _____    ______ ____
ROOT
ATOM      1  C   UNL     1       9.383  -0.669  24.151  0.00  0.00    +0.221 C 
ATOM      2  C   UNL     1      10.101  -1.749  23.316  0.00  0.00    +0.180 C 
ATOM      3  C   UNL     1       9.444  -1.978  21.949  0.00  0.00    +0.177 C 
ATOM      4  C   UNL     1       7.934  -2.201  22.065  0.00  0.00    +0.179 C 
ATOM      5  O   UNL     1       7.352  -1.158  22.848  0.00  0.00    -0.331 OA
ATOM      6  C   UNL     1       7.864  -0.960  24.165  0.00  0.00    +0.340 C 
ENDROOT
BRANCH   3   7
ATOM      7  O   UNL     1       9.667  -0.831  21.113  0.00  0.00    -0.386 OA
ATOM      8  H   UNL     1      10.591  -0.540  21.251  0.00  0.00    +0.210 HD
ENDBRANCH   3   7
BRANCH   2   9
ATOM      9  O   UNL     1      10.166  -2.991  24.038  0.00  0.00    -0.386 OA
ATOM     10  H   UNL     1       9.522  -3.627  23.672  0.00  0.00    +0.210 HD
ENDBRANCH   2   9
BRANCH   6  11
ATOM     11  O   UNL     1       7.529  -1.998  25.095  0.00  0.00    -0.453 OA
BRANCH  11  12
ATOM     12  C   UNL     1       6.688  -1.618  26.152  0.00  0.00    +0.214 A 
ATOM     13  C   UNL     1       7.024  -0.468  27.073  0.00  0.00    +0.238 A 
ATOM     14  O   UNL     1       8.150   0.004  27.157  0.00  0.00    -0.283 OA
ATOM     15  C   UNL     1       5.981   0.039  27.962  0.00  0.00    +0.109 A 
ATOM     16  C   UNL     1       4.817  -0.705  28.051  0.00  0.00    +0.147 A 
ATOM     17  C   UNL     1       3.781  -0.268  28.895  0.00  0.00    +0.092 A 
ATOM     18  C   UNL     1       3.948   0.895  29.645  0.00  0.00    +0.124 A 
ATOM     19  C   UNL     1       5.126   1.627  29.579  0.00  0.00    +0.091 A 
ATOM     20  O   UNL     1       4.629  -1.881  27.398  0.00  0.00    -0.451 OA
ATOM     21  C   UNL     1       6.142   1.202  28.734  0.00  0.00    +0.135 A 
ATOM     22  C   UNL     1       5.552  -2.296  26.433  0.00  0.00    +0.181 A 
BRANCH  22  23
ATOM     23  C   UNL     1       5.145  -3.602  25.817  0.00  0.00    +0.025 A 
ATOM     24  C   UNL     1       5.514  -4.807  26.453  0.00  0.00    +0.015 A 
ATOM     25  C   UNL     1       5.316  -6.052  25.845  0.00  0.00    +0.050 A 
ATOM     26  C   UNL     1       4.729  -6.110  24.593  0.00  0.00    +0.158 A 
ATOM     27  C   UNL     1       4.331  -4.945  23.952  0.00  0.00    +0.159 A 
ATOM     28  C   UNL     1       4.541  -3.700  24.549  0.00  0.00    +0.060 A 
BRANCH  27  29
ATOM     29  O   UNL     1       3.758  -5.071  22.716  0.00  0.00    -0.503 OA
ATOM     30  H   UNL     1       3.922  -5.970  22.381  0.00  0.00    +0.292 HD
ENDBRANCH  27  29
BRANCH  26  31
ATOM     31  O   UNL     1       4.564  -7.321  23.989  0.00  0.00    -0.503 OA
ATOM     32  H   UNL     1       5.473  -7.640  23.819  0.00  0.00    +0.292 HD
ENDBRANCH  26  31
ENDBRANCH  22  23
BRANCH  21  33
ATOM     33  O   UNL     1       7.295   1.932  28.676  0.00  0.00    -0.506 OA
ATOM     34  H   UNL     1       7.254   2.589  27.962  0.00  0.00    +0.292 HD
ENDBRANCH  21  33
BRANCH  18  35
ATOM     35  O   UNL     1       2.980   1.355  30.484  0.00  0.00    -0.507 OA
ATOM     36  H   UNL     1       2.472   0.608  30.839  0.00  0.00    +0.292 HD
ENDBRANCH  18  35
ENDBRANCH  11  12
ENDBRANCH   6  11
BRANCH   4  37
ATOM     37  C   UNL     1       7.497  -3.590  22.554  0.00  0.00    +0.190 C 
BRANCH  37  38
ATOM     38  O   UNL     1       6.564  -4.164  21.632  0.00  0.00    -0.392 OA
ATOM     39  H   UNL     1       5.691  -3.775  21.836  0.00  0.00    +0.210 HD
ENDBRANCH  37  38
ENDBRANCH   4  37
BRANCH   1  40
ATOM     40  O   UNL     1       9.691   0.674  23.684  0.00  0.00    -0.337 OA
BRANCH  40  43
ATOM     41  C   UNL     1       7.238   2.464  21.682  0.00  0.00    +0.197 C 
ATOM     42  O   UNL     1       8.531   1.930  22.035  0.00  0.00    -0.346 OA
ATOM     43  C   UNL     1       8.539   1.501  23.409  0.00  0.00    +0.282 C 
ATOM     44  C   UNL     1       8.404   2.744  24.330  0.00  0.00    +0.201 C 
ATOM     45  C   UNL     1       7.094   3.468  23.973  0.00  0.00    +0.178 C 
ATOM     46  C   UNL     1       6.991   3.749  22.474  0.00  0.00    +0.171 C 
BRANCH  46  47
ATOM     47  O   UNL     1       7.986   4.728  22.135  0.00  0.00    -0.387 OA
ATOM     48  H   UNL     1       8.347   5.076  22.975  0.00  0.00    +0.210 HD
ENDBRANCH  46  47
BRANCH  45  49
ATOM     49  O   UNL     1       6.988   4.676  24.731  0.00  0.00    -0.386 OA
ATOM     50  H   UNL     1       7.638   4.597  25.459  0.00  0.00    +0.210 HD
ENDBRANCH  45  49
BRANCH  44  51
ATOM     51  O   UNL     1       8.376   2.408  25.728  0.00  0.00    -0.384 OA
ATOM     52  H   UNL     1       7.660   1.764  25.874  0.00  0.00    +0.210 HD
ENDBRANCH  44  51
ENDBRANCH  40  43
ENDBRANCH   1  40
TORSDOF 16
ENDMDL
MODEL 3
REMARK VINA RESULT:      -7.1      2.874      8.194
REMARK  Name = 
REMARK  16 active torsions:
REMARK  status: ('A' for Active; 'I' for Inactive)
REMARK    1  A    between atoms: C_2  and  O_47
REMARK    2  A    between atoms: C_4  and  O_46
REMARK    3  A    between atoms: C_5  and  O_45
REMARK    4  A    between atoms: C_7  and  O_10
REMARK    5  A    between atoms: O_10  and  C_11
REMARK    6  A    between atoms: C_12  and  O_23
REMARK    7  A    between atoms: C_15  and  C_21
REMARK    8  A    between atoms: C_16  and  O_20
REMARK    9  A    between atoms: C_18  and  O_19
REMARK   10  A    between atoms: C_21  and  O_22
REMARK   11  A    between atoms: O_23  and  C_24
REMARK   12  A    between atoms: C_25  and  C_37
REMARK   13  A    between atoms: C_29  and  O_36
REMARK   14  A    between atoms: C_31  and  O_35
REMARK   15  A    between atoms: C_39  and  O_44
REMARK   16  A    between atoms: C_40  and  O_43
REMARK                            x       y       z     vdW  Elec       q    Type
REMARK                         _______ _______ _______ _____ _____    ______ ____
ROOT
ATOM      1  C   UNL     1       7.657   1.231  23.377  0.00  0.00    +0.221 C 
ATOM      2  C   UNL     1       9.083   1.600  23.831  0.00  0.00    +0.180 C 
ATOM      3  C   UNL     1      10.150   1.243  22.789  0.00  0.00    +0.177 C 
ATOM      4  C   UNL     1      10.021  -0.203  22.303  0.00  0.00    +0.179 C 
ATOM      5  O   UNL     1       8.674  -0.457  21.900  0.00  0.00    -0.331 OA
ATOM      6  C   UNL     1       7.646  -0.229  22.862  0.00  0.00    +0.340 C 
ENDROOT
BRANCH   3   7
ATOM      7  O   UNL     1      10.020   2.114  21.654  0.00  0.00    -0.386 OA
ATOM      8  H   UNL     1       9.441   2.858  21.917  0.00  0.00    +0.210 HD
ENDBRANCH   3   7
BRANCH   2   9
ATOM      9  O   UNL     1       9.398   0.968  25.085  0.00  0.00    -0.386 OA
ATOM     10  H   UNL     1       9.154   1.552  25.827  0.00  0.00    +0.210 HD
ENDBRANCH   2   9
BRANCH   6  11
ATOM     11  O   UNL     1       7.621  -1.174  23.940  0.00  0.00    -0.453 OA
BRANCH  11  12
ATOM     12  C   UNL     1       6.390  -1.809  24.161  0.00  0.00    +0.214 A 
ATOM     13  C   UNL     1       5.878  -2.907  23.258  0.00  0.00    +0.238 A 
ATOM     14  O   UNL     1       6.330  -3.106  22.138  0.00  0.00    -0.283 OA
ATOM     15  C   UNL     1       4.737  -3.703  23.706  0.00  0.00    +0.109 A 
ATOM     16  C   UNL     1       4.069  -3.259  24.835  0.00  0.00    +0.147 A 
ATOM     17  C   UNL     1       2.961  -3.982  25.309  0.00  0.00    +0.092 A 
ATOM     18  C   UNL     1       2.537  -5.121  24.626  0.00  0.00    +0.124 A 
ATOM     19  C   UNL     1       3.187  -5.551  23.477  0.00  0.00    +0.091 A 
ATOM     20  O   UNL     1       4.395  -2.119  25.498  0.00  0.00    -0.451 OA
ATOM     21  C   UNL     1       4.291  -4.844  23.018  0.00  0.00    +0.135 A 
ATOM     22  C   UNL     1       5.571  -1.437  25.171  0.00  0.00    +0.181 A 
BRANCH  22  23
ATOM     23  C   UNL     1       5.754  -0.225  26.036  0.00  0.00    +0.025 A 
ATOM     24  C   UNL     1       5.101   0.976  25.685  0.00  0.00    +0.015 A 
ATOM     25  C   UNL     1       5.365   2.181  26.347  0.00  0.00    +0.050 A 
ATOM     26  C   UNL     1       6.280   2.197  27.386  0.00  0.00    +0.158 A 
ATOM     27  C   UNL     1       6.920   1.027  27.772  0.00  0.00    +0.159 A 
ATOM     28  C   UNL     1       6.670  -0.173  27.104  0.00  0.00    +0.060 A 
BRANCH  27  29
ATOM     29  O   UNL     1       7.814   1.111  28.806  0.00  0.00    -0.503 OA
ATOM     30  H   UNL     1       7.375   0.824  29.627  0.00  0.00    +0.292 HD
ENDBRANCH  27  29
BRANCH  26  31
ATOM     31  O   UNL     1       6.559   3.376  28.011  0.00  0.00    -0.503 OA
ATOM     32  H   UNL     1       5.690   3.813  28.116  0.00  0.00    +0.292 HD
ENDBRANCH  26  31
ENDBRANCH  22  23
BRANCH  21  33
ATOM     33  O   UNL     1       4.924  -5.278  21.888  0.00  0.00    -0.506 OA
ATOM     34  H   UNL     1       4.283  -5.613  21.239  0.00  0.00    +0.292 HD
ENDBRANCH  21  33
BRANCH  18  35
ATOM     35  O   UNL     1       1.463  -5.850  25.039  0.00  0.00    -0.507 OA
ATOM     36  H   UNL     1       1.387  -5.802  26.005  0.00  0.00    +0.292 HD
ENDBRANCH  18  35
ENDBRANCH  11  12
ENDBRANCH   6  11
BRANCH   4  37
ATOM     37  C   UNL     1      10.540  -1.282  23.264  0.00  0.00    +0.190 C 
BRANCH  37  38
ATOM     38  O   UNL     1      10.047  -2.568  22.870  0.00  0.00    -0.392 OA
ATOM     39  H   UNL     1       9.146  -2.649  23.238  0.00  0.00    +0.210 HD
ENDBRANCH  37  38
ENDBRANCH   4  37
BRANCH   1  40
ATOM     40  O   UNL     1       7.136   2.172  22.398  0.00  0.00    -0.337 OA
BRANCH  40  43
ATOM     41  C   UNL     1       4.615   4.524  23.558  0.00  0.00    +0.197 C 
ATOM     42  O   UNL     1       5.188   3.489  22.731  0.00  0.00    -0.346 OA
ATOM     43  C   UNL     1       6.607   3.396  22.953  0.00  0.00    +0.282 C 
ATOM     44  C   UNL     1       7.290   4.689  22.429  0.00  0.00    +0.201 C 
ATOM     45  C   UNL     1       6.680   5.890  23.173  0.00  0.00    +0.178 C 
ATOM     46  C   UNL     1       5.153   5.883  23.107  0.00  0.00    +0.171 C 
BRANCH  46  47
ATOM     47  O   UNL     1       4.764   6.134  21.748  0.00  0.00    -0.387 OA
ATOM     48  H   UNL     1       5.546   6.499  21.286  0.00  0.00    +0.210 HD
ENDBRANCH  46  47
BRANCH  45  49
ATOM     49  O   UNL     1       7.212   7.107  22.642  0.00  0.00    -0.386 OA
ATOM     50  H   UNL     1       6.567   7.807  22.872  0.00  0.00    +0.210 HD
ENDBRANCH  45  49
BRANCH  44  51
ATOM     51  O   UNL     1       8.713   4.697  22.635  0.00  0.00    -0.384 OA
ATOM     52  H   UNL     1       8.936   5.453  23.206  0.00  0.00    +0.210 HD
ENDBRANCH  44  51
ENDBRANCH  40  43
ENDBRANCH   1  40
TORSDOF 16
ENDMDL
MODEL 4
REMARK VINA RESULT:      -7.0      2.162      5.928
REMARK  Name = 
REMARK  16 active torsions:
REMARK  status: ('A' for Active; 'I' for Inactive)
REMARK    1  A    between atoms: C_2  and  O_47
REMARK    2  A    between atoms: C_4  and  O_46
REMARK    3  A    between atoms: C_5  and  O_45
REMARK    4  A    between atoms: C_7  and  O_10
REMARK    5  A    between atoms: O_10  and  C_11
REMARK    6  A    between atoms: C_12  and  O_23
REMARK    7  A    between atoms: C_15  and  C_21
REMARK    8  A    between atoms: C_16  and  O_20
REMARK    9  A    between atoms: C_18  and  O_19
REMARK   10  A    between atoms: C_21  and  O_22
REMARK   11  A    between atoms: O_23  and  C_24
REMARK   12  A    between atoms: C_25  and  C_37
REMARK   13  A    between atoms: C_29  and  O_36
REMARK   14  A    between atoms: C_31  and  O_35
REMARK   15  A    between atoms: C_39  and  O_44
REMARK   16  A    between atoms: C_40  and  O_43
REMARK                            x       y       z     vdW  Elec       q    Type
REMARK                         _______ _______ _______ _____ _____    ______ ____
ROOT
ATOM      1  C   UNL     1       8.804  -2.833  25.101  0.00  0.00    +0.221 C 
ATOM      2  C   UNL     1       9.215  -4.205  25.674  0.00  0.00    +0.180 C 
ATOM      3  C   UNL     1       8.448  -5.369  25.035  0.00  0.00    +0.177 C 
ATOM      4  C   UNL     1       6.935  -5.135  25.039  0.00  0.00    +0.179 C 
ATOM      5  O   UNL     1       6.645  -3.848  24.491  0.00  0.00    -0.331 OA
ATOM      6  C   UNL     1       7.261  -2.718  25.106  0.00  0.00    +0.340 C 
ENDROOT
BRANCH   3   7
ATOM      7  O   UNL     1       8.876  -5.533  23.673  0.00  0.00    -0.386 OA
ATOM      8  H   UNL     1       9.365  -6.379  23.616  0.00  0.00    +0.210 HD
ENDBRANCH   3   7
BRANCH   2   9
ATOM      9  O   UNL     1       9.039  -4.233  27.102  0.00  0.00    -0.386 OA
ATOM     10  H   UNL     1       8.217  -3.769  27.349  0.00  0.00    +0.210 HD
ENDBRANCH   2   9
BRANCH   6  11
ATOM     11  O   UNL     1       6.755  -2.401  26.409  0.00  0.00    -0.453 OA
BRANCH  11  12
ATOM     12  C   UNL     1       5.996  -1.224  26.496  0.00  0.00    +0.214 A 
ATOM     13  C   UNL     1       6.633   0.129  26.705  0.00  0.00    +0.238 A 
ATOM     14  O   UNL     1       7.782   0.264  27.105  0.00  0.00    -0.283 OA
ATOM     15  C   UNL     1       5.814   1.323  26.507  0.00  0.00    +0.109 A 
ATOM     16  C   UNL     1       4.453   1.129  26.346  0.00  0.00    +0.147 A 
ATOM     17  C   UNL     1       3.614   2.241  26.157  0.00  0.00    +0.092 A 
ATOM     18  C   UNL     1       4.161   3.523  26.154  0.00  0.00    +0.124 A 
ATOM     19  C   UNL     1       5.522   3.723  26.345  0.00  0.00    +0.091 A 
ATOM     20  O   UNL     1       3.859  -0.091  26.410  0.00  0.00    -0.451 OA
ATOM     21  C   UNL     1       6.350   2.622  26.517  0.00  0.00    +0.135 A 
ATOM     22  C   UNL     1       4.645  -1.246  26.446  0.00  0.00    +0.181 A 
BRANCH  22  23
ATOM     23  C   UNL     1       3.794  -2.481  26.488  0.00  0.00    +0.025 A 
ATOM     24  C   UNL     1       3.519  -3.085  27.734  0.00  0.00    +0.015 A 
ATOM     25  C   UNL     1       2.881  -4.328  27.828  0.00  0.00    +0.050 A 
ATOM     26  C   UNL     1       2.492  -4.979  26.670  0.00  0.00    +0.158 A 
ATOM     27  C   UNL     1       2.726  -4.400  25.430  0.00  0.00    +0.159 A 
ATOM     28  C   UNL     1       3.376  -3.168  25.332  0.00  0.00    +0.060 A 
BRANCH  27  29
ATOM     29  O   UNL     1       2.318  -5.096  24.323  0.00  0.00    -0.503 OA
ATOM     30  H   UNL     1       1.910  -4.476  23.693  0.00  0.00    +0.292 HD
ENDBRANCH  27  29
BRANCH  26  31
ATOM     31  O   UNL     1       1.898  -6.203  26.760  0.00  0.00    -0.503 OA
ATOM     32  H   UNL     1       2.238  -6.583  27.594  0.00  0.00    +0.292 HD
ENDBRANCH  26  31
ENDBRANCH  22  23
BRANCH  21  33
ATOM     33  O   UNL     1       7.688   2.831  26.701  0.00  0.00    -0.506 OA
ATOM     34  H   UNL     1       7.847   3.407  27.466  0.00  0.00    +0.292 HD
ENDBRANCH  21  33
BRANCH  18  35
ATOM     35  O   UNL     1       3.391   4.634  25.985  0.00  0.00    -0.507 OA
ATOM     36  H   UNL     1       2.732   4.472  25.292  0.00  0.00    +0.292 HD
ENDBRANCH  18  35
ENDBRANCH  11  12
ENDBRANCH   6  11
BRANCH   4  37
ATOM     37  C   UNL     1       6.227  -5.353  26.383  0.00  0.00    +0.190 C 
BRANCH  37  38
ATOM     38  O   UNL     1       7.009  -6.217  27.216  0.00  0.00    -0.392 OA
ATOM     39  H   UNL     1       7.588  -5.641  27.753  0.00  0.00    +0.210 HD
ENDBRANCH  37  38
ENDBRANCH   4  37
BRANCH   1  40
ATOM     40  O   UNL     1       9.378  -2.599  23.786  0.00  0.00    -0.337 OA
BRANCH  40  43
ATOM     41  C   UNL     1      10.811   0.606  24.739  0.00  0.00    +0.197 C 
ATOM     42  O   UNL     1       9.938  -0.540  24.829  0.00  0.00    -0.346 OA
ATOM     43  C   UNL     1       9.971  -1.294  23.604  0.00  0.00    +0.282 C 
ATOM     44  C   UNL     1       9.331  -0.448  22.468  0.00  0.00    +0.201 C 
ATOM     45  C   UNL     1      10.123   0.865  22.344  0.00  0.00    +0.178 C 
ATOM     46  C   UNL     1      10.262   1.575  23.690  0.00  0.00    +0.171 C 
BRANCH  46  47
ATOM     47  O   UNL     1       8.962   2.036  24.088  0.00  0.00    -0.387 OA
ATOM     48  H   UNL     1       8.643   1.431  24.788  0.00  0.00    +0.210 HD
ENDBRANCH  46  47
BRANCH  45  49
ATOM     49  O   UNL     1       9.498   1.715  21.377  0.00  0.00    -0.386 OA
ATOM     50  H   UNL     1      10.084   2.493  21.283  0.00  0.00    +0.210 HD
ENDBRANCH  45  49
BRANCH  44  51
ATOM     51  O   UNL     1       9.345  -1.115  21.194  0.00  0.00    -0.384 OA
ATOM     52  H   UNL     1       8.625  -0.749  20.650  0.00  0.00    +0.210 HD
ENDBRANCH  44  51
ENDBRANCH  40  43
ENDBRANCH   1  40
TORSDOF 16
ENDMDL
MODEL 5
REMARK VINA RESULT:      -7.0      1.880      5.281
REMARK  Name = 
REMARK  16 active torsions:
REMARK  status: ('A' for Active; 'I' for Inactive)
REMARK    1  A    between atoms: C_2  and  O_47
REMARK    2  A    between atoms: C_4  and  O_46
REMARK    3  A    between atoms: C_5  and  O_45
REMARK    4  A    between atoms: C_7  and  O_10
REMARK    5  A    between atoms: O_10  and  C_11
REMARK    6  A    between atoms: C_12  and  O_23
REMARK    7  A    between atoms: C_15  and  C_21
REMARK    8  A    between atoms: C_16  and  O_20
REMARK    9  A    between atoms: C_18  and  O_19
REMARK   10  A    between atoms: C_21  and  O_22
REMARK   11  A    between atoms: O_23  and  C_24
REMARK   12  A    between atoms: C_25  and  C_37
REMARK   13  A    between atoms: C_29  and  O_36
REMARK   14  A    between atoms: C_31  and  O_35
REMARK   15  A    between atoms: C_39  and  O_44
REMARK   16  A    between atoms: C_40  and  O_43
REMARK                            x       y       z     vdW  Elec       q    Type
REMARK                         _______ _______ _______ _____ _____    ______ ____
ROOT
ATOM      1  C   UNL     1       8.121  -2.017  23.894  0.00  0.00    +0.221 C 
ATOM      2  C   UNL     1       8.589  -2.118  22.427  0.00  0.00    +0.180 C 
ATOM      3  C   UNL     1       9.955  -1.461  22.193  0.00  0.00    +0.177 C 
ATOM      4  C   UNL     1      10.015  -0.038  22.756  0.00  0.00    +0.179 C 
ATOM      5  O   UNL     1       9.570  -0.038  24.113  0.00  0.00    -0.331 OA
ATOM      6  C   UNL     1       8.266  -0.555  24.378  0.00  0.00    +0.340 C 
ENDROOT
BRANCH   3   7
ATOM      7  O   UNL     1      10.977  -2.242  22.832  0.00  0.00    -0.386 OA
ATOM      8  H   UNL     1      11.709  -2.352  22.191  0.00  0.00    +0.210 HD
ENDBRANCH   3   7
BRANCH   2   9
ATOM      9  O   UNL     1       7.614  -1.540  21.541  0.00  0.00    -0.386 OA
ATOM     10  H   UNL     1       7.160  -0.796  21.980  0.00  0.00    +0.210 HD
ENDBRANCH   2   9
BRANCH   6  11
ATOM     11  O   UNL     1       7.193   0.271  23.908  0.00  0.00    -0.453 OA
BRANCH  11  12
ATOM     12  C   UNL     1       6.390   0.847  24.903  0.00  0.00    +0.214 A 
ATOM     13  C   UNL     1       5.309   0.068  25.614  0.00  0.00    +0.238 A 
ATOM     14  O   UNL     1       4.862  -0.987  25.184  0.00  0.00    -0.283 OA
ATOM     15  C   UNL     1       4.712   0.645  26.817  0.00  0.00    +0.109 A 
ATOM     16  C   UNL     1       5.029   1.962  27.104  0.00  0.00    +0.147 A 
ATOM     17  C   UNL     1       4.479   2.571  28.246  0.00  0.00    +0.092 A 
ATOM     18  C   UNL     1       3.608   1.849  29.060  0.00  0.00    +0.124 A 
ATOM     19  C   UNL     1       3.265   0.538  28.758  0.00  0.00    +0.091 A 
ATOM     20  O   UNL     1       5.815   2.732  26.309  0.00  0.00    -0.451 OA
ATOM     21  C   UNL     1       3.821  -0.067  27.638  0.00  0.00    +0.135 A 
ATOM     22  C   UNL     1       6.510   2.151  25.245  0.00  0.00    +0.181 A 
BRANCH  22  23
ATOM     23  C   UNL     1       7.336   3.167  24.514  0.00  0.00    +0.025 A 
ATOM     24  C   UNL     1       8.512   3.662  25.118  0.00  0.00    +0.015 A 
ATOM     25  C   UNL     1       9.230   4.731  24.570  0.00  0.00    +0.050 A 
ATOM     26  C   UNL     1       8.788   5.313  23.395  0.00  0.00    +0.158 A 
ATOM     27  C   UNL     1       7.649   4.834  22.762  0.00  0.00    +0.159 A 
ATOM     28  C   UNL     1       6.922   3.778  23.314  0.00  0.00    +0.060 A 
BRANCH  27  29
ATOM     29  O   UNL     1       7.264   5.454  21.604  0.00  0.00    -0.503 OA
ATOM     30  H   UNL     1       8.046   5.577  21.036  0.00  0.00    +0.292 HD
ENDBRANCH  27  29
BRANCH  26  31
ATOM     31  O   UNL     1       9.471   6.373  22.877  0.00  0.00    -0.503 OA
ATOM     32  H   UNL     1       8.780   7.031  22.660  0.00  0.00    +0.292 HD
ENDBRANCH  26  31
ENDBRANCH  22  23
BRANCH  21  33
ATOM     33  O   UNL     1       3.478  -1.358  27.353  0.00  0.00    -0.506 OA
ATOM     34  H   UNL     1       3.486  -1.904  28.156  0.00  0.00    +0.292 HD
ENDBRANCH  21  33
BRANCH  18  35
ATOM     35  O   UNL     1       3.041   2.396  30.171  0.00  0.00    -0.507 OA
ATOM     36  H   UNL     1       2.535   1.719  30.647  0.00  0.00    +0.292 HD
ENDBRANCH  18  35
ENDBRANCH  11  12
ENDBRANCH   6  11
BRANCH   4  37
ATOM     37  C   UNL     1       9.307   1.042  21.925  0.00  0.00    +0.190 C 
BRANCH  37  38
ATOM     38  O   UNL     1      10.177   2.163  21.734  0.00  0.00    -0.392 OA
ATOM     39  H   UNL     1       9.627   2.888  21.377  0.00  0.00    +0.210 HD
ENDBRANCH  37  38
ENDBRANCH   4  37
BRANCH   1  40
ATOM     40  O   UNL     1       8.817  -2.962  24.753  0.00  0.00    -0.337 OA
BRANCH  40  43
ATOM     41  C   UNL     1       5.966  -5.219  24.850  0.00  0.00    +0.197 C 
ATOM     42  O   UNL     1       6.660  -3.954  24.789  0.00  0.00    -0.346 OA
ATOM     43  C   UNL     1       8.049  -4.127  25.124  0.00  0.00    +0.282 C 
ATOM     44  C   UNL     1       8.165  -4.526  26.621  0.00  0.00    +0.201 C 
ATOM     45  C   UNL     1       7.367  -5.823  26.836  0.00  0.00    +0.178 C 
ATOM     46  C   UNL     1       5.942  -5.710  26.298  0.00  0.00    +0.171 C 
BRANCH  46  47
ATOM     47  O   UNL     1       5.229  -4.771  27.118  0.00  0.00    -0.387 OA
ATOM     48  H   UNL     1       5.768  -4.621  27.921  0.00  0.00    +0.210 HD
ENDBRANCH  46  47
BRANCH  45  49
ATOM     49  O   UNL     1       7.366  -6.164  28.226  0.00  0.00    -0.386 OA
ATOM     50  H   UNL     1       6.628  -5.663  28.627  0.00  0.00    +0.210 HD
ENDBRANCH  45  49
BRANCH  44  51
ATOM     51  O   UNL     1       9.523  -4.747  27.041  0.00  0.00    -0.384 OA
ATOM     52  H   UNL     1       9.621  -5.686  27.278  0.00  0.00    +0.210 HD
ENDBRANCH  44  51
ENDBRANCH  40  43
ENDBRANCH   1  40
TORSDOF 16
ENDMDL
MODEL 6
REMARK VINA RESULT:      -6.9      2.704      7.229
REMARK  Name = 
REMARK  16 active torsions:
REMARK  status: ('A' for Active; 'I' for Inactive)
REMARK    1  A    between atoms: C_2  and  O_47
REMARK    2  A    between atoms: C_4  and  O_46
REMARK    3  A    between atoms: C_5  and  O_45
REMARK    4  A    between atoms: C_7  and  O_10
REMARK    5  A    between atoms: O_10  and  C_11
REMARK    6  A    between atoms: C_12  and  O_23
REMARK    7  A    between atoms: C_15  and  C_21
REMARK    8  A    between atoms: C_16  and  O_20
REMARK    9  A    between atoms: C_18  and  O_19
REMARK   10  A    between atoms: C_21  and  O_22
REMARK   11  A    between atoms: O_23  and  C_24
REMARK   12  A    between atoms: C_25  and  C_37
REMARK   13  A    between atoms: C_29  and  O_36
REMARK   14  A    between atoms: C_31  and  O_35
REMARK   15  A    between atoms: C_39  and  O_44
REMARK   16  A    between atoms: C_40  and  O_43
REMARK                            x       y       z     vdW  Elec       q    Type
REMARK                         _______ _______ _______ _____ _____    ______ ____
ROOT
ATOM      1  C   UNL     1       8.216   1.589  24.079  0.00  0.00    +0.221 C 
ATOM      2  C   UNL     1       9.742   1.726  23.901  0.00  0.00    +0.180 C 
ATOM      3  C   UNL     1      10.222   1.262  22.520  0.00  0.00    +0.177 C 
ATOM      4  C   UNL     1       9.688  -0.127  22.160  0.00  0.00    +0.179 C 
ATOM      5  O   UNL     1       8.273  -0.164  22.351  0.00  0.00    -0.331 OA
ATOM      6  C   UNL     1       7.775   0.171  23.646  0.00  0.00    +0.340 C 
ENDROOT
BRANCH   3   7
ATOM      7  O   UNL     1       9.773   2.191  21.520  0.00  0.00    -0.386 OA
ATOM      8  H   UNL     1       9.891   3.093  21.880  0.00  0.00    +0.210 HD
ENDBRANCH   3   7
BRANCH   2   9
ATOM      9  O   UNL     1      10.441   1.001  24.928  0.00  0.00    -0.386 OA
ATOM     10  H   UNL     1      10.805   0.170  24.565  0.00  0.00    +0.210 HD
ENDBRANCH   2   9
BRANCH   6  11
ATOM     11  O   UNL     1       8.050  -0.806  24.658  0.00  0.00    -0.453 OA
BRANCH  11  12
ATOM     12  C   UNL     1       6.993  -1.080  25.539  0.00  0.00    +0.214 A 
ATOM     13  C   UNL     1       6.802  -0.315  26.828  0.00  0.00    +0.238 A 
ATOM     14  O   UNL     1       7.688   0.363  27.332  0.00  0.00    -0.283 OA
ATOM     15  C   UNL     1       5.538  -0.464  27.546  0.00  0.00    +0.109 A 
ATOM     16  C   UNL     1       4.682  -1.460  27.106  0.00  0.00    +0.147 A 
ATOM     17  C   UNL     1       3.454  -1.653  27.762  0.00  0.00    +0.092 A 
ATOM     18  C   UNL     1       3.124  -0.856  28.857  0.00  0.00    +0.124 A 
ATOM     19  C   UNL     1       3.993   0.124  29.318  0.00  0.00    +0.091 A 
ATOM     20  O   UNL     1       4.983  -2.310  26.091  0.00  0.00    -0.451 OA
ATOM     21  C   UNL     1       5.200   0.323  28.659  0.00  0.00    +0.135 A 
ATOM     22  C   UNL     1       6.114  -2.081  25.303  0.00  0.00    +0.181 A 
BRANCH  22  23
ATOM     23  C   UNL     1       6.248  -3.117  24.227  0.00  0.00    +0.025 A 
ATOM     24  C   UNL     1       7.006  -4.280  24.482  0.00  0.00    +0.015 A 
ATOM     25  C   UNL     1       7.312  -5.198  23.471  0.00  0.00    +0.050 A 
ATOM     26  C   UNL     1       6.845  -4.973  22.187  0.00  0.00    +0.158 A 
ATOM     27  C   UNL     1       6.075  -3.852  21.909  0.00  0.00    +0.159 A 
ATOM     28  C   UNL     1       5.781  -2.926  22.912  0.00  0.00    +0.060 A 
BRANCH  27  29
ATOM     29  O   UNL     1       5.646  -3.687  20.620  0.00  0.00    -0.503 OA
ATOM     30  H   UNL     1       5.214  -2.818  20.539  0.00  0.00    +0.292 HD
ENDBRANCH  27  29
BRANCH  26  31
ATOM     31  O   UNL     1       7.168  -5.852  21.196  0.00  0.00    -0.503 OA
ATOM     32  H   UNL     1       8.136  -5.763  21.090  0.00  0.00    +0.292 HD
ENDBRANCH  26  31
ENDBRANCH  22  23
BRANCH  21  33
ATOM     33  O   UNL     1       6.046   1.291  29.121  0.00  0.00    -0.506 OA
ATOM     34  H   UNL     1       6.109   1.263  30.090  0.00  0.00    +0.292 HD
ENDBRANCH  21  33
BRANCH  18  35
ATOM     35  O   UNL     1       1.952  -1.010  29.532  0.00  0.00    -0.507 OA
ATOM     36  H   UNL     1       1.845  -0.288  30.171  0.00  0.00    +0.292 HD
ENDBRANCH  18  35
ENDBRANCH  11  12
ENDBRANCH   6  11
BRANCH   4  37
ATOM     37  C   UNL     1      10.385  -1.311  22.846  0.00  0.00    +0.190 C 
BRANCH  37  38
ATOM     38  O   UNL     1       9.571  -2.486  22.743  0.00  0.00    -0.392 OA
ATOM     39  H   UNL     1       9.408  -2.795  23.655  0.00  0.00    +0.210 HD
ENDBRANCH  37  38
ENDBRANCH   4  37
BRANCH   1  40
ATOM     40  O   UNL     1       7.490   2.638  23.381  0.00  0.00    -0.337 OA
BRANCH  40  43
ATOM     41  C   UNL     1       5.233   3.295  26.157  0.00  0.00    +0.197 C 
ATOM     42  O   UNL     1       6.224   2.580  25.390  0.00  0.00    -0.346 OA
ATOM     43  C   UNL     1       6.298   3.104  24.052  0.00  0.00    +0.282 C 
ATOM     44  C   UNL     1       4.973   2.785  23.306  0.00  0.00    +0.201 C 
ATOM     45  C   UNL     1       3.814   3.416  24.096  0.00  0.00    +0.178 C 
ATOM     46  C   UNL     1       3.847   3.018  25.571  0.00  0.00    +0.171 C 
BRANCH  46  47
ATOM     47  O   UNL     1       3.553   1.616  25.661  0.00  0.00    -0.387 OA
ATOM     48  H   UNL     1       3.397   1.413  26.606  0.00  0.00    +0.210 HD
ENDBRANCH  46  47
BRANCH  45  49
ATOM     49  O   UNL     1       2.567   3.054  23.495  0.00  0.00    -0.386 OA
ATOM     50  H   UNL     1       2.207   3.876  23.103  0.00  0.00    +0.210 HD
ENDBRANCH  45  49
BRANCH  44  51
ATOM     51  O   UNL     1       4.946   3.297  21.963  0.00  0.00    -0.384 OA
ATOM     52  H   UNL     1       4.881   2.543  21.349  0.00  0.00    +0.210 HD
ENDBRANCH  44  51
ENDBRANCH  40  43
ENDBRANCH   1  40
TORSDOF 16
ENDMDL
MODEL 7
REMARK VINA RESULT:      -6.8      2.367      6.551
REMARK  Name = 
REMARK  16 active torsions:
REMARK  status: ('A' for Active; 'I' for Inactive)
REMARK    1  A    between atoms: C_2  and  O_47
REMARK    2  A    between atoms: C_4  and  O_46
REMARK    3  A    between atoms: C_5  and  O_45
REMARK    4  A    between atoms: C_7  and  O_10
REMARK    5  A    between atoms: O_10  and  C_11
REMARK    6  A    between atoms: C_12  and  O_23
REMARK    7  A    between atoms: C_15  and  C_21
REMARK    8  A    between atoms: C_16  and  O_20
REMARK    9  A    between atoms: C_18  and  O_19
REMARK   10  A    between atoms: C_21  and  O_22
REMARK   11  A    between atoms: O_23  and  C_24
REMARK   12  A    between atoms: C_25  and  C_37
REMARK   13  A    between atoms: C_29  and  O_36
REMARK   14  A    between atoms: C_31  and  O_35
REMARK   15  A    between atoms: C_39  and  O_44
REMARK   16  A    between atoms: C_40  and  O_43
REMARK                            x       y       z     vdW  Elec       q    Type
REMARK                         _______ _______ _______ _____ _____    ______ ____
ROOT
ATOM      1  C   UNL     1       7.371  -3.363  23.180  0.00  0.00    +0.221 C 
ATOM      2  C   UNL     1       7.547  -4.823  22.715  0.00  0.00    +0.180 C 
ATOM      3  C   UNL     1       6.278  -5.398  22.072  0.00  0.00    +0.177 C 
ATOM      4  C   UNL     1       5.039  -5.181  22.944  0.00  0.00    +0.179 C 
ATOM      5  O   UNL     1       4.954  -3.806  23.326  0.00  0.00    -0.331 OA
ATOM      6  C   UNL     1       6.072  -3.243  24.010  0.00  0.00    +0.340 C 
ENDROOT
BRANCH   3   7
ATOM      7  O   UNL     1       6.054  -4.761  20.804  0.00  0.00    -0.386 OA
ATOM      8  H   UNL     1       5.104  -4.529  20.753  0.00  0.00    +0.210 HD
ENDBRANCH   3   7
BRANCH   2   9
ATOM      9  O   UNL     1       7.958  -5.660  23.810  0.00  0.00    -0.386 OA
ATOM     10  H   UNL     1       8.693  -5.241  24.297  0.00  0.00    +0.210 HD
ENDBRANCH   2   9
BRANCH   6  11
ATOM     11  O   UNL     1       6.249  -3.720  25.350  0.00  0.00    -0.453 OA
BRANCH  11  12
ATOM     12  C   UNL     1       5.904  -2.817  26.367  0.00  0.00    +0.214 A 
ATOM     13  C   UNL     1       6.667  -1.533  26.596  0.00  0.00    +0.238 A 
ATOM     14  O   UNL     1       7.783  -1.336  26.134  0.00  0.00    -0.283 OA
ATOM     15  C   UNL     1       6.084  -0.525  27.478  0.00  0.00    +0.109 A 
ATOM     16  C   UNL     1       4.971  -0.901  28.211  0.00  0.00    +0.147 A 
ATOM     17  C   UNL     1       4.371   0.026  29.080  0.00  0.00    +0.092 A 
ATOM     18  C   UNL     1       4.916   1.303  29.208  0.00  0.00    +0.124 A 
ATOM     19  C   UNL     1       6.049   1.674  28.497  0.00  0.00    +0.091 A 
ATOM     20  O   UNL     1       4.442  -2.152  28.178  0.00  0.00    -0.451 OA
ATOM     21  C   UNL     1       6.632   0.761  27.627  0.00  0.00    +0.135 A 
ATOM     22  C   UNL     1       4.894  -3.074  27.230  0.00  0.00    +0.181 A 
BRANCH  22  23
ATOM     23  C   UNL     1       4.164  -4.378  27.349  0.00  0.00    +0.025 A 
ATOM     24  C   UNL     1       2.886  -4.507  26.764  0.00  0.00    +0.015 A 
ATOM     25  C   UNL     1       2.083  -5.633  26.983  0.00  0.00    +0.050 A 
ATOM     26  C   UNL     1       2.557  -6.658  27.784  0.00  0.00    +0.158 A 
ATOM     27  C   UNL     1       3.821  -6.573  28.353  0.00  0.00    +0.159 A 
ATOM     28  C   UNL     1       4.618  -5.445  28.148  0.00  0.00    +0.060 A 
BRANCH  27  29
ATOM     29  O   UNL     1       4.230  -7.620  29.135  0.00  0.00    -0.503 OA
ATOM     30  H   UNL     1       4.108  -7.382  30.072  0.00  0.00    +0.292 HD
ENDBRANCH  27  29
BRANCH  26  31
ATOM     31  O   UNL     1       1.764  -7.740  28.022  0.00  0.00    -0.503 OA
ATOM     32  H   UNL     1       1.339  -7.931  27.162  0.00  0.00    +0.292 HD
ENDBRANCH  26  31
ENDBRANCH  22  23
BRANCH  21  33
ATOM     33  O   UNL     1       7.744   1.138  26.930  0.00  0.00    -0.506 OA
ATOM     34  H   UNL     1       8.008   2.043  27.163  0.00  0.00    +0.292 HD
ENDBRANCH  21  33
BRANCH  18  35
ATOM     35  O   UNL     1       4.379   2.234  30.044  0.00  0.00    -0.507 OA
ATOM     36  H   UNL     1       5.048   2.900  30.266  0.00  0.00    +0.292 HD
ENDBRANCH  18  35
ENDBRANCH  11  12
ENDBRANCH   6  11
BRANCH   4  37
ATOM     37  C   UNL     1       4.899  -6.115  24.155  0.00  0.00    +0.190 C 
BRANCH  37  38
ATOM     38  O   UNL     1       4.559  -7.436  23.718  0.00  0.00    -0.392 OA
ATOM     39  H   UNL     1       5.169  -7.657  22.987  0.00  0.00    +0.210 HD
ENDBRANCH  37  38
ENDBRANCH   4  37
BRANCH   1  40
ATOM     40  O   UNL     1       7.411  -2.429  22.066  0.00  0.00    -0.337 OA
BRANCH  40  43
ATOM     41  C   UNL     1      10.445  -0.550  22.772  0.00  0.00    +0.197 C 
ATOM     42  O   UNL     1       9.501  -1.638  22.870  0.00  0.00    -0.346 OA
ATOM     43  C   UNL     1       8.244  -1.267  22.275  0.00  0.00    +0.282 C 
ATOM     44  C   UNL     1       7.587  -0.148  23.129  0.00  0.00    +0.201 C 
ATOM     45  C   UNL     1       8.558   1.044  23.187  0.00  0.00    +0.178 C 
ATOM     46  C   UNL     1       9.956   0.618  23.630  0.00  0.00    +0.171 C 
BRANCH  46  47
ATOM     47  O   UNL     1       9.885   0.214  25.006  0.00  0.00    -0.387 OA
ATOM     48  H   UNL     1       8.980   0.417  25.320  0.00  0.00    +0.210 HD
ENDBRANCH  46  47
BRANCH  45  49
ATOM     49  O   UNL     1       8.030   2.054  24.052  0.00  0.00    -0.386 OA
ATOM     50  H   UNL     1       8.741   2.718  24.159  0.00  0.00    +0.210 HD
ENDBRANCH  45  49
BRANCH  44  51
ATOM     51  O   UNL     1       6.333   0.306  22.593  0.00  0.00    -0.384 OA
ATOM     52  H   UNL     1       6.307   1.277  22.656  0.00  0.00    +0.210 HD
ENDBRANCH  44  51
ENDBRANCH  40  43
ENDBRANCH   1  40
TORSDOF 16
ENDMDL
MODEL 8
REMARK VINA RESULT:      -6.8      2.538      7.648
REMARK  Name = 
REMARK  16 active torsions:
REMARK  status: ('A' for Active; 'I' for Inactive)
REMARK    1  A    between atoms: C_2  and  O_47
REMARK    2  A    between atoms: C_4  and  O_46
REMARK    3  A    between atoms: C_5  and  O_45
REMARK    4  A    between atoms: C_7  and  O_10
REMARK    5  A    between atoms: O_10  and  C_11
REMARK    6  A    between atoms: C_12  and  O_23
REMARK    7  A    between atoms: C_15  and  C_21
REMARK    8  A    between atoms: C_16  and  O_20
REMARK    9  A    between atoms: C_18  and  O_19
REMARK   10  A    between atoms: C_21  and  O_22
REMARK   11  A    between atoms: O_23  and  C_24
REMARK   12  A    between atoms: C_25  and  C_37
REMARK   13  A    between atoms: C_29  and  O_36
REMARK   14  A    between atoms: C_31  and  O_35
REMARK   15  A    between atoms: C_39  and  O_44
REMARK   16  A    between atoms: C_40  and  O_43
REMARK                            x       y       z     vdW  Elec       q    Type
REMARK                         _______ _______ _______ _____ _____    ______ ____
ROOT
ATOM      1  C   UNL     1       9.217   1.676  24.492  0.00  0.00    +0.221 C 
ATOM      2  C   UNL     1      10.413   1.262  23.611  0.00  0.00    +0.180 C 
ATOM      3  C   UNL     1      10.037   1.109  22.131  0.00  0.00    +0.177 C 
ATOM      4  C   UNL     1       8.803   0.225  21.938  0.00  0.00    +0.179 C 
ATOM      5  O   UNL     1       7.747   0.679  22.787  0.00  0.00    -0.331 OA
ATOM      6  C   UNL     1       8.013   0.753  24.186  0.00  0.00    +0.340 C 
ENDROOT
BRANCH   3   7
ATOM      7  O   UNL     1       9.756   2.403  21.574  0.00  0.00    -0.386 OA
ATOM      8  H   UNL     1       9.425   2.267  20.663  0.00  0.00    +0.210 HD
ENDBRANCH   3   7
BRANCH   2   9
ATOM      9  O   UNL     1      11.001   0.039  24.091  0.00  0.00    -0.386 OA
ATOM     10  H   UNL     1      10.715  -0.134  25.008  0.00  0.00    +0.210 HD
ENDBRANCH   2   9
BRANCH   6  11
ATOM     11  O   UNL     1       8.139  -0.519  24.835  0.00  0.00    -0.453 OA
BRANCH  11  12
ATOM     12  C   UNL     1       7.039  -0.916  25.610  0.00  0.00    +0.214 A 
ATOM     13  C   UNL     1       6.721  -0.277  26.942  0.00  0.00    +0.238 A 
ATOM     14  O   UNL     1       7.534   0.392  27.565  0.00  0.00    -0.283 OA
ATOM     15  C   UNL     1       5.419  -0.545  27.550  0.00  0.00    +0.109 A 
ATOM     16  C   UNL     1       4.647  -1.535  26.966  0.00  0.00    +0.147 A 
ATOM     17  C   UNL     1       3.387  -1.839  27.511  0.00  0.00    +0.092 A 
ATOM     18  C   UNL     1       2.943  -1.156  28.642  0.00  0.00    +0.124 A 
ATOM     19  C   UNL     1       3.729  -0.184  29.247  0.00  0.00    +0.091 A 
ATOM     20  O   UNL     1       5.059  -2.278  25.907  0.00  0.00    -0.451 OA
ATOM     21  C   UNL     1       4.966   0.126  28.698  0.00  0.00    +0.135 A 
ATOM     22  C   UNL     1       6.230  -1.930  25.227  0.00  0.00    +0.181 A 
BRANCH  22  23
ATOM     23  C   UNL     1       6.489  -2.861  24.079  0.00  0.00    +0.025 A 
ATOM     24  C   UNL     1       5.694  -2.759  22.917  0.00  0.00    +0.015 A 
ATOM     25  C   UNL     1       5.769  -3.702  21.886  0.00  0.00    +0.050 A 
ATOM     26  C   UNL     1       6.657  -4.759  21.997  0.00  0.00    +0.158 A 
ATOM     27  C   UNL     1       7.471  -4.874  23.116  0.00  0.00    +0.159 A 
ATOM     28  C   UNL     1       7.388  -3.943  24.152  0.00  0.00    +0.060 A 
BRANCH  27  29
ATOM     29  O   UNL     1       8.326  -5.941  23.164  0.00  0.00    -0.503 OA
ATOM     30  H   UNL     1       9.062  -5.786  22.546  0.00  0.00    +0.292 HD
ENDBRANCH  27  29
BRANCH  26  31
ATOM     31  O   UNL     1       6.708  -5.694  21.006  0.00  0.00    -0.503 OA
ATOM     32  H   UNL     1       5.961  -5.472  20.416  0.00  0.00    +0.292 HD
ENDBRANCH  26  31
ENDBRANCH  22  23
BRANCH  21  33
ATOM     33  O   UNL     1       5.728   1.086  29.301  0.00  0.00    -0.506 OA
ATOM     34  H   UNL     1       5.803   1.873  28.737  0.00  0.00    +0.292 HD
ENDBRANCH  21  33
BRANCH  18  35
ATOM     35  O   UNL     1       1.736  -1.421  29.215  0.00  0.00    -0.507 OA
ATOM     36  H   UNL     1       1.322  -2.176  28.770  0.00  0.00    +0.292 HD
ENDBRANCH  18  35
ENDBRANCH  11  12
ENDBRANCH   6  11
BRANCH   4  37
ATOM     37  C   UNL     1       9.033  -1.287  22.078  0.00  0.00    +0.190 C 
BRANCH  37  38
ATOM     38  O   UNL     1      10.368  -1.619  21.680  0.00  0.00    -0.392 OA
ATOM     39  H   UNL     1      10.704  -0.861  21.163  0.00  0.00    +0.210 HD
ENDBRANCH  37  38
ENDBRANCH   4  37
BRANCH   1  40
ATOM     40  O   UNL     1       8.893   3.085  24.342  0.00  0.00    -0.337 OA
BRANCH  40  43
ATOM     41  C   UNL     1       5.563   4.350  23.604  0.00  0.00    +0.197 C 
ATOM     42  O   UNL     1       7.004   4.287  23.550  0.00  0.00    -0.346 OA
ATOM     43  C   UNL     1       7.508   3.420  24.582  0.00  0.00    +0.282 C 
ATOM     44  C   UNL     1       7.231   4.064  25.968  0.00  0.00    +0.201 C 
ATOM     45  C   UNL     1       5.714   4.279  26.103  0.00  0.00    +0.178 C 
ATOM     46  C   UNL     1       5.137   5.032  24.905  0.00  0.00    +0.171 C 
BRANCH  46  47
ATOM     47  O   UNL     1       5.642   6.375  24.937  0.00  0.00    -0.387 OA
ATOM     48  H   UNL     1       5.800   6.647  24.010  0.00  0.00    +0.210 HD
ENDBRANCH  46  47
BRANCH  45  49
ATOM     49  O   UNL     1       5.431   4.966  27.326  0.00  0.00    -0.386 OA
ATOM     50  H   UNL     1       4.636   5.510  27.153  0.00  0.00    +0.210 HD
ENDBRANCH  45  49
BRANCH  44  51
ATOM     51  O   UNL     1       7.679   3.250  27.066  0.00  0.00    -0.384 OA
ATOM     52  H   UNL     1       7.563   2.315  26.821  0.00  0.00    +0.210 HD
ENDBRANCH  44  51
ENDBRANCH  40  43
ENDBRANCH   1  40
TORSDOF 16
ENDMDL
MODEL 9
REMARK VINA RESULT:      -6.8      2.498      7.493
REMARK  Name = 
REMARK  16 active torsions:
REMARK  status: ('A' for Active; 'I' for Inactive)
REMARK    1  A    between atoms: C_2  and  O_47
REMARK    2  A    between atoms: C_4  and  O_46
REMARK    3  A    between atoms: C_5  and  O_45
REMARK    4  A    between atoms: C_7  and  O_10
REMARK    5  A    between atoms: O_10  and  C_11
REMARK    6  A    between atoms: C_12  and  O_23
REMARK    7  A    between atoms: C_15  and  C_21
REMARK    8  A    between atoms: C_16  and  O_20
REMARK    9  A    between atoms: C_18  and  O_19
REMARK   10  A    between atoms: C_21  and  O_22
REMARK   11  A    between atoms: O_23  and  C_24
REMARK   12  A    between atoms: C_25  and  C_37
REMARK   13  A    between atoms: C_29  and  O_36
REMARK   14  A    between atoms: C_31  and  O_35
REMARK   15  A    between atoms: C_39  and  O_44
REMARK   16  A    between atoms: C_40  and  O_43
REMARK                            x       y       z     vdW  Elec       q    Type
REMARK                         _______ _______ _______ _____ _____    ______ ____
ROOT
ATOM      1  C   UNL     1       7.828   1.561  23.923  0.00  0.00    +0.221 C 
ATOM      2  C   UNL     1       9.326   1.928  23.957  0.00  0.00    +0.180 C 
ATOM      3  C   UNL     1      10.037   1.649  22.626  0.00  0.00    +0.177 C 
ATOM      4  C   UNL     1       9.768   0.232  22.114  0.00  0.00    +0.179 C 
ATOM      5  O   UNL     1       8.362  -0.022  22.113  0.00  0.00    -0.331 OA
ATOM      6  C   UNL     1       7.664   0.133  23.348  0.00  0.00    +0.340 C 
ENDROOT
BRANCH   3   7
ATOM      7  O   UNL     1       9.577   2.581  21.634  0.00  0.00    -0.386 OA
ATOM      8  H   UNL     1       9.324   2.068  20.840  0.00  0.00    +0.210 HD
ENDBRANCH   3   7
BRANCH   2   9
ATOM      9  O   UNL     1       9.997   1.230  25.021  0.00  0.00    -0.386 OA
ATOM     10  H   UNL     1       9.778   1.636  25.881  0.00  0.00    +0.210 HD
ENDBRANCH   2   9
BRANCH   6  11
ATOM     11  O   UNL     1       7.958  -0.872  24.326  0.00  0.00    -0.453 OA
BRANCH  11  12
ATOM     12  C   UNL     1       7.077  -1.963  24.358  0.00  0.00    +0.214 A 
ATOM     13  C   UNL     1       7.024  -2.987  23.249  0.00  0.00    +0.238 A 
ATOM     14  O   UNL     1       7.504  -2.787  22.141  0.00  0.00    -0.283 OA
ATOM     15  C   UNL     1       6.292  -4.230  23.482  0.00  0.00    +0.109 A 
ATOM     16  C   UNL     1       5.518  -4.295  24.629  0.00  0.00    +0.147 A 
ATOM     17  C   UNL     1       4.787  -5.464  24.902  0.00  0.00    +0.092 A 
ATOM     18  C   UNL     1       4.834  -6.532  24.007  0.00  0.00    +0.124 A 
ATOM     19  C   UNL     1       5.586  -6.457  22.842  0.00  0.00    +0.091 A 
ATOM     20  O   UNL     1       5.380  -3.261  25.498  0.00  0.00    -0.451 OA
ATOM     21  C   UNL     1       6.319  -5.307  22.581  0.00  0.00    +0.135 A 
ATOM     22  C   UNL     1       6.191  -2.129  25.367  0.00  0.00    +0.181 A 
BRANCH  22  23
ATOM     23  C   UNL     1       5.897  -1.122  26.439  0.00  0.00    +0.025 A 
ATOM     24  C   UNL     1       4.553  -0.846  26.773  0.00  0.00    +0.015 A 
ATOM     25  C   UNL     1       4.208   0.200  27.636  0.00  0.00    +0.050 A 
ATOM     26  C   UNL     1       5.208   0.978  28.193  0.00  0.00    +0.158 A 
ATOM     27  C   UNL     1       6.540   0.716  27.905  0.00  0.00    +0.159 A 
ATOM     28  C   UNL     1       6.888  -0.317  27.032  0.00  0.00    +0.060 A 
BRANCH  27  29
ATOM     29  O   UNL     1       7.481   1.522  28.487  0.00  0.00    -0.503 OA
ATOM     30  H   UNL     1       8.297   1.008  28.624  0.00  0.00    +0.292 HD
ENDBRANCH  27  29
BRANCH  26  31
ATOM     31  O   UNL     1       4.870   2.016  29.010  0.00  0.00    -0.503 OA
ATOM     32  H   UNL     1       3.939   2.216  28.786  0.00  0.00    +0.292 HD
ENDBRANCH  26  31
ENDBRANCH  22  23
BRANCH  21  33
ATOM     33  O   UNL     1       7.056  -5.247  21.432  0.00  0.00    -0.506 OA
ATOM     34  H   UNL     1       7.230  -6.138  21.085  0.00  0.00    +0.292 HD
ENDBRANCH  21  33
BRANCH  18  35
ATOM     35  O   UNL     1       4.136  -7.681  24.221  0.00  0.00    -0.507 OA
ATOM     36  H   UNL     1       4.019  -7.820  25.174  0.00  0.00    +0.292 HD
ENDBRANCH  18  35
ENDBRANCH  11  12
ENDBRANCH   6  11
BRANCH   4  37
ATOM     37  C   UNL     1      10.547  -0.892  22.813  0.00  0.00    +0.190 C 
BRANCH  37  38
ATOM     38  O   UNL     1      10.433  -2.108  22.063  0.00  0.00    -0.392 OA
ATOM     39  H   UNL     1      10.044  -1.870  21.199  0.00  0.00    +0.210 HD
ENDBRANCH  37  38
ENDBRANCH   4  37
BRANCH   1  40
ATOM     40  O   UNL     1       7.043   2.548  23.200  0.00  0.00    -0.337 OA
BRANCH  40  43
ATOM     41  C   UNL     1       6.552   5.404  25.398  0.00  0.00    +0.197 C 
ATOM     42  O   UNL     1       7.233   4.266  24.828  0.00  0.00    -0.346 OA
ATOM     43  C   UNL     1       6.324   3.483  24.034  0.00  0.00    +0.282 C 
ATOM     44  C   UNL     1       5.265   2.833  24.966  0.00  0.00    +0.201 C 
ATOM     45  C   UNL     1       4.532   3.957  25.718  0.00  0.00    +0.178 C 
ATOM     46  C   UNL     1       5.508   4.913  26.403  0.00  0.00    +0.171 C 
BRANCH  46  47
ATOM     47  O   UNL     1       6.155   4.202  27.468  0.00  0.00    -0.387 OA
ATOM     48  H   UNL     1       6.851   4.789  27.827  0.00  0.00    +0.210 HD
ENDBRANCH  46  47
BRANCH  45  49
ATOM     49  O   UNL     1       3.619   3.391  26.663  0.00  0.00    -0.386 OA
ATOM     50  H   UNL     1       3.512   2.452  26.406  0.00  0.00    +0.210 HD
ENDBRANCH  45  49
BRANCH  44  51
ATOM     51  O   UNL     1       4.293   2.048  24.253  0.00  0.00    -0.384 OA
ATOM     52  H   UNL     1       4.512   1.107  24.373  0.00  0.00    +0.210 HD
ENDBRANCH  44  51
ENDBRANCH  40  43
ENDBRANCH   1  40
TORSDOF 16
ENDMDL
