MODEL 1
REMARK VINA RESULT:      -7.8      0.000      0.000
REMARK  Name = 
REMARK  18 active torsions:
REMARK  status: ('A' for Active; 'I' for Inactive)
REMARK    1  A    between atoms: C_1  and  O_2
REMARK    2  A    between atoms: O_2  and  C_3
REMARK    3  A    between atoms: C_4  and  O_51
REMARK    4  A    between atoms: C_7  and  C_9
REMARK    5  A    between atoms: C_10  and  C_11
REMARK    6  A    between atoms: C_11  and  O_13
REMARK    7  A    between atoms: O_13  and  C_14
REMARK    8  A    between atoms: C_14  and  C_15
REMARK    9  A    between atoms: C_17  and  O_50
REMARK   10  A    between atoms: C_19  and  O_49
REMARK   11  A    between atoms: C_21  and  O_48
REMARK   12  A    between atoms: C_23  and  O_26
REMARK   13  A    between atoms: O_26  and  C_27
REMARK   14  A    between atoms: C_28  and  C_40
REMARK   15  A    between atoms: C_32  and  O_39
REMARK   16  A    between atoms: C_34  and  O_38
REMARK   17  A    between atoms: C_42  and  O_47
REMARK   18  A    between atoms: C_43  and  O_46
REMARK                            x       y       z     vdW  Elec       q    Type
REMARK                         _______ _______ _______ _____ _____    ______ ____
ROOT
ATOM      1  C   UNL     1       4.830  -3.179  26.936  0.00  0.00    +0.191 C 
ATOM      2  O   UNL     1       6.118  -2.907  26.367  0.00  0.00    -0.330 OA
ATOM      3  C   UNL     1       6.854  -4.117  26.136  0.00  0.00    +0.340 C 
ATOM      4  C   UNL     1       7.167  -4.819  27.476  0.00  0.00    +0.214 C 
ATOM      5  C   UNL     1       5.844  -5.110  28.190  0.00  0.00    +0.180 C 
ATOM      6  C   UNL     1       4.996  -3.838  28.320  0.00  0.00    +0.178 C 
ENDROOT
BRANCH   6   7
ATOM      7  O   UNL     1       3.748  -4.210  28.915  0.00  0.00    -0.386 OA
ATOM      8  H   UNL     1       3.238  -4.684  28.233  0.00  0.00    +0.210 HD
ENDBRANCH   6   7
BRANCH   5   9
ATOM      9  O   UNL     1       6.080  -5.651  29.496  0.00  0.00    -0.386 OA
ATOM     10  H   UNL     1       5.885  -6.606  29.418  0.00  0.00    +0.210 HD
ENDBRANCH   5   9
BRANCH   4  11
ATOM     11  O   UNL     1       7.924  -6.025  27.278  0.00  0.00    -0.383 OA
ATOM     12  H   UNL     1       8.574  -6.104  27.999  0.00  0.00    +0.210 HD
ENDBRANCH   4  11
BRANCH   3  13
ATOM     13  O   UNL     1       8.107  -3.830  25.515  0.00  0.00    -0.453 OA
BRANCH  13  14
ATOM     14  C   UNL     1       8.191  -2.698  24.729  0.00  0.00    +0.214 A 
ATOM     15  C   UNL     1       8.895  -1.484  25.226  0.00  0.00    +0.238 A 
ATOM     16  O   UNL     1       9.097  -1.312  26.423  0.00  0.00    -0.283 OA
ATOM     17  C   UNL     1       9.249  -0.474  24.222  0.00  0.00    +0.109 A 
ATOM     18  C   UNL     1       8.556  -0.509  23.013  0.00  0.00    +0.147 A 
ATOM     19  C   UNL     1       8.794   0.475  22.048  0.00  0.00    +0.092 A 
ATOM     20  C   UNL     1       9.733   1.474  22.311  0.00  0.00    +0.124 A 
ATOM     21  C   UNL     1      10.446   1.500  23.505  0.00  0.00    +0.091 A 
ATOM     22  O   UNL     1       7.615  -1.473  22.722  0.00  0.00    -0.451 OA
ATOM     23  C   UNL     1      10.207   0.519  24.461  0.00  0.00    +0.135 A 
ATOM     24  C   UNL     1       7.517  -2.583  23.562  0.00  0.00    +0.181 A 
BRANCH  24  25
ATOM     25  C   UNL     1       6.594  -3.652  23.063  0.00  0.00    +0.025 A 
ATOM     26  C   UNL     1       7.081  -4.786  22.387  0.00  0.00    +0.015 A 
ATOM     27  C   UNL     1       6.219  -5.823  21.991  0.00  0.00    +0.050 A 
ATOM     28  C   UNL     1       4.867  -5.737  22.283  0.00  0.00    +0.158 A 
ATOM     29  C   UNL     1       4.355  -4.609  22.905  0.00  0.00    +0.159 A 
ATOM     30  C   UNL     1       5.197  -3.558  23.250  0.00  0.00    +0.060 A 
BRANCH  29  31
ATOM     31  O   UNL     1       3.017  -4.579  23.188  0.00  0.00    -0.503 OA
ATOM     32  H   UNL     1       2.835  -3.763  23.690  0.00  0.00    +0.292 HD
ENDBRANCH  29  31
BRANCH  28  33
ATOM     33  O   UNL     1       4.037  -6.773  21.967  0.00  0.00    -0.503 OA
ATOM     34  H   UNL     1       4.566  -7.575  22.154  0.00  0.00    +0.292 HD
ENDBRANCH  28  33
ENDBRANCH  24  25
BRANCH  23  35
ATOM     35  O   UNL     1      10.936   0.527  25.616  0.00  0.00    -0.506 OA
ATOM     36  H   UNL     1      10.861  -0.330  26.066  0.00  0.00    +0.292 HD
ENDBRANCH  23  35
BRANCH  20  37
ATOM     37  O   UNL     1       9.999   2.464  21.411  0.00  0.00    -0.507 OA
ATOM     38  H   UNL     1       9.515   3.266  21.664  0.00  0.00    +0.292 HD
ENDBRANCH  20  37
ENDBRANCH  13  14
ENDBRANCH   3  13
BRANCH   1  39
ATOM     39  C   UNL     1       4.042  -1.860  27.012  0.00  0.00    +0.266 C 
BRANCH  39  40
ATOM     40  O   UNL     1       4.497  -0.896  26.044  0.00  0.00    -0.459 OA
BRANCH  40  41
ATOM     41  C   UNL     1       5.252   0.112  26.558  0.00  0.00    +0.332 C 
ATOM     42  O   UNL     1       5.748   0.150  27.671  0.00  0.00    -0.246 OA
BRANCH  41  44
ATOM     43  C   UNL     1       6.583   1.833  25.466  0.00  0.00    +0.015 C 
ATOM     44  C   UNL     1       5.448   1.123  25.502  0.00  0.00    +0.092 C 
BRANCH  43  47
ATOM     45  C   UNL     1       8.136   4.774  23.636  0.00  0.00    +0.162 A 
ATOM     46  C   UNL     1       7.893   3.804  24.612  0.00  0.00    +0.057 A 
ATOM     47  C   UNL     1       6.922   2.809  24.412  0.00  0.00    -0.021 A 
ATOM     48  C   UNL     1       6.186   2.806  23.217  0.00  0.00    +0.012 A 
ATOM     49  C   UNL     1       6.424   3.769  22.234  0.00  0.00    +0.050 A 
ATOM     50  C   UNL     1       7.388   4.744  22.455  0.00  0.00    +0.158 A 
BRANCH  50  51
ATOM     51  O   UNL     1       7.583   5.692  21.489  0.00  0.00    -0.503 OA
ATOM     52  H   UNL     1       7.111   5.355  20.703  0.00  0.00    +0.292 HD
ENDBRANCH  50  51
BRANCH  45  54
ATOM     53  C   UNL     1      10.413   5.412  23.868  0.00  0.00    +0.277 C 
ATOM     54  O   UNL     1       9.047   5.796  23.731  0.00  0.00    -0.491 OA
ENDBRANCH  45  54
ENDBRANCH  43  47
ENDBRANCH  41  44
ENDBRANCH  40  41
ENDBRANCH  39  40
ENDBRANCH   1  39
TORSDOF 17
ENDMDL
MODEL 2
REMARK VINA RESULT:      -7.6      2.356      9.247
REMARK  Name = 
REMARK  18 active torsions:
REMARK  status: ('A' for Active; 'I' for Inactive)
REMARK    1  A    between atoms: C_1  and  O_2
REMARK    2  A    between atoms: O_2  and  C_3
REMARK    3  A    between atoms: C_4  and  O_51
REMARK    4  A    between atoms: C_7  and  C_9
REMARK    5  A    between atoms: C_10  and  C_11
REMARK    6  A    between atoms: C_11  and  O_13
REMARK    7  A    between atoms: O_13  and  C_14
REMARK    8  A    between atoms: C_14  and  C_15
REMARK    9  A    between atoms: C_17  and  O_50
REMARK   10  A    between atoms: C_19  and  O_49
REMARK   11  A    between atoms: C_21  and  O_48
REMARK   12  A    between atoms: C_23  and  O_26
REMARK   13  A    between atoms: O_26  and  C_27
REMARK   14  A    between atoms: C_28  and  C_40
REMARK   15  A    between atoms: C_32  and  O_39
REMARK   16  A    between atoms: C_34  and  O_38
REMARK   17  A    between atoms: C_42  and  O_47
REMARK   18  A    between atoms: C_43  and  O_46
REMARK                            x       y       z     vdW  Elec       q    Type
REMARK                         _______ _______ _______ _____ _____    ______ ____
ROOT
ATOM      1  C   UNL     1       9.038  -0.058  24.933  0.00  0.00    +0.191 C 
ATOM      2  O   UNL     1       9.352   1.329  24.741  0.00  0.00    -0.330 OA
ATOM      3  C   UNL     1       8.889   1.798  23.466  0.00  0.00    +0.340 C 
ATOM      4  C   UNL     1       9.634   1.074  22.324  0.00  0.00    +0.214 C 
ATOM      5  C   UNL     1       9.400  -0.432  22.472  0.00  0.00    +0.180 C 
ATOM      6  C   UNL     1       9.772  -0.912  23.881  0.00  0.00    +0.178 C 
ENDROOT
BRANCH   6   7
ATOM      7  O   UNL     1       9.443  -2.303  23.963  0.00  0.00    -0.386 OA
ATOM      8  H   UNL     1       9.936  -2.668  24.721  0.00  0.00    +0.210 HD
ENDBRANCH   6   7
BRANCH   5   9
ATOM      9  O   UNL     1      10.169  -1.163  21.509  0.00  0.00    -0.386 OA
ATOM     10  H   UNL     1      10.241  -2.068  21.871  0.00  0.00    +0.210 HD
ENDBRANCH   5   9
BRANCH   4  11
ATOM     11  O   UNL     1       9.205   1.540  21.033  0.00  0.00    -0.383 OA
ATOM     12  H   UNL     1       9.986   1.608  20.455  0.00  0.00    +0.210 HD
ENDBRANCH   4  11
BRANCH   3  13
ATOM     13  O   UNL     1       9.156   3.193  23.319  0.00  0.00    -0.453 OA
BRANCH  13  14
ATOM     14  C   UNL     1       8.081   4.059  23.333  0.00  0.00    +0.214 A 
ATOM     15  C   UNL     1       6.821   3.711  22.621  0.00  0.00    +0.238 A 
ATOM     16  O   UNL     1       6.804   2.864  21.736  0.00  0.00    -0.283 OA
ATOM     17  C   UNL     1       5.631   4.494  22.974  0.00  0.00    +0.109 A 
ATOM     18  C   UNL     1       5.840   5.728  23.589  0.00  0.00    +0.147 A 
ATOM     19  C   UNL     1       4.750   6.554  23.877  0.00  0.00    +0.092 A 
ATOM     20  C   UNL     1       3.462   6.122  23.552  0.00  0.00    +0.124 A 
ATOM     21  C   UNL     1       3.244   4.882  22.962  0.00  0.00    +0.091 A 
ATOM     22  O   UNL     1       7.097   6.193  23.916  0.00  0.00    -0.451 OA
ATOM     23  C   UNL     1       4.332   4.063  22.678  0.00  0.00    +0.135 A 
ATOM     24  C   UNL     1       8.173   5.308  23.845  0.00  0.00    +0.181 A 
BRANCH  24  25
ATOM     25  C   UNL     1       9.457   5.857  24.388  0.00  0.00    +0.025 A 
ATOM     26  C   UNL     1       9.483   6.640  25.557  0.00  0.00    +0.015 A 
ATOM     27  C   UNL     1      10.697   7.087  26.105  0.00  0.00    +0.050 A 
ATOM     28  C   UNL     1      11.892   6.739  25.495  0.00  0.00    +0.158 A 
ATOM     29  C   UNL     1      11.891   6.009  24.317  0.00  0.00    +0.159 A 
ATOM     30  C   UNL     1      10.689   5.612  23.743  0.00  0.00    +0.060 A 
BRANCH  29  31
ATOM     31  O   UNL     1      13.096   5.675  23.762  0.00  0.00    -0.503 OA
ATOM     32  H   UNL     1      13.371   4.818  24.135  0.00  0.00    +0.292 HD
ENDBRANCH  29  31
BRANCH  28  33
ATOM     33  O   UNL     1      13.077   7.107  26.063  0.00  0.00    -0.503 OA
ATOM     34  H   UNL     1      13.218   6.455  26.779  0.00  0.00    +0.292 HD
ENDBRANCH  28  33
ENDBRANCH  24  25
BRANCH  23  35
ATOM     35  O   UNL     1       4.110   2.831  22.132  0.00  0.00    -0.506 OA
ATOM     36  H   UNL     1       3.439   2.353  22.646  0.00  0.00    +0.292 HD
ENDBRANCH  23  35
BRANCH  20  37
ATOM     37  O   UNL     1       2.363   6.889  23.802  0.00  0.00    -0.507 OA
ATOM     38  H   UNL     1       2.537   7.801  23.517  0.00  0.00    +0.292 HD
ENDBRANCH  20  37
ENDBRANCH  13  14
ENDBRANCH   3  13
BRANCH   1  39
ATOM     39  C   UNL     1       9.423  -0.449  26.370  0.00  0.00    +0.266 C 
BRANCH  39  40
ATOM     40  O   UNL     1       8.449  -1.317  26.979  0.00  0.00    -0.459 OA
BRANCH  40  41
ATOM     41  C   UNL     1       7.156  -0.928  26.807  0.00  0.00    +0.332 C 
ATOM     42  O   UNL     1       6.672   0.140  27.139  0.00  0.00    -0.246 OA
BRANCH  41  44
ATOM     43  C   UNL     1       6.899  -3.251  26.128  0.00  0.00    +0.015 C 
ATOM     44  C   UNL     1       6.452  -1.990  26.064  0.00  0.00    +0.092 C 
BRANCH  43  47
ATOM     45  C   UNL     1       5.308  -5.523  23.536  0.00  0.00    +0.162 A 
ATOM     46  C   UNL     1       6.024  -4.467  24.106  0.00  0.00    +0.057 A 
ATOM     47  C   UNL     1       6.229  -4.405  25.495  0.00  0.00    -0.021 A 
ATOM     48  C   UNL     1       5.696  -5.416  26.309  0.00  0.00    +0.012 A 
ATOM     49  C   UNL     1       4.983  -6.477  25.747  0.00  0.00    +0.050 A 
ATOM     50  C   UNL     1       4.791  -6.516  24.372  0.00  0.00    +0.158 A 
BRANCH  50  51
ATOM     51  O   UNL     1       4.065  -7.551  23.849  0.00  0.00    -0.503 OA
ATOM     52  H   UNL     1       3.732  -7.221  22.992  0.00  0.00    +0.292 HD
ENDBRANCH  50  51
BRANCH  45  54
ATOM     53  C   UNL     1       6.151  -5.587  21.315  0.00  0.00    +0.277 C 
ATOM     54  O   UNL     1       5.037  -5.677  22.199  0.00  0.00    -0.491 OA
ENDBRANCH  45  54
ENDBRANCH  43  47
ENDBRANCH  41  44
ENDBRANCH  40  41
ENDBRANCH  39  40
ENDBRANCH   1  39
TORSDOF 17
ENDMDL
MODEL 3
REMARK VINA RESULT:      -7.1      2.052      6.022
REMARK  Name = 
REMARK  18 active torsions:
REMARK  status: ('A' for Active; 'I' for Inactive)
REMARK    1  A    between atoms: C_1  and  O_2
REMARK    2  A    between atoms: O_2  and  C_3
REMARK    3  A    between atoms: C_4  and  O_51
REMARK    4  A    between atoms: C_7  and  C_9
REMARK    5  A    between atoms: C_10  and  C_11
REMARK    6  A    between atoms: C_11  and  O_13
REMARK    7  A    between atoms: O_13  and  C_14
REMARK    8  A    between atoms: C_14  and  C_15
REMARK    9  A    between atoms: C_17  and  O_50
REMARK   10  A    between atoms: C_19  and  O_49
REMARK   11  A    between atoms: C_21  and  O_48
REMARK   12  A    between atoms: C_23  and  O_26
REMARK   13  A    between atoms: O_26  and  C_27
REMARK   14  A    between atoms: C_28  and  C_40
REMARK   15  A    between atoms: C_32  and  O_39
REMARK   16  A    between atoms: C_34  and  O_38
REMARK   17  A    between atoms: C_42  and  O_47
REMARK   18  A    between atoms: C_43  and  O_46
REMARK                            x       y       z     vdW  Elec       q    Type
REMARK                         _______ _______ _______ _____ _____    ______ ____
ROOT
ATOM      1  C   UNL     1       5.453   1.739  25.972  0.00  0.00    +0.191 C 
ATOM      2  O   UNL     1       6.419   0.750  25.587  0.00  0.00    -0.330 OA
ATOM      3  C   UNL     1       6.930   0.046  26.729  0.00  0.00    +0.340 C 
ATOM      4  C   UNL     1       7.712   1.010  27.648  0.00  0.00    +0.214 C 
ATOM      5  C   UNL     1       6.772   2.139  28.077  0.00  0.00    +0.180 C 
ATOM      6  C   UNL     1       6.122   2.808  26.858  0.00  0.00    +0.178 C 
ENDROOT
BRANCH   6   7
ATOM      7  O   UNL     1       5.198   3.787  27.346  0.00  0.00    -0.386 OA
ATOM      8  H   UNL     1       4.361   3.654  26.863  0.00  0.00    +0.210 HD
ENDBRANCH   6   7
BRANCH   5   9
ATOM      9  O   UNL     1       7.479   3.130  28.834  0.00  0.00    -0.386 OA
ATOM     10  H   UNL     1       7.614   3.877  28.217  0.00  0.00    +0.210 HD
ENDBRANCH   5   9
BRANCH   4  11
ATOM     11  O   UNL     1       8.254   0.327  28.791  0.00  0.00    -0.383 OA
ATOM     12  H   UNL     1       8.598  -0.537  28.500  0.00  0.00    +0.210 HD
ENDBRANCH   4  11
BRANCH   3  13
ATOM     13  O   UNL     1       7.842  -0.973  26.321  0.00  0.00    -0.453 OA
BRANCH  13  14
ATOM     14  C   UNL     1       7.382  -1.938  25.448  0.00  0.00    +0.214 A 
ATOM     15  C   UNL     1       6.808  -3.211  25.963  0.00  0.00    +0.238 A 
ATOM     16  O   UNL     1       7.040  -3.598  27.103  0.00  0.00    -0.283 OA
ATOM     17  C   UNL     1       6.028  -4.011  25.012  0.00  0.00    +0.109 A 
ATOM     18  C   UNL     1       6.233  -3.765  23.655  0.00  0.00    +0.147 A 
ATOM     19  C   UNL     1       5.579  -4.549  22.700  0.00  0.00    +0.092 A 
ATOM     20  C   UNL     1       4.718  -5.563  23.125  0.00  0.00    +0.124 A 
ATOM     21  C   UNL     1       4.489  -5.797  24.476  0.00  0.00    +0.091 A 
ATOM     22  O   UNL     1       7.083  -2.779  23.198  0.00  0.00    -0.451 OA
ATOM     23  C   UNL     1       5.142  -5.014  25.423  0.00  0.00    +0.135 A 
ATOM     24  C   UNL     1       7.573  -1.846  24.112  0.00  0.00    +0.181 A 
BRANCH  24  25
ATOM     25  C   UNL     1       8.339  -0.720  23.489  0.00  0.00    +0.025 A 
ATOM     26  C   UNL     1       9.722  -0.566  23.703  0.00  0.00    +0.015 A 
ATOM     27  C   UNL     1      10.449   0.445  23.053  0.00  0.00    +0.050 A 
ATOM     28  C   UNL     1       9.801   1.298  22.174  0.00  0.00    +0.158 A 
ATOM     29  C   UNL     1       8.432   1.197  21.982  0.00  0.00    +0.159 A 
ATOM     30  C   UNL     1       7.700   0.232  22.665  0.00  0.00    +0.060 A 
BRANCH  29  31
ATOM     31  O   UNL     1       7.839   2.050  21.092  0.00  0.00    -0.503 OA
ATOM     32  H   UNL     1       8.221   2.937  21.226  0.00  0.00    +0.292 HD
ENDBRANCH  29  31
BRANCH  28  33
ATOM     33  O   UNL     1      10.515   2.235  21.485  0.00  0.00    -0.503 OA
ATOM     34  H   UNL     1      10.262   3.086  21.897  0.00  0.00    +0.292 HD
ENDBRANCH  28  33
ENDBRANCH  24  25
BRANCH  23  35
ATOM     35  O   UNL     1       4.885  -5.224  26.748  0.00  0.00    -0.506 OA
ATOM     36  H   UNL     1       3.987  -4.927  26.966  0.00  0.00    +0.292 HD
ENDBRANCH  23  35
BRANCH  20  37
ATOM     37  O   UNL     1       4.060  -6.364  22.239  0.00  0.00    -0.507 OA
ATOM     38  H   UNL     1       4.341  -7.284  22.368  0.00  0.00    +0.292 HD
ENDBRANCH  20  37
ENDBRANCH  13  14
ENDBRANCH   3  13
BRANCH   1  39
ATOM     39  C   UNL     1       4.839   2.342  24.697  0.00  0.00    +0.266 C 
BRANCH  39  40
ATOM     40  O   UNL     1       5.833   2.934  23.840  0.00  0.00    -0.459 OA
BRANCH  40  41
ATOM     41  C   UNL     1       5.584   4.224  23.488  0.00  0.00    +0.332 C 
ATOM     42  O   UNL     1       4.535   4.665  23.052  0.00  0.00    -0.246 OA
BRANCH  41  44
ATOM     43  C   UNL     1       7.969   4.423  23.934  0.00  0.00    +0.015 C 
ATOM     44  C   UNL     1       6.779   5.026  23.809  0.00  0.00    +0.092 C 
BRANCH  43  47
ATOM     45  C   UNL     1      11.653   5.337  23.887  0.00  0.00    +0.162 A 
ATOM     46  C   UNL     1      10.443   4.708  23.580  0.00  0.00    +0.057 A 
ATOM     47  C   UNL     1       9.241   5.132  24.171  0.00  0.00    -0.021 A 
ATOM     48  C   UNL     1       9.270   6.195  25.087  0.00  0.00    +0.012 A 
ATOM     49  C   UNL     1      10.474   6.831  25.397  0.00  0.00    +0.050 A 
ATOM     50  C   UNL     1      11.649   6.394  24.802  0.00  0.00    +0.158 A 
BRANCH  50  51
ATOM     51  O   UNL     1      12.818   7.016  25.144  0.00  0.00    -0.503 OA
ATOM     52  H   UNL     1      12.558   7.720  25.769  0.00  0.00    +0.292 HD
ENDBRANCH  50  51
BRANCH  45  54
ATOM     53  C   UNL     1      13.227   5.572  22.123  0.00  0.00    +0.277 C 
ATOM     54  O   UNL     1      12.883   4.998  23.381  0.00  0.00    -0.491 OA
ENDBRANCH  45  54
ENDBRANCH  43  47
ENDBRANCH  41  44
ENDBRANCH  40  41
ENDBRANCH  39  40
ENDBRANCH   1  39
TORSDOF 17
ENDMDL
MODEL 4
REMARK VINA RESULT:      -7.1      2.149      8.110
REMARK  Name = 
REMARK  18 active torsions:
REMARK  status: ('A' for Active; 'I' for Inactive)
REMARK    1  A    between atoms: C_1  and  O_2
REMARK    2  A    between atoms: O_2  and  C_3
REMARK    3  A    between atoms: C_4  and  O_51
REMARK    4  A    between atoms: C_7  and  C_9
REMARK    5  A    between atoms: C_10  and  C_11
REMARK    6  A    between atoms: C_11  and  O_13
REMARK    7  A    between atoms: O_13  and  C_14
REMARK    8  A    between atoms: C_14  and  C_15
REMARK    9  A    between atoms: C_17  and  O_50
REMARK   10  A    between atoms: C_19  and  O_49
REMARK   11  A    between atoms: C_21  and  O_48
REMARK   12  A    between atoms: C_23  and  O_26
REMARK   13  A    between atoms: O_26  and  C_27
REMARK   14  A    between atoms: C_28  and  C_40
REMARK   15  A    between atoms: C_32  and  O_39
REMARK   16  A    between atoms: C_34  and  O_38
REMARK   17  A    between atoms: C_42  and  O_47
REMARK   18  A    between atoms: C_43  and  O_46
REMARK                            x       y       z     vdW  Elec       q    Type
REMARK                         _______ _______ _______ _____ _____    ______ ____
ROOT
ATOM      1  C   UNL     1       5.659  -0.917  27.504  0.00  0.00    +0.191 C 
ATOM      2  O   UNL     1       6.585  -1.230  26.454  0.00  0.00    -0.330 OA
ATOM      3  C   UNL     1       7.688  -0.312  26.439  0.00  0.00    +0.340 C 
ATOM      4  C   UNL     1       7.197   1.113  26.105  0.00  0.00    +0.214 C 
ATOM      5  C   UNL     1       6.158   1.524  27.152  0.00  0.00    +0.180 C 
ATOM      6  C   UNL     1       5.043   0.475  27.263  0.00  0.00    +0.178 C 
ENDROOT
BRANCH   6   7
ATOM      7  O   UNL     1       4.165   0.888  28.316  0.00  0.00    -0.386 OA
ATOM      8  H   UNL     1       3.827   0.077  28.739  0.00  0.00    +0.210 HD
ENDBRANCH   6   7
BRANCH   5   9
ATOM      9  O   UNL     1       5.577   2.791  26.821  0.00  0.00    -0.386 OA
ATOM     10  H   UNL     1       5.108   3.079  27.630  0.00  0.00    +0.210 HD
ENDBRANCH   5   9
BRANCH   4  11
ATOM     11  O   UNL     1       8.285   2.051  26.062  0.00  0.00    -0.383 OA
ATOM     12  H   UNL     1       9.044   1.665  26.534  0.00  0.00    +0.210 HD
ENDBRANCH   4  11
BRANCH   3  13
ATOM     13  O   UNL     1       8.628  -0.676  25.427  0.00  0.00    -0.453 OA
BRANCH  13  14
ATOM     14  C   UNL     1       8.206  -1.541  24.437  0.00  0.00    +0.214 A 
ATOM     15  C   UNL     1       8.322  -3.013  24.620  0.00  0.00    +0.238 A 
ATOM     16  O   UNL     1       9.090  -3.492  25.446  0.00  0.00    -0.283 OA
ATOM     17  C   UNL     1       7.541  -3.852  23.704  0.00  0.00    +0.109 A 
ATOM     18  C   UNL     1       7.113  -3.266  22.513  0.00  0.00    +0.147 A 
ATOM     19  C   UNL     1       6.432  -4.036  21.566  0.00  0.00    +0.092 A 
ATOM     20  C   UNL     1       6.183  -5.384  21.834  0.00  0.00    +0.124 A 
ATOM     21  C   UNL     1       6.585  -5.968  23.030  0.00  0.00    +0.091 A 
ATOM     22  O   UNL     1       7.348  -1.942  22.209  0.00  0.00    -0.451 OA
ATOM     23  C   UNL     1       7.261  -5.198  23.970  0.00  0.00    +0.135 A 
ATOM     24  C   UNL     1       7.823  -1.101  23.216  0.00  0.00    +0.181 A 
BRANCH  24  25
ATOM     25  C   UNL     1       7.877   0.346  22.834  0.00  0.00    +0.025 A 
ATOM     26  C   UNL     1       6.703   1.094  22.624  0.00  0.00    +0.015 A 
ATOM     27  C   UNL     1       6.757   2.469  22.343  0.00  0.00    +0.050 A 
ATOM     28  C   UNL     1       7.986   3.108  22.287  0.00  0.00    +0.158 A 
ATOM     29  C   UNL     1       9.159   2.385  22.444  0.00  0.00    +0.159 A 
ATOM     30  C   UNL     1       9.110   1.014  22.668  0.00  0.00    +0.060 A 
BRANCH  29  31
ATOM     31  O   UNL     1      10.346   3.063  22.397  0.00  0.00    -0.503 OA
ATOM     32  H   UNL     1      10.195   3.900  21.921  0.00  0.00    +0.292 HD
ENDBRANCH  29  31
BRANCH  28  33
ATOM     33  O   UNL     1       8.042   4.456  22.087  0.00  0.00    -0.503 OA
ATOM     34  H   UNL     1       8.259   4.554  21.138  0.00  0.00    +0.292 HD
ENDBRANCH  28  33
ENDBRANCH  24  25
BRANCH  23  35
ATOM     35  O   UNL     1       7.621  -5.766  25.159  0.00  0.00    -0.506 OA
ATOM     36  H   UNL     1       6.880  -6.274  25.526  0.00  0.00    +0.292 HD
ENDBRANCH  23  35
BRANCH  20  37
ATOM     37  O   UNL     1       5.532  -6.185  20.943  0.00  0.00    -0.507 OA
ATOM     38  H   UNL     1       4.767  -6.592  21.379  0.00  0.00    +0.292 HD
ENDBRANCH  20  37
ENDBRANCH  13  14
ENDBRANCH   3  13
BRANCH   1  39
ATOM     39  C   UNL     1       4.592  -2.024  27.559  0.00  0.00    +0.266 C 
BRANCH  39  40
ATOM     40  O   UNL     1       5.026  -3.163  28.324  0.00  0.00    -0.459 OA
BRANCH  40  41
ATOM     41  C   UNL     1       5.613  -4.148  27.593  0.00  0.00    +0.332 C 
ATOM     42  O   UNL     1       6.656  -4.722  27.857  0.00  0.00    -0.246 OA
BRANCH  41  44
ATOM     43  C   UNL     1       4.384  -5.749  26.232  0.00  0.00    +0.015 C 
ATOM     44  C   UNL     1       4.723  -4.473  26.463  0.00  0.00    +0.092 C 
BRANCH  43  47
ATOM     45  C   UNL     1       2.040  -7.888  24.148  0.00  0.00    +0.162 A 
ATOM     46  C   UNL     1       2.863  -7.464  25.195  0.00  0.00    +0.057 A 
ATOM     47  C   UNL     1       3.437  -6.182  25.185  0.00  0.00    -0.021 A 
ATOM     48  C   UNL     1       3.181  -5.329  24.101  0.00  0.00    +0.012 A 
ATOM     49  C   UNL     1       2.358  -5.743  23.051  0.00  0.00    +0.050 A 
ATOM     50  C   UNL     1       1.803  -7.015  23.082  0.00  0.00    +0.158 A 
BRANCH  50  51
ATOM     51  O   UNL     1       1.022  -7.406  22.029  0.00  0.00    -0.503 OA
ATOM     52  H   UNL     1       0.199  -6.886  22.116  0.00  0.00    +0.292 HD
ENDBRANCH  50  51
BRANCH  45  54
ATOM     53  C   UNL     1       1.255  -9.831  25.268  0.00  0.00    +0.277 C 
ATOM     54  O   UNL     1       1.440  -9.118  24.048  0.00  0.00    -0.491 OA
ENDBRANCH  45  54
ENDBRANCH  43  47
ENDBRANCH  41  44
ENDBRANCH  40  41
ENDBRANCH  39  40
ENDBRANCH   1  39
TORSDOF 17
ENDMDL
MODEL 5
REMARK VINA RESULT:      -7.0      2.059      7.635
REMARK  Name = 
REMARK  18 active torsions:
REMARK  status: ('A' for Active; 'I' for Inactive)
REMARK    1  A    between atoms: C_1  and  O_2
REMARK    2  A    between atoms: O_2  and  C_3
REMARK    3  A    between atoms: C_4  and  O_51
REMARK    4  A    between atoms: C_7  and  C_9
REMARK    5  A    between atoms: C_10  and  C_11
REMARK    6  A    between atoms: C_11  and  O_13
REMARK    7  A    between atoms: O_13  and  C_14
REMARK    8  A    between atoms: C_14  and  C_15
REMARK    9  A    between atoms: C_17  and  O_50
REMARK   10  A    between atoms: C_19  and  O_49
REMARK   11  A    between atoms: C_21  and  O_48
REMARK   12  A    between atoms: C_23  and  O_26
REMARK   13  A    between atoms: O_26  and  C_27
REMARK   14  A    between atoms: C_28  and  C_40
REMARK   15  A    between atoms: C_32  and  O_39
REMARK   16  A    between atoms: C_34  and  O_38
REMARK   17  A    between atoms: C_42  and  O_47
REMARK   18  A    between atoms: C_43  and  O_46
REMARK                            x       y       z     vdW  Elec       q    Type
REMARK                         _______ _______ _______ _____ _____    ______ ____
ROOT
ATOM      1  C   UNL     1       4.788   0.154  27.416  0.00  0.00    +0.191 C 
ATOM      2  O   UNL     1       5.736   0.044  26.345  0.00  0.00    -0.330 OA
ATOM      3  C   UNL     1       6.986  -0.490  26.807  0.00  0.00    +0.340 C 
ATOM      4  C   UNL     1       7.648   0.482  27.807  0.00  0.00    +0.214 C 
ATOM      5  C   UNL     1       6.684   0.705  28.975  0.00  0.00    +0.180 C 
ATOM      6  C   UNL     1       5.304   1.150  28.473  0.00  0.00    +0.178 C 
ENDROOT
BRANCH   6   7
ATOM      7  O   UNL     1       4.443   1.252  29.612  0.00  0.00    -0.386 OA
ATOM      8  H   UNL     1       4.884   0.783  30.345  0.00  0.00    +0.210 HD
ENDBRANCH   6   7
BRANCH   5   9
ATOM      9  O   UNL     1       7.197   1.696  29.875  0.00  0.00    -0.386 OA
ATOM     10  H   UNL     1       7.132   2.542  29.391  0.00  0.00    +0.210 HD
ENDBRANCH   5   9
BRANCH   4  11
ATOM     11  O   UNL     1       8.915  -0.017  28.270  0.00  0.00    -0.383 OA
ATOM     12  H   UNL     1       9.399   0.715  28.692  0.00  0.00    +0.210 HD
ENDBRANCH   4  11
BRANCH   3  13
ATOM     13  O   UNL     1       7.895  -0.649  25.717  0.00  0.00    -0.453 OA
BRANCH  13  14
ATOM     14  C   UNL     1       7.571  -1.566  24.737  0.00  0.00    +0.214 A 
ATOM     15  C   UNL     1       7.606  -3.025  25.028  0.00  0.00    +0.238 A 
ATOM     16  O   UNL     1       8.241  -3.470  25.978  0.00  0.00    -0.283 OA
ATOM     17  C   UNL     1       6.918  -3.901  24.072  0.00  0.00    +0.109 A 
ATOM     18  C   UNL     1       6.672  -3.385  22.800  0.00  0.00    +0.147 A 
ATOM     19  C   UNL     1       6.091  -4.198  21.822  0.00  0.00    +0.092 A 
ATOM     20  C   UNL     1       5.756  -5.516  22.141  0.00  0.00    +0.124 A 
ATOM     21  C   UNL     1       5.976  -6.029  23.415  0.00  0.00    +0.091 A 
ATOM     22  O   UNL     1       6.996  -2.093  22.446  0.00  0.00    -0.451 OA
ATOM     23  C   UNL     1       6.554  -5.217  24.385  0.00  0.00    +0.135 A 
ATOM     24  C   UNL     1       7.368  -1.200  23.451  0.00  0.00    +0.181 A 
BRANCH  24  25
ATOM     25  C   UNL     1       7.528   0.216  22.988  0.00  0.00    +0.025 A 
ATOM     26  C   UNL     1       6.490   1.155  23.131  0.00  0.00    +0.015 A 
ATOM     27  C   UNL     1       6.672   2.500  22.767  0.00  0.00    +0.050 A 
ATOM     28  C   UNL     1       7.898   2.915  22.272  0.00  0.00    +0.158 A 
ATOM     29  C   UNL     1       8.921   2.000  22.077  0.00  0.00    +0.159 A 
ATOM     30  C   UNL     1       8.726   0.658  22.386  0.00  0.00    +0.060 A 
BRANCH  29  31
ATOM     31  O   UNL     1      10.119   2.460  21.603  0.00  0.00    -0.503 OA
ATOM     32  H   UNL     1      10.004   2.679  20.660  0.00  0.00    +0.292 HD
ENDBRANCH  29  31
BRANCH  28  33
ATOM     33  O   UNL     1       8.105   4.233  21.986  0.00  0.00    -0.503 OA
ATOM     34  H   UNL     1       8.480   4.606  22.810  0.00  0.00    +0.292 HD
ENDBRANCH  28  33
ENDBRANCH  24  25
BRANCH  23  35
ATOM     35  O   UNL     1       6.733  -5.713  25.644  0.00  0.00    -0.506 OA
ATOM     36  H   UNL     1       7.472  -6.343  25.654  0.00  0.00    +0.292 HD
ENDBRANCH  23  35
BRANCH  20  37
ATOM     37  O   UNL     1       5.196  -6.356  21.225  0.00  0.00    -0.507 OA
ATOM     38  H   UNL     1       4.349  -6.685  21.567  0.00  0.00    +0.292 HD
ENDBRANCH  20  37
ENDBRANCH  13  14
ENDBRANCH   3  13
BRANCH   1  39
ATOM     39  C   UNL     1       3.434   0.583  26.825  0.00  0.00    +0.266 C 
BRANCH  39  40
ATOM     40  O   UNL     1       2.532  -0.528  26.665  0.00  0.00    -0.459 OA
BRANCH  40  41
ATOM     41  C   UNL     1       2.441  -1.346  27.748  0.00  0.00    +0.332 C 
ATOM     42  O   UNL     1       2.349  -0.999  28.912  0.00  0.00    -0.246 OA
BRANCH  41  44
ATOM     43  C   UNL     1       2.853  -3.040  26.048  0.00  0.00    +0.015 C 
ATOM     44  C   UNL     1       2.380  -2.739  27.265  0.00  0.00    +0.092 C 
BRANCH  43  47
ATOM     45  C   UNL     1       2.515  -6.003  23.699  0.00  0.00    +0.162 A 
ATOM     46  C   UNL     1       2.531  -4.690  24.176  0.00  0.00    +0.057 A 
ATOM     47  C   UNL     1       2.920  -4.408  25.496  0.00  0.00    -0.021 A 
ATOM     48  C   UNL     1       3.286  -5.467  26.340  0.00  0.00    +0.012 A 
ATOM     49  C   UNL     1       3.276  -6.783  25.871  0.00  0.00    +0.050 A 
ATOM     50  C   UNL     1       2.886  -7.038  24.563  0.00  0.00    +0.158 A 
BRANCH  50  51
ATOM     51  O   UNL     1       2.859  -8.337  24.138  0.00  0.00    -0.503 OA
ATOM     52  H   UNL     1       2.426  -8.832  24.860  0.00  0.00    +0.292 HD
ENDBRANCH  50  51
BRANCH  45  54
ATOM     53  C   UNL     1       0.742  -6.402  22.169  0.00  0.00    +0.277 C 
ATOM     54  O   UNL     1       2.141  -6.394  22.438  0.00  0.00    -0.491 OA
ENDBRANCH  45  54
ENDBRANCH  43  47
ENDBRANCH  41  44
ENDBRANCH  40  41
ENDBRANCH  39  40
ENDBRANCH   1  39
TORSDOF 17
ENDMDL
MODEL 6
REMARK VINA RESULT:      -7.0      2.165      7.388
REMARK  Name = 
REMARK  18 active torsions:
REMARK  status: ('A' for Active; 'I' for Inactive)
REMARK    1  A    between atoms: C_1  and  O_2
REMARK    2  A    between atoms: O_2  and  C_3
REMARK    3  A    between atoms: C_4  and  O_51
REMARK    4  A    between atoms: C_7  and  C_9
REMARK    5  A    between atoms: C_10  and  C_11
REMARK    6  A    between atoms: C_11  and  O_13
REMARK    7  A    between atoms: O_13  and  C_14
REMARK    8  A    between atoms: C_14  and  C_15
REMARK    9  A    between atoms: C_17  and  O_50
REMARK   10  A    between atoms: C_19  and  O_49
REMARK   11  A    between atoms: C_21  and  O_48
REMARK   12  A    between atoms: C_23  and  O_26
REMARK   13  A    between atoms: O_26  and  C_27
REMARK   14  A    between atoms: C_28  and  C_40
REMARK   15  A    between atoms: C_32  and  O_39
REMARK   16  A    between atoms: C_34  and  O_38
REMARK   17  A    between atoms: C_42  and  O_47
REMARK   18  A    between atoms: C_43  and  O_46
REMARK                            x       y       z     vdW  Elec       q    Type
REMARK                         _______ _______ _______ _____ _____    ______ ____
ROOT
ATOM      1  C   UNL     1       6.019  -0.545  26.966  0.00  0.00    +0.191 C 
ATOM      2  O   UNL     1       6.276  -0.237  25.588  0.00  0.00    -0.330 OA
ATOM      3  C   UNL     1       6.401   1.178  25.384  0.00  0.00    +0.340 C 
ATOM      4  C   UNL     1       5.064   1.886  25.693  0.00  0.00    +0.214 C 
ATOM      5  C   UNL     1       4.675   1.575  27.140  0.00  0.00    +0.180 C 
ATOM      6  C   UNL     1       4.669   0.062  27.396  0.00  0.00    +0.178 C 
ENDROOT
BRANCH   6   7
ATOM      7  O   UNL     1       4.383  -0.140  28.785  0.00  0.00    -0.386 OA
ATOM      8  H   UNL     1       3.437  -0.369  28.850  0.00  0.00    +0.210 HD
ENDBRANCH   6   7
BRANCH   5   9
ATOM      9  O   UNL     1       3.380   2.107  27.444  0.00  0.00    -0.386 OA
ATOM     10  H   UNL     1       2.806   1.326  27.580  0.00  0.00    +0.210 HD
ENDBRANCH   5   9
BRANCH   4  11
ATOM     11  O   UNL     1       5.154   3.304  25.475  0.00  0.00    -0.383 OA
ATOM     12  H   UNL     1       4.302   3.617  25.123  0.00  0.00    +0.210 HD
ENDBRANCH   4  11
BRANCH   3  13
ATOM     13  O   UNL     1       6.717   1.460  24.020  0.00  0.00    -0.453 OA
BRANCH  13  14
ATOM     14  C   UNL     1       7.937   2.047  23.749  0.00  0.00    +0.214 A 
ATOM     15  C   UNL     1       8.042   3.520  23.564  0.00  0.00    +0.238 A 
ATOM     16  O   UNL     1       7.058   4.198  23.292  0.00  0.00    -0.283 OA
ATOM     17  C   UNL     1       9.390   4.095  23.638  0.00  0.00    +0.109 A 
ATOM     18  C   UNL     1      10.464   3.227  23.446  0.00  0.00    +0.147 A 
ATOM     19  C   UNL     1      11.768   3.730  23.427  0.00  0.00    +0.092 A 
ATOM     20  C   UNL     1      11.974   5.099  23.611  0.00  0.00    +0.124 A 
ATOM     21  C   UNL     1      10.909   5.967  23.828  0.00  0.00    +0.091 A 
ATOM     22  O   UNL     1      10.299   1.872  23.252  0.00  0.00    -0.451 OA
ATOM     23  C   UNL     1       9.614   5.462  23.847  0.00  0.00    +0.135 A 
ATOM     24  C   UNL     1       9.042   1.313  23.485  0.00  0.00    +0.181 A 
BRANCH  24  25
ATOM     25  C   UNL     1       9.012  -0.183  23.418  0.00  0.00    +0.025 A 
ATOM     26  C   UNL     1       9.899  -0.969  24.178  0.00  0.00    +0.015 A 
ATOM     27  C   UNL     1       9.815  -2.371  24.172  0.00  0.00    +0.050 A 
ATOM     28  C   UNL     1       8.833  -2.994  23.418  0.00  0.00    +0.158 A 
ATOM     29  C   UNL     1       7.979  -2.245  22.624  0.00  0.00    +0.159 A 
ATOM     30  C   UNL     1       8.094  -0.860  22.586  0.00  0.00    +0.060 A 
BRANCH  29  31
ATOM     31  O   UNL     1       7.015  -2.904  21.911  0.00  0.00    -0.503 OA
ATOM     32  H   UNL     1       7.445  -3.636  21.431  0.00  0.00    +0.292 HD
ENDBRANCH  29  31
BRANCH  28  33
ATOM     33  O   UNL     1       8.699  -4.351  23.465  0.00  0.00    -0.503 OA
ATOM     34  H   UNL     1       8.503  -4.610  22.541  0.00  0.00    +0.292 HD
ENDBRANCH  28  33
ENDBRANCH  24  25
BRANCH  23  35
ATOM     35  O   UNL     1       8.574   6.312  24.098  0.00  0.00    -0.506 OA
ATOM     36  H   UNL     1       8.025   5.967  24.820  0.00  0.00    +0.292 HD
ENDBRANCH  23  35
BRANCH  20  37
ATOM     37  O   UNL     1      13.223   5.646  23.592  0.00  0.00    -0.507 OA
ATOM     38  H   UNL     1      13.779   5.198  24.250  0.00  0.00    +0.292 HD
ENDBRANCH  20  37
ENDBRANCH  13  14
ENDBRANCH   3  13
BRANCH   1  39
ATOM     39  C   UNL     1       6.050  -2.074  27.137  0.00  0.00    +0.266 C 
BRANCH  39  40
ATOM     40  O   UNL     1       7.331  -2.635  26.794  0.00  0.00    -0.459 OA
BRANCH  40  41
ATOM     41  C   UNL     1       7.332  -3.986  26.627  0.00  0.00    +0.332 C 
ATOM     42  O   UNL     1       8.050  -4.785  27.201  0.00  0.00    -0.246 OA
BRANCH  41  44
ATOM     43  C   UNL     1       5.523  -5.442  25.897  0.00  0.00    +0.015 C 
ATOM     44  C   UNL     1       6.245  -4.332  25.692  0.00  0.00    +0.092 C 
BRANCH  43  47
ATOM     45  C   UNL     1       2.839  -7.546  24.229  0.00  0.00    +0.162 A 
ATOM     46  C   UNL     1       3.880  -7.163  25.079  0.00  0.00    +0.057 A 
ATOM     47  C   UNL     1       4.364  -5.844  25.076  0.00  0.00    -0.021 A 
ATOM     48  C   UNL     1       3.792  -4.911  24.198  0.00  0.00    +0.012 A 
ATOM     49  C   UNL     1       2.749  -5.283  23.347  0.00  0.00    +0.050 A 
ATOM     50  C   UNL     1       2.289  -6.593  23.366  0.00  0.00    +0.158 A 
BRANCH  50  51
ATOM     51  O   UNL     1       1.286  -6.938  22.503  0.00  0.00    -0.503 OA
ATOM     52  H   UNL     1       1.309  -6.260  21.801  0.00  0.00    +0.292 HD
ENDBRANCH  50  51
BRANCH  45  54
ATOM     53  C   UNL     1       1.466  -9.212  25.218  0.00  0.00    +0.277 C 
ATOM     54  O   UNL     1       2.300  -8.804  24.138  0.00  0.00    -0.491 OA
ENDBRANCH  45  54
ENDBRANCH  43  47
ENDBRANCH  41  44
ENDBRANCH  40  41
ENDBRANCH  39  40
ENDBRANCH   1  39
TORSDOF 17
ENDMDL
MODEL 7
REMARK VINA RESULT:      -7.0      2.370      7.216
REMARK  Name = 
REMARK  18 active torsions:
REMARK  status: ('A' for Active; 'I' for Inactive)
REMARK    1  A    between atoms: C_1  and  O_2
REMARK    2  A    between atoms: O_2  and  C_3
REMARK    3  A    between atoms: C_4  and  O_51
REMARK    4  A    between atoms: C_7  and  C_9
REMARK    5  A    between atoms: C_10  and  C_11
REMARK    6  A    between atoms: C_11  and  O_13
REMARK    7  A    between atoms: O_13  and  C_14
REMARK    8  A    between atoms: C_14  and  C_15
REMARK    9  A    between atoms: C_17  and  O_50
REMARK   10  A    between atoms: C_19  and  O_49
REMARK   11  A    between atoms: C_21  and  O_48
REMARK   12  A    between atoms: C_23  and  O_26
REMARK   13  A    between atoms: O_26  and  C_27
REMARK   14  A    between atoms: C_28  and  C_40
REMARK   15  A    between atoms: C_32  and  O_39
REMARK   16  A    between atoms: C_34  and  O_38
REMARK   17  A    between atoms: C_42  and  O_47
REMARK   18  A    between atoms: C_43  and  O_46
REMARK                            x       y       z     vdW  Elec       q    Type
REMARK                         _______ _______ _______ _____ _____    ______ ____
ROOT
ATOM      1  C   UNL     1       5.664  -3.187  27.786  0.00  0.00    +0.191 C 
ATOM      2  O   UNL     1       5.489  -2.846  26.403  0.00  0.00    -0.330 OA
ATOM      3  C   UNL     1       5.075  -1.480  26.251  0.00  0.00    +0.340 C 
ATOM      4  C   UNL     1       3.681  -1.267  26.878  0.00  0.00    +0.214 C 
ATOM      5  C   UNL     1       3.752  -1.655  28.358  0.00  0.00    +0.180 C 
ATOM      6  C   UNL     1       4.319  -3.070  28.529  0.00  0.00    +0.178 C 
ENDROOT
BRANCH   6   7
ATOM      7  O   UNL     1       4.434  -3.321  29.935  0.00  0.00    -0.386 OA
ATOM      8  H   UNL     1       3.954  -4.151  30.116  0.00  0.00    +0.210 HD
ENDBRANCH   6   7
BRANCH   5   9
ATOM      9  O   UNL     1       2.454  -1.594  28.962  0.00  0.00    -0.386 OA
ATOM     10  H   UNL     1       2.525  -0.909  29.657  0.00  0.00    +0.210 HD
ENDBRANCH   5   9
BRANCH   4  11
ATOM     11  O   UNL     1       3.231   0.089  26.721  0.00  0.00    -0.383 OA
ATOM     12  H   UNL     1       2.460   0.092  26.126  0.00  0.00    +0.210 HD
ENDBRANCH   4  11
BRANCH   3  13
ATOM     13  O   UNL     1       4.965  -1.142  24.868  0.00  0.00    -0.453 OA
BRANCH  13  14
ATOM     14  C   UNL     1       5.993  -0.417  24.298  0.00  0.00    +0.214 A 
ATOM     15  C   UNL     1       6.008   1.069  24.386  0.00  0.00    +0.238 A 
ATOM     16  O   UNL     1       4.986   1.701  24.629  0.00  0.00    -0.283 OA
ATOM     17  C   UNL     1       7.281   1.731  24.082  0.00  0.00    +0.109 A 
ATOM     18  C   UNL     1       8.216   1.004  23.346  0.00  0.00    +0.147 A 
ATOM     19  C   UNL     1       9.416   1.609  22.958  0.00  0.00    +0.092 A 
ATOM     20  C   UNL     1       9.662   2.933  23.325  0.00  0.00    +0.124 A 
ATOM     21  C   UNL     1       8.745   3.656  24.081  0.00  0.00    +0.091 A 
ATOM     22  O   UNL     1       8.005  -0.302  22.958  0.00  0.00    -0.451 OA
ATOM     23  C   UNL     1       7.553   3.050  24.465  0.00  0.00    +0.135 A 
ATOM     24  C   UNL     1       6.929  -0.996  23.512  0.00  0.00    +0.181 A 
BRANCH  24  25
ATOM     25  C   UNL     1       6.891  -2.452  23.163  0.00  0.00    +0.025 A 
ATOM     26  C   UNL     1       6.002  -2.951  22.192  0.00  0.00    +0.015 A 
ATOM     27  C   UNL     1       6.026  -4.303  21.812  0.00  0.00    +0.050 A 
ATOM     28  C   UNL     1       6.949  -5.160  22.389  0.00  0.00    +0.158 A 
ATOM     29  C   UNL     1       7.804  -4.704  23.381  0.00  0.00    +0.159 A 
ATOM     30  C   UNL     1       7.746  -3.379  23.798  0.00  0.00    +0.060 A 
BRANCH  29  31
ATOM     31  O   UNL     1       8.709  -5.583  23.909  0.00  0.00    -0.503 OA
ATOM     32  H   UNL     1       8.501  -6.471  23.564  0.00  0.00    +0.292 HD
ENDBRANCH  29  31
BRANCH  28  33
ATOM     33  O   UNL     1       7.027  -6.457  21.972  0.00  0.00    -0.503 OA
ATOM     34  H   UNL     1       7.103  -6.976  22.799  0.00  0.00    +0.292 HD
ENDBRANCH  28  33
ENDBRANCH  24  25
BRANCH  23  35
ATOM     35  O   UNL     1       6.672   3.751  25.238  0.00  0.00    -0.506 OA
ATOM     36  H   UNL     1       5.823   3.285  25.286  0.00  0.00    +0.292 HD
ENDBRANCH  23  35
BRANCH  20  37
ATOM     37  O   UNL     1      10.810   3.576  22.967  0.00  0.00    -0.507 OA
ATOM     38  H   UNL     1      10.822   3.699  22.004  0.00  0.00    +0.292 HD
ENDBRANCH  20  37
ENDBRANCH  13  14
ENDBRANCH   3  13
BRANCH   1  39
ATOM     39  C   UNL     1       6.252  -4.606  27.867  0.00  0.00    +0.266 C 
BRANCH  39  40
ATOM     40  O   UNL     1       5.520  -5.449  28.776  0.00  0.00    -0.459 OA
BRANCH  40  41
ATOM     41  C   UNL     1       5.300  -6.714  28.326  0.00  0.00    +0.332 C 
ATOM     42  O   UNL     1       5.840  -7.729  28.728  0.00  0.00    -0.246 OA
BRANCH  41  44
ATOM     43  C   UNL     1       4.476  -7.014  26.055  0.00  0.00    +0.015 C 
ATOM     44  C   UNL     1       4.221  -6.662  27.322  0.00  0.00    +0.092 C 
BRANCH  43  47
ATOM     45  C   UNL     1       1.647  -8.235  23.838  0.00  0.00    +0.162 A 
ATOM     46  C   UNL     1       2.543  -8.142  24.906  0.00  0.00    +0.057 A 
ATOM     47  C   UNL     1       3.459  -7.079  24.988  0.00  0.00    -0.021 A 
ATOM     48  C   UNL     1       3.469  -6.110  23.973  0.00  0.00    +0.012 A 
ATOM     49  C   UNL     1       2.574  -6.192  22.904  0.00  0.00    +0.050 A 
ATOM     50  C   UNL     1       1.680  -7.253  22.844  0.00  0.00    +0.158 A 
BRANCH  50  51
ATOM     51  O   UNL     1       0.833  -7.325  21.772  0.00  0.00    -0.503 OA
ATOM     52  H   UNL     1       1.390  -7.124  20.995  0.00  0.00    +0.292 HD
ENDBRANCH  50  51
BRANCH  45  54
ATOM     53  C   UNL     1       0.497 -10.098  24.760  0.00  0.00    +0.277 C 
ATOM     54  O   UNL     1       0.723  -9.232  23.651  0.00  0.00    -0.491 OA
ENDBRANCH  45  54
ENDBRANCH  43  47
ENDBRANCH  41  44
ENDBRANCH  40  41
ENDBRANCH  39  40
ENDBRANCH   1  39
TORSDOF 17
ENDMDL
MODEL 8
REMARK VINA RESULT:      -7.0      1.886      4.740
REMARK  Name = 
REMARK  18 active torsions:
REMARK  status: ('A' for Active; 'I' for Inactive)
REMARK    1  A    between atoms: C_1  and  O_2
REMARK    2  A    between atoms: O_2  and  C_3
REMARK    3  A    between atoms: C_4  and  O_51
REMARK    4  A    between atoms: C_7  and  C_9
REMARK    5  A    between atoms: C_10  and  C_11
REMARK    6  A    between atoms: C_11  and  O_13
REMARK    7  A    between atoms: O_13  and  C_14
REMARK    8  A    between atoms: C_14  and  C_15
REMARK    9  A    between atoms: C_17  and  O_50
REMARK   10  A    between atoms: C_19  and  O_49
REMARK   11  A    between atoms: C_21  and  O_48
REMARK   12  A    between atoms: C_23  and  O_26
REMARK   13  A    between atoms: O_26  and  C_27
REMARK   14  A    between atoms: C_28  and  C_40
REMARK   15  A    between atoms: C_32  and  O_39
REMARK   16  A    between atoms: C_34  and  O_38
REMARK   17  A    between atoms: C_42  and  O_47
REMARK   18  A    between atoms: C_43  and  O_46
REMARK                            x       y       z     vdW  Elec       q    Type
REMARK                         _______ _______ _______ _____ _____    ______ ____
ROOT
ATOM      1  C   UNL     1       7.375  -3.909  22.619  0.00  0.00    +0.191 C 
ATOM      2  O   UNL     1       7.291  -3.686  24.034  0.00  0.00    -0.330 OA
ATOM      3  C   UNL     1       7.029  -4.907  24.741  0.00  0.00    +0.340 C 
ATOM      4  C   UNL     1       5.641  -5.463  24.356  0.00  0.00    +0.214 C 
ATOM      5  C   UNL     1       5.613  -5.691  22.843  0.00  0.00    +0.180 C 
ATOM      6  C   UNL     1       6.022  -4.420  22.087  0.00  0.00    +0.178 C 
ENDROOT
BRANCH   6   7
ATOM      7  O   UNL     1       6.055  -4.740  20.691  0.00  0.00    -0.386 OA
ATOM      8  H   UNL     1       6.279  -5.686  20.622  0.00  0.00    +0.210 HD
ENDBRANCH   6   7
BRANCH   5   9
ATOM      9  O   UNL     1       4.307  -6.093  22.412  0.00  0.00    -0.386 OA
ATOM     10  H   UNL     1       3.879  -5.274  22.091  0.00  0.00    +0.210 HD
ENDBRANCH   5   9
BRANCH   4  11
ATOM     11  O   UNL     1       5.342  -6.677  25.067  0.00  0.00    -0.383 OA
ATOM     12  H   UNL     1       4.648  -6.487  25.724  0.00  0.00    +0.210 HD
ENDBRANCH   4  11
BRANCH   3  13
ATOM     13  O   UNL     1       7.008  -4.675  26.149  0.00  0.00    -0.453 OA
BRANCH  13  14
ATOM     14  C   UNL     1       6.601  -3.432  26.591  0.00  0.00    +0.214 A 
ATOM     15  C   UNL     1       7.555  -2.290  26.620  0.00  0.00    +0.238 A 
ATOM     16  O   UNL     1       8.767  -2.474  26.606  0.00  0.00    -0.283 OA
ATOM     17  C   UNL     1       6.971  -0.951  26.754  0.00  0.00    +0.109 A 
ATOM     18  C   UNL     1       5.674  -0.869  27.259  0.00  0.00    +0.147 A 
ATOM     19  C   UNL     1       5.093   0.383  27.484  0.00  0.00    +0.092 A 
ATOM     20  C   UNL     1       5.822   1.536  27.186  0.00  0.00    +0.124 A 
ATOM     21  C   UNL     1       7.107   1.462  26.658  0.00  0.00    +0.091 A 
ATOM     22  O   UNL     1       4.927  -1.985  27.574  0.00  0.00    -0.451 OA
ATOM     23  C   UNL     1       7.680   0.214  26.435  0.00  0.00    +0.135 A 
ATOM     24  C   UNL     1       5.388  -3.234  27.158  0.00  0.00    +0.181 A 
BRANCH  24  25
ATOM     25  C   UNL     1       4.422  -4.355  27.392  0.00  0.00    +0.025 A 
ATOM     26  C   UNL     1       3.181  -4.403  26.731  0.00  0.00    +0.015 A 
ATOM     27  C   UNL     1       2.313  -5.496  26.894  0.00  0.00    +0.050 A 
ATOM     28  C   UNL     1       2.689  -6.553  27.707  0.00  0.00    +0.158 A 
ATOM     29  C   UNL     1       3.886  -6.508  28.406  0.00  0.00    +0.159 A 
ATOM     30  C   UNL     1       4.722  -5.404  28.289  0.00  0.00    +0.060 A 
BRANCH  29  31
ATOM     31  O   UNL     1       4.222  -7.583  29.182  0.00  0.00    -0.503 OA
ATOM     32  H   UNL     1       3.994  -8.393  28.689  0.00  0.00    +0.292 HD
ENDBRANCH  29  31
BRANCH  28  33
ATOM     33  O   UNL     1       1.884  -7.650  27.812  0.00  0.00    -0.503 OA
ATOM     34  H   UNL     1       1.833  -8.003  26.901  0.00  0.00    +0.292 HD
ENDBRANCH  28  33
ENDBRANCH  24  25
BRANCH  23  35
ATOM     35  O   UNL     1       8.927   0.147  25.882  0.00  0.00    -0.506 OA
ATOM     36  H   UNL     1       9.135   0.975  25.422  0.00  0.00    +0.292 HD
ENDBRANCH  23  35
BRANCH  20  37
ATOM     37  O   UNL     1       5.310   2.782  27.393  0.00  0.00    -0.507 OA
ATOM     38  H   UNL     1       4.929   3.114  26.564  0.00  0.00    +0.292 HD
ENDBRANCH  20  37
ENDBRANCH  13  14
ENDBRANCH   3  13
BRANCH   1  39
ATOM     39  C   UNL     1       7.807  -2.596  21.944  0.00  0.00    +0.266 C 
BRANCH  39  40
ATOM     40  O   UNL     1       8.350  -1.652  22.885  0.00  0.00    -0.459 OA
BRANCH  40  41
ATOM     41  C   UNL     1       9.602  -1.209  22.587  0.00  0.00    +0.332 C 
ATOM     42  O   UNL     1      10.541  -1.890  22.217  0.00  0.00    -0.246 OA
BRANCH  41  44
ATOM     43  C   UNL     1       8.477   0.948  22.480  0.00  0.00    +0.015 C 
ATOM     44  C   UNL     1       9.607   0.262  22.701  0.00  0.00    +0.092 C 
BRANCH  43  47
ATOM     45  C   UNL     1       9.077   4.518  23.621  0.00  0.00    +0.162 A 
ATOM     46  C   UNL     1       9.268   3.152  23.401  0.00  0.00    +0.057 A 
ATOM     47  C   UNL     1       8.345   2.408  22.646  0.00  0.00    -0.021 A 
ATOM     48  C   UNL     1       7.217   3.056  22.120  0.00  0.00    +0.012 A 
ATOM     49  C   UNL     1       7.019   4.422  22.333  0.00  0.00    +0.050 A 
ATOM     50  C   UNL     1       7.944   5.135  23.084  0.00  0.00    +0.158 A 
BRANCH  50  51
ATOM     51  O   UNL     1       7.713   6.466  23.301  0.00  0.00    -0.503 OA
ATOM     52  H   UNL     1       7.346   6.516  24.205  0.00  0.00    +0.292 HD
ENDBRANCH  50  51
BRANCH  45  54
ATOM     53  C   UNL     1      11.146   5.678  23.746  0.00  0.00    +0.277 C 
ATOM     54  O   UNL     1       9.903   5.335  24.351  0.00  0.00    -0.491 OA
ENDBRANCH  45  54
ENDBRANCH  43  47
ENDBRANCH  41  44
ENDBRANCH  40  41
ENDBRANCH  39  40
ENDBRANCH   1  39
TORSDOF 17
ENDMDL
MODEL 9
REMARK VINA RESULT:      -7.0      1.952      8.111
REMARK  Name = 
REMARK  18 active torsions:
REMARK  status: ('A' for Active; 'I' for Inactive)
REMARK    1  A    between atoms: C_1  and  O_2
REMARK    2  A    between atoms: O_2  and  C_3
REMARK    3  A    between atoms: C_4  and  O_51
REMARK    4  A    between atoms: C_7  and  C_9
REMARK    5  A    between atoms: C_10  and  C_11
REMARK    6  A    between atoms: C_11  and  O_13
REMARK    7  A    between atoms: O_13  and  C_14
REMARK    8  A    between atoms: C_14  and  C_15
REMARK    9  A    between atoms: C_17  and  O_50
REMARK   10  A    between atoms: C_19  and  O_49
REMARK   11  A    between atoms: C_21  and  O_48
REMARK   12  A    between atoms: C_23  and  O_26
REMARK   13  A    between atoms: O_26  and  C_27
REMARK   14  A    between atoms: C_28  and  C_40
REMARK   15  A    between atoms: C_32  and  O_39
REMARK   16  A    between atoms: C_34  and  O_38
REMARK   17  A    between atoms: C_42  and  O_47
REMARK   18  A    between atoms: C_43  and  O_46
REMARK                            x       y       z     vdW  Elec       q    Type
REMARK                         _______ _______ _______ _____ _____    ______ ____
ROOT
ATOM      1  C   UNL     1       9.004   1.743  24.027  0.00  0.00    +0.191 C 
ATOM      2  O   UNL     1       8.857   1.005  25.249  0.00  0.00    -0.330 OA
ATOM      3  C   UNL     1       7.611   1.307  25.894  0.00  0.00    +0.340 C 
ATOM      4  C   UNL     1       7.578   2.787  26.333  0.00  0.00    +0.214 C 
ATOM      5  C   UNL     1       7.778   3.664  25.094  0.00  0.00    +0.180 C 
ATOM      6  C   UNL     1       9.044   3.254  24.328  0.00  0.00    +0.178 C 
ENDROOT
BRANCH   6   7
ATOM      7  O   UNL     1       9.111   4.059  23.146  0.00  0.00    -0.386 OA
ATOM      8  H   UNL     1      10.006   3.946  22.775  0.00  0.00    +0.210 HD
ENDBRANCH   6   7
BRANCH   5   9
ATOM      9  O   UNL     1       7.879   5.046  25.460  0.00  0.00    -0.386 OA
ATOM     10  H   UNL     1       8.456   5.062  26.250  0.00  0.00    +0.210 HD
ENDBRANCH   5   9
BRANCH   4  11
ATOM     11  O   UNL     1       6.348   3.113  27.003  0.00  0.00    -0.383 OA
ATOM     12  H   UNL     1       6.223   4.078  26.966  0.00  0.00    +0.210 HD
ENDBRANCH   4  11
BRANCH   3  13
ATOM     13  O   UNL     1       7.456   0.519  27.074  0.00  0.00    -0.453 OA
BRANCH  13  14
ATOM     14  C   UNL     1       6.890  -0.734  26.943  0.00  0.00    +0.214 A 
ATOM     15  C   UNL     1       7.704  -1.883  26.461  0.00  0.00    +0.238 A 
ATOM     16  O   UNL     1       8.748  -1.708  25.843  0.00  0.00    -0.283 OA
ATOM     17  C   UNL     1       7.146  -3.221  26.687  0.00  0.00    +0.109 A 
ATOM     18  C   UNL     1       5.776  -3.308  26.925  0.00  0.00    +0.147 A 
ATOM     19  C   UNL     1       5.174  -4.562  27.069  0.00  0.00    +0.092 A 
ATOM     20  C   UNL     1       5.962  -5.711  26.982  0.00  0.00    +0.124 A 
ATOM     21  C   UNL     1       7.335  -5.631  26.770  0.00  0.00    +0.091 A 
ATOM     22  O   UNL     1       4.963  -2.197  27.008  0.00  0.00    -0.451 OA
ATOM     23  C   UNL     1       7.929  -4.381  26.628  0.00  0.00    +0.135 A 
ATOM     24  C   UNL     1       5.561  -0.939  27.089  0.00  0.00    +0.181 A 
BRANCH  24  25
ATOM     25  C   UNL     1       4.603   0.181  27.353  0.00  0.00    +0.025 A 
ATOM     26  C   UNL     1       4.391   0.674  28.654  0.00  0.00    +0.015 A 
ATOM     27  C   UNL     1       3.551   1.776  28.886  0.00  0.00    +0.050 A 
ATOM     28  C   UNL     1       2.930   2.401  27.815  0.00  0.00    +0.158 A 
ATOM     29  C   UNL     1       3.085   1.906  26.530  0.00  0.00    +0.159 A 
ATOM     30  C   UNL     1       3.873   0.782  26.304  0.00  0.00    +0.060 A 
BRANCH  29  31
ATOM     31  O   UNL     1       2.467   2.566  25.504  0.00  0.00    -0.503 OA
ATOM     32  H   UNL     1       3.001   3.353  25.289  0.00  0.00    +0.292 HD
ENDBRANCH  29  31
BRANCH  28  33
ATOM     33  O   UNL     1       2.172   3.516  28.026  0.00  0.00    -0.503 OA
ATOM     34  H   UNL     1       1.605   3.285  28.789  0.00  0.00    +0.292 HD
ENDBRANCH  28  33
ENDBRANCH  24  25
BRANCH  23  35
ATOM     35  O   UNL     1       9.282  -4.306  26.458  0.00  0.00    -0.506 OA
ATOM     36  H   UNL     1       9.491  -3.852  25.626  0.00  0.00    +0.292 HD
ENDBRANCH  23  35
BRANCH  20  37
ATOM     37  O   UNL     1       5.428  -6.959  27.106  0.00  0.00    -0.507 OA
ATOM     38  H   UNL     1       5.060  -7.236  26.252  0.00  0.00    +0.292 HD
ENDBRANCH  20  37
ENDBRANCH  13  14
ENDBRANCH   3  13
BRANCH   1  39
ATOM     39  C   UNL     1      10.280   1.259  23.316  0.00  0.00    +0.266 C 
BRANCH  39  40
ATOM     40  O   UNL     1      10.224  -0.142  22.989  0.00  0.00    -0.459 OA
BRANCH  40  41
ATOM     41  C   UNL     1       9.405  -0.448  21.946  0.00  0.00    +0.332 C 
ATOM     42  O   UNL     1       9.222   0.225  20.947  0.00  0.00    -0.246 OA
BRANCH  41  44
ATOM     43  C   UNL     1       7.545  -1.914  22.513  0.00  0.00    +0.015 C 
ATOM     44  C   UNL     1       8.839  -1.789  22.186  0.00  0.00    +0.092 C 
BRANCH  43  47
ATOM     45  C   UNL     1       4.818  -4.507  23.008  0.00  0.00    +0.162 A 
ATOM     46  C   UNL     1       5.452  -3.290  22.745  0.00  0.00    +0.057 A 
ATOM     47  C   UNL     1       6.854  -3.205  22.695  0.00  0.00    -0.021 A 
ATOM     48  C   UNL     1       7.615  -4.361  22.922  0.00  0.00    +0.012 A 
ATOM     49  C   UNL     1       6.990  -5.583  23.183  0.00  0.00    +0.050 A 
ATOM     50  C   UNL     1       5.603  -5.642  23.229  0.00  0.00    +0.158 A 
BRANCH  50  51
ATOM     51  O   UNL     1       5.016  -6.844  23.513  0.00  0.00    -0.503 OA
ATOM     52  H   UNL     1       4.352  -6.975  22.809  0.00  0.00    +0.292 HD
ENDBRANCH  50  51
BRANCH  45  54
ATOM     53  C   UNL     1       2.848  -4.326  24.323  0.00  0.00    +0.277 C 
ATOM     54  O   UNL     1       3.462  -4.702  23.094  0.00  0.00    -0.491 OA
ENDBRANCH  45  54
ENDBRANCH  43  47
ENDBRANCH  41  44
ENDBRANCH  40  41
ENDBRANCH  39  40
ENDBRANCH   1  39
TORSDOF 17
ENDMDL
