MODEL 1
REMARK VINA RESULT:      -7.4      0.000      0.000
REMARK  Name = 
REMARK  16 active torsions:
REMARK  status: ('A' for Active; 'I' for Inactive)
REMARK    1  A    between atoms: C_1  and  C_2
REMARK    2  A    between atoms: C_4  and  O_53
REMARK    3  A    between atoms: C_6  and  O_52
REMARK    4  A    between atoms: C_8  and  O_51
REMARK    5  A    between atoms: C_10  and  O_13
REMARK    6  A    between atoms: O_13  and  C_14
REMARK    7  A    between atoms: C_16  and  O_50
REMARK    8  A    between atoms: C_21  and  C_42
REMARK    9  A    between atoms: C_22  and  O_25
REMARK   10  A    between atoms: O_25  and  C_26
REMARK   11  A    between atoms: C_28  and  O_41
REMARK   12  A    between atoms: C_30  and  O_40
REMARK   13  A    between atoms: C_32  and  O_39
REMARK   14  A    between atoms: C_34  and  C_37
REMARK   15  A    between atoms: C_37  and  O_38
REMARK   16  A    between atoms: C_44  and  O_49
REMARK                            x       y       z     vdW  Elec       q    Type
REMARK                         _______ _______ _______ _____ _____    ______ ____
ROOT
ATOM      1  C   UNL     1       8.417  -3.195  24.837  0.00  0.00    +0.131 A 
ATOM      2  C   UNL     1       7.733  -2.240  25.592  0.00  0.00    +0.093 A 
ATOM      3  C   UNL     1       8.088  -0.894  25.486  0.00  0.00    +0.147 A 
ATOM      4  O   UNL     1       7.432   0.001  26.294  0.00  0.00    -0.451 OA
ATOM      5  C   UNL     1       7.576   1.343  26.018  0.00  0.00    +0.181 A 
ATOM      6  C   UNL     1       8.530   1.891  25.227  0.00  0.00    +0.214 A 
ATOM      7  C   UNL     1       9.535   0.902  24.717  0.00  0.00    +0.238 A 
ATOM      8  O   UNL     1      10.694   1.212  24.479  0.00  0.00    -0.283 OA
ATOM      9  C   UNL     1       9.110  -0.499  24.635  0.00  0.00    +0.109 A 
ATOM     10  C   UNL     1       9.743  -1.442  23.825  0.00  0.00    +0.135 A 
ATOM     11  C   UNL     1       9.398  -2.787  23.929  0.00  0.00    +0.092 A 
ENDROOT
BRANCH   5  12
ATOM     12  C   UNL     1       6.575   2.158  26.725  0.00  0.00    +0.024 A 
ATOM     13  C   UNL     1       5.347   2.439  26.122  0.00  0.00    +0.011 A 
ATOM     14  C   UNL     1       4.407   3.254  26.781  0.00  0.00    -0.004 A 
ATOM     15  C   UNL     1       4.631   3.795  28.063  0.00  0.00    -0.066 A 
ATOM     16  O   UNL     1       3.765   4.493  28.689  0.00  0.00    -0.871 OA
ATOM     17  C   UNL     1       5.896   3.469  28.605  0.00  0.00    +0.110 A 
ATOM     18  C   UNL     1       6.862   2.702  27.967  0.00  0.00    +0.056 A 
BRANCH  17  19
ATOM     19  O   UNL     1       6.188   3.854  29.894  0.00  0.00    -0.507 OA
ATOM     20  H   UNL     1       6.132   2.978  30.333  0.00  0.00    +0.292 HD
ENDBRANCH  17  19
ENDBRANCH   5  12
BRANCH  10  21
ATOM     21  O   UNL     1      10.688  -1.065  22.917  0.00  0.00    -0.506 OA
ATOM     22  H   UNL     1      11.569  -1.118  23.314  0.00  0.00    +0.292 HD
ENDBRANCH  10  21
BRANCH   1  23
ATOM     23  O   UNL     1       8.256  -4.547  24.892  0.00  0.00    -0.461 OA
BRANCH  23  27
ATOM     24  C   UNL     1       6.201  -5.985  21.353  0.00  0.00    +0.041 C 
ATOM     25  C   UNL     1       5.768  -4.798  22.206  0.00  0.00    +0.150 C 
ATOM     26  O   UNL     1       6.834  -4.302  23.026  0.00  0.00    -0.334 OA
ATOM     27  C   UNL     1       7.215  -5.150  24.116  0.00  0.00    +0.339 C 
ATOM     28  C   UNL     1       6.023  -5.364  25.077  0.00  0.00    +0.214 C 
ATOM     29  C   UNL     1       4.786  -5.863  24.320  0.00  0.00    +0.180 C 
ATOM     30  C   UNL     1       4.513  -5.021  23.066  0.00  0.00    +0.174 C 
BRANCH  28  31
ATOM     31  O   UNL     1       6.352  -6.288  26.127  0.00  0.00    -0.383 OA
ATOM     32  H   UNL     1       7.265  -6.092  26.411  0.00  0.00    +0.210 HD
ENDBRANCH  28  31
BRANCH  29  33
ATOM     33  O   UNL     1       4.902  -7.266  24.037  0.00  0.00    -0.386 OA
ATOM     34  H   UNL     1       5.290  -7.736  24.793  0.00  0.00    +0.210 HD
ENDBRANCH  29  33
BRANCH  30  35
ATOM     35  O   UNL     1       4.036  -3.733  23.494  0.00  0.00    -0.387 OA
ATOM     36  H   UNL     1       4.548  -3.471  24.286  0.00  0.00    +0.210 HD
ENDBRANCH  30  35
ENDBRANCH  23  27
ENDBRANCH   1  23
BRANCH   6  37
ATOM     37  O   UNL     1       8.609   3.260  24.942  0.00  0.00    -0.453 OA
BRANCH  37  38
ATOM     38  C   UNL     1       8.452   3.643  23.564  0.00  0.00    +0.340 C 
ATOM     39  O   UNL     1       9.411   4.637  23.153  0.00  0.00    -0.331 OA
ATOM     40  C   UNL     1       9.108   6.019  23.343  0.00  0.00    +0.179 C 
ATOM     41  C   UNL     1       7.683   6.392  22.905  0.00  0.00    +0.177 C 
ATOM     42  C   UNL     1       6.615   5.441  23.463  0.00  0.00    +0.180 C 
ATOM     43  C   UNL     1       6.986   3.983  23.182  0.00  0.00    +0.214 C 
BRANCH  41  44
ATOM     44  O   UNL     1       7.651   6.326  21.458  0.00  0.00    -0.386 OA
ATOM     45  H   UNL     1       6.891   5.766  21.211  0.00  0.00    +0.210 HD
ENDBRANCH  41  44
BRANCH  42  46
ATOM     46  O   UNL     1       6.294   5.679  24.826  0.00  0.00    -0.386 OA
ATOM     47  H   UNL     1       7.103   5.945  25.321  0.00  0.00    +0.210 HD
ENDBRANCH  42  46
BRANCH  43  48
ATOM     48  O   UNL     1       6.781   3.740  21.771  0.00  0.00    -0.383 OA
ATOM     49  H   UNL     1       7.606   3.331  21.444  0.00  0.00    +0.210 HD
ENDBRANCH  43  48
BRANCH  40  50
ATOM     50  C   UNL     1       9.498   6.499  24.742  0.00  0.00    +0.190 C 
BRANCH  50  51
ATOM     51  O   UNL     1      10.904   6.549  24.909  0.00  0.00    -0.392 OA
ATOM     52  H   UNL     1      11.098   6.371  25.855  0.00  0.00    +0.210 HD
ENDBRANCH  50  51
ENDBRANCH  40  50
ENDBRANCH  37  38
ENDBRANCH   6  37
TORSDOF 15
ENDMDL
MODEL 2
REMARK VINA RESULT:      -7.2      2.698      8.945
REMARK  Name = 
REMARK  16 active torsions:
REMARK  status: ('A' for Active; 'I' for Inactive)
REMARK    1  A    between atoms: C_1  and  C_2
REMARK    2  A    between atoms: C_4  and  O_53
REMARK    3  A    between atoms: C_6  and  O_52
REMARK    4  A    between atoms: C_8  and  O_51
REMARK    5  A    between atoms: C_10  and  O_13
REMARK    6  A    between atoms: O_13  and  C_14
REMARK    7  A    between atoms: C_16  and  O_50
REMARK    8  A    between atoms: C_21  and  C_42
REMARK    9  A    between atoms: C_22  and  O_25
REMARK   10  A    between atoms: O_25  and  C_26
REMARK   11  A    between atoms: C_28  and  O_41
REMARK   12  A    between atoms: C_30  and  O_40
REMARK   13  A    between atoms: C_32  and  O_39
REMARK   14  A    between atoms: C_34  and  C_37
REMARK   15  A    between atoms: C_37  and  O_38
REMARK   16  A    between atoms: C_44  and  O_49
REMARK                            x       y       z     vdW  Elec       q    Type
REMARK                         _______ _______ _______ _____ _____    ______ ____
ROOT
ATOM      1  C   UNL     1       9.311   0.424  24.391  0.00  0.00    +0.131 A 
ATOM      2  C   UNL     1       7.971   0.315  24.770  0.00  0.00    +0.093 A 
ATOM      3  C   UNL     1       7.344  -0.932  24.735  0.00  0.00    +0.147 A 
ATOM      4  O   UNL     1       6.010  -0.981  25.053  0.00  0.00    -0.451 OA
ATOM      5  C   UNL     1       5.448  -2.217  25.281  0.00  0.00    +0.181 A 
ATOM      6  C   UNL     1       5.988  -3.409  24.933  0.00  0.00    +0.214 A 
ATOM      7  C   UNL     1       7.264  -3.291  24.154  0.00  0.00    +0.238 A 
ATOM      8  O   UNL     1       7.602  -4.123  23.324  0.00  0.00    -0.283 OA
ATOM      9  C   UNL     1       8.043  -2.061  24.332  0.00  0.00    +0.109 A 
ATOM     10  C   UNL     1       9.400  -1.966  24.026  0.00  0.00    +0.135 A 
ATOM     11  C   UNL     1      10.030  -0.725  24.053  0.00  0.00    +0.092 A 
ENDROOT
BRANCH   5  12
ATOM     12  C   UNL     1       4.132  -2.109  25.932  0.00  0.00    +0.024 A 
ATOM     13  C   UNL     1       3.886  -1.085  26.850  0.00  0.00    +0.011 A 
ATOM     14  C   UNL     1       2.642  -1.007  27.505  0.00  0.00    -0.004 A 
ATOM     15  C   UNL     1       1.592  -1.913  27.258  0.00  0.00    -0.066 A 
ATOM     16  O   UNL     1       0.444  -1.820  27.809  0.00  0.00    -0.871 OA
ATOM     17  C   UNL     1       1.917  -2.921  26.321  0.00  0.00    +0.110 A 
ATOM     18  C   UNL     1       3.147  -3.052  25.687  0.00  0.00    +0.056 A 
BRANCH  17  19
ATOM     19  O   UNL     1       0.938  -3.803  25.921  0.00  0.00    -0.507 OA
ATOM     20  H   UNL     1       1.427  -4.644  26.047  0.00  0.00    +0.292 HD
ENDBRANCH  17  19
ENDBRANCH   5  12
BRANCH  10  21
ATOM     21  O   UNL     1      10.128  -3.076  23.714  0.00  0.00    -0.506 OA
ATOM     22  H   UNL     1      11.043  -2.967  24.010  0.00  0.00    +0.292 HD
ENDBRANCH  10  21
BRANCH   1  23
ATOM     23  O   UNL     1      10.038   1.572  24.284  0.00  0.00    -0.461 OA
BRANCH  23  27
ATOM     24  C   UNL     1       8.642   5.504  25.471  0.00  0.00    +0.041 C 
ATOM     25  C   UNL     1       7.769   4.264  25.320  0.00  0.00    +0.150 C 
ATOM     26  O   UNL     1       8.536   3.054  25.340  0.00  0.00    -0.334 OA
ATOM     27  C   UNL     1       9.344   2.820  24.180  0.00  0.00    +0.339 C 
ATOM     28  C   UNL     1       8.461   2.725  22.916  0.00  0.00    +0.214 C 
ATOM     29  C   UNL     1       7.547   3.950  22.787  0.00  0.00    +0.180 C 
ATOM     30  C   UNL     1       6.826   4.259  24.105  0.00  0.00    +0.174 C 
BRANCH  28  31
ATOM     31  O   UNL     1       9.256   2.587  21.727  0.00  0.00    -0.383 OA
ATOM     32  H   UNL     1       9.421   1.634  21.597  0.00  0.00    +0.210 HD
ENDBRANCH  28  31
BRANCH  29  33
ATOM     33  O   UNL     1       8.282   5.073  22.274  0.00  0.00    -0.386 OA
ATOM     34  H   UNL     1       8.196   5.838  22.866  0.00  0.00    +0.210 HD
ENDBRANCH  29  33
BRANCH  30  35
ATOM     35  O   UNL     1       5.836   3.237  24.317  0.00  0.00    -0.387 OA
ATOM     36  H   UNL     1       6.102   2.449  23.800  0.00  0.00    +0.210 HD
ENDBRANCH  30  35
ENDBRANCH  23  27
ENDBRANCH   1  23
BRANCH   6  37
ATOM     37  O   UNL     1       5.396  -4.645  25.225  0.00  0.00    -0.453 OA
BRANCH  37  38
ATOM     38  C   UNL     1       6.202  -5.592  25.950  0.00  0.00    +0.340 C 
ATOM     39  O   UNL     1       5.518  -6.840  26.177  0.00  0.00    -0.331 OA
ATOM     40  C   UNL     1       4.698  -6.985  27.336  0.00  0.00    +0.179 C 
ATOM     41  C   UNL     1       5.364  -6.461  28.618  0.00  0.00    +0.177 C 
ATOM     42  C   UNL     1       5.963  -5.057  28.454  0.00  0.00    +0.180 C 
ATOM     43  C   UNL     1       6.865  -4.993  27.219  0.00  0.00    +0.214 C 
BRANCH  41  44
ATOM     44  O   UNL     1       6.430  -7.383  28.951  0.00  0.00    -0.386 OA
ATOM     45  H   UNL     1       6.336  -8.157  28.365  0.00  0.00    +0.210 HD
ENDBRANCH  41  44
BRANCH  42  46
ATOM     46  O   UNL     1       4.997  -4.016  28.490  0.00  0.00    -0.386 OA
ATOM     47  H   UNL     1       4.275  -4.249  29.118  0.00  0.00    +0.210 HD
ENDBRANCH  42  46
BRANCH  43  48
ATOM     48  O   UNL     1       8.080  -5.716  27.522  0.00  0.00    -0.383 OA
ATOM     49  H   UNL     1       8.454  -5.991  26.662  0.00  0.00    +0.210 HD
ENDBRANCH  43  48
BRANCH  40  50
ATOM     50  C   UNL     1       3.277  -6.472  27.094  0.00  0.00    +0.190 C 
BRANCH  50  51
ATOM     51  O   UNL     1       2.937  -6.495  25.718  0.00  0.00    -0.392 OA
ATOM     52  H   UNL     1       2.750  -5.571  25.442  0.00  0.00    +0.210 HD
ENDBRANCH  50  51
ENDBRANCH  40  50
ENDBRANCH  37  38
ENDBRANCH   6  37
TORSDOF 15
ENDMDL
MODEL 3
REMARK VINA RESULT:      -7.1      2.432      8.939
REMARK  Name = 
REMARK  16 active torsions:
REMARK  status: ('A' for Active; 'I' for Inactive)
REMARK    1  A    between atoms: C_1  and  C_2
REMARK    2  A    between atoms: C_4  and  O_53
REMARK    3  A    between atoms: C_6  and  O_52
REMARK    4  A    between atoms: C_8  and  O_51
REMARK    5  A    between atoms: C_10  and  O_13
REMARK    6  A    between atoms: O_13  and  C_14
REMARK    7  A    between atoms: C_16  and  O_50
REMARK    8  A    between atoms: C_21  and  C_42
REMARK    9  A    between atoms: C_22  and  O_25
REMARK   10  A    between atoms: O_25  and  C_26
REMARK   11  A    between atoms: C_28  and  O_41
REMARK   12  A    between atoms: C_30  and  O_40
REMARK   13  A    between atoms: C_32  and  O_39
REMARK   14  A    between atoms: C_34  and  C_37
REMARK   15  A    between atoms: C_37  and  O_38
REMARK   16  A    between atoms: C_44  and  O_49
REMARK                            x       y       z     vdW  Elec       q    Type
REMARK                         _______ _______ _______ _____ _____    ______ ____
ROOT
ATOM      1  C   UNL     1       9.709   1.448  23.472  0.00  0.00    +0.131 A 
ATOM      2  C   UNL     1       8.653   1.127  24.327  0.00  0.00    +0.093 A 
ATOM      3  C   UNL     1       8.014  -0.107  24.199  0.00  0.00    +0.147 A 
ATOM      4  O   UNL     1       6.939  -0.354  25.017  0.00  0.00    -0.451 OA
ATOM      5  C   UNL     1       6.470  -1.646  25.092  0.00  0.00    +0.181 A 
ATOM      6  C   UNL     1       6.757  -2.645  24.222  0.00  0.00    +0.214 A 
ATOM      7  C   UNL     1       7.587  -2.208  23.052  0.00  0.00    +0.238 A 
ATOM      8  O   UNL     1       7.504  -2.743  21.956  0.00  0.00    -0.283 OA
ATOM      9  C   UNL     1       8.423  -1.017  23.235  0.00  0.00    +0.109 A 
ATOM     10  C   UNL     1       9.527  -0.729  22.431  0.00  0.00    +0.135 A 
ATOM     11  C   UNL     1      10.165   0.503  22.549  0.00  0.00    +0.092 A 
ENDROOT
BRANCH   5  12
ATOM     12  C   UNL     1       5.561  -1.833  26.233  0.00  0.00    +0.024 A 
ATOM     13  C   UNL     1       4.578  -0.880  26.511  0.00  0.00    +0.011 A 
ATOM     14  C   UNL     1       3.736  -1.038  27.628  0.00  0.00    -0.004 A 
ATOM     15  C   UNL     1       3.813  -2.149  28.491  0.00  0.00    -0.066 A 
ATOM     16  O   UNL     1       3.021  -2.326  29.476  0.00  0.00    -0.871 OA
ATOM     17  C   UNL     1       4.833  -3.067  28.148  0.00  0.00    +0.110 A 
ATOM     18  C   UNL     1       5.706  -2.923  27.078  0.00  0.00    +0.056 A 
BRANCH  17  19
ATOM     19  O   UNL     1       4.938  -4.243  28.856  0.00  0.00    -0.507 OA
ATOM     20  H   UNL     1       5.336  -3.892  29.681  0.00  0.00    +0.292 HD
ENDBRANCH  17  19
ENDBRANCH   5  12
BRANCH  10  21
ATOM     21  O   UNL     1      10.002  -1.643  21.539  0.00  0.00    -0.506 OA
ATOM     22  H   UNL     1       9.392  -1.725  20.791  0.00  0.00    +0.292 HD
ENDBRANCH  10  21
BRANCH   1  23
ATOM     23  O   UNL     1      10.374   2.637  23.406  0.00  0.00    -0.461 OA
BRANCH  23  27
ATOM     24  C   UNL     1       7.332   5.037  25.356  0.00  0.00    +0.041 C 
ATOM     25  C   UNL     1       7.633   5.033  23.862  0.00  0.00    +0.150 C 
ATOM     26  O   UNL     1       8.362   3.868  23.458  0.00  0.00    -0.334 OA
ATOM     27  C   UNL     1       9.726   3.817  23.893  0.00  0.00    +0.339 C 
ATOM     28  C   UNL     1      10.520   5.015  23.327  0.00  0.00    +0.214 C 
ATOM     29  C   UNL     1       9.825   6.343  23.654  0.00  0.00    +0.180 C 
ATOM     30  C   UNL     1       8.327   6.294  23.321  0.00  0.00    +0.174 C 
BRANCH  28  31
ATOM     31  O   UNL     1      11.867   5.039  23.828  0.00  0.00    -0.383 OA
ATOM     32  H   UNL     1      11.886   5.661  24.580  0.00  0.00    +0.210 HD
ENDBRANCH  28  31
BRANCH  29  33
ATOM     33  O   UNL     1      10.084   6.724  25.014  0.00  0.00    -0.386 OA
ATOM     34  H   UNL     1      11.037   6.711  25.198  0.00  0.00    +0.210 HD
ENDBRANCH  29  33
BRANCH  30  35
ATOM     35  O   UNL     1       8.194   6.293  21.888  0.00  0.00    -0.387 OA
ATOM     36  H   UNL     1       8.633   5.489  21.546  0.00  0.00    +0.210 HD
ENDBRANCH  30  35
ENDBRANCH  23  27
ENDBRANCH   1  23
BRANCH   6  37
ATOM     37  O   UNL     1       6.288  -3.957  24.365  0.00  0.00    -0.453 OA
BRANCH  37  38
ATOM     38  C   UNL     1       5.624  -4.533  23.225  0.00  0.00    +0.340 C 
ATOM     39  O   UNL     1       4.286  -4.029  23.053  0.00  0.00    -0.331 OA
ATOM     40  C   UNL     1       3.206  -4.671  23.729  0.00  0.00    +0.179 C 
ATOM     41  C   UNL     1       3.253  -6.204  23.624  0.00  0.00    +0.177 C 
ATOM     42  C   UNL     1       4.631  -6.788  23.963  0.00  0.00    +0.180 C 
ATOM     43  C   UNL     1       5.730  -6.081  23.167  0.00  0.00    +0.214 C 
BRANCH  41  44
ATOM     44  O   UNL     1       2.928  -6.547  22.255  0.00  0.00    -0.386 OA
ATOM     45  H   UNL     1       2.007  -6.869  22.248  0.00  0.00    +0.210 HD
ENDBRANCH  41  44
BRANCH  42  46
ATOM     46  O   UNL     1       4.902  -6.841  25.357  0.00  0.00    -0.386 OA
ATOM     47  H   UNL     1       4.571  -6.024  25.795  0.00  0.00    +0.210 HD
ENDBRANCH  42  46
BRANCH  43  48
ATOM     48  O   UNL     1       5.635  -6.524  21.794  0.00  0.00    -0.383 OA
ATOM     49  H   UNL     1       6.502  -6.331  21.386  0.00  0.00    +0.210 HD
ENDBRANCH  43  48
BRANCH  40  50
ATOM     50  C   UNL     1       3.021  -4.129  25.147  0.00  0.00    +0.190 C 
BRANCH  50  51
ATOM     51  O   UNL     1       2.133  -3.024  25.176  0.00  0.00    -0.392 OA
ATOM     52  H   UNL     1       2.544  -2.327  25.732  0.00  0.00    +0.210 HD
ENDBRANCH  50  51
ENDBRANCH  40  50
ENDBRANCH  37  38
ENDBRANCH   6  37
TORSDOF 15
ENDMDL
MODEL 4
REMARK VINA RESULT:      -7.0      0.945      1.851
REMARK  Name = 
REMARK  16 active torsions:
REMARK  status: ('A' for Active; 'I' for Inactive)
REMARK    1  A    between atoms: C_1  and  C_2
REMARK    2  A    between atoms: C_4  and  O_53
REMARK    3  A    between atoms: C_6  and  O_52
REMARK    4  A    between atoms: C_8  and  O_51
REMARK    5  A    between atoms: C_10  and  O_13
REMARK    6  A    between atoms: O_13  and  C_14
REMARK    7  A    between atoms: C_16  and  O_50
REMARK    8  A    between atoms: C_21  and  C_42
REMARK    9  A    between atoms: C_22  and  O_25
REMARK   10  A    between atoms: O_25  and  C_26
REMARK   11  A    between atoms: C_28  and  O_41
REMARK   12  A    between atoms: C_30  and  O_40
REMARK   13  A    between atoms: C_32  and  O_39
REMARK   14  A    between atoms: C_34  and  C_37
REMARK   15  A    between atoms: C_37  and  O_38
REMARK   16  A    between atoms: C_44  and  O_49
REMARK                            x       y       z     vdW  Elec       q    Type
REMARK                         _______ _______ _______ _____ _____    ______ ____
ROOT
ATOM      1  C   UNL     1       7.479  -3.128  24.209  0.00  0.00    +0.131 A 
ATOM      2  C   UNL     1       6.937  -2.125  25.016  0.00  0.00    +0.093 A 
ATOM      3  C   UNL     1       7.539  -0.866  25.049  0.00  0.00    +0.147 A 
ATOM      4  O   UNL     1       7.012   0.068  25.905  0.00  0.00    -0.451 OA
ATOM      5  C   UNL     1       7.417   1.376  25.759  0.00  0.00    +0.181 A 
ATOM      6  C   UNL     1       8.502   1.796  25.065  0.00  0.00    +0.214 A 
ATOM      7  C   UNL     1       9.338   0.680  24.514  0.00  0.00    +0.238 A 
ATOM      8  O   UNL     1      10.546   0.784  24.358  0.00  0.00    -0.283 OA
ATOM      9  C   UNL     1       8.668  -0.604  24.285  0.00  0.00    +0.109 A 
ATOM     10  C   UNL     1       9.165  -1.581  23.422  0.00  0.00    +0.135 A 
ATOM     11  C   UNL     1       8.573  -2.840  23.388  0.00  0.00    +0.092 A 
ENDROOT
BRANCH   5  12
ATOM     12  C   UNL     1       6.542   2.305  26.491  0.00  0.00    +0.024 A 
ATOM     13  C   UNL     1       5.221   2.496  26.080  0.00  0.00    +0.011 A 
ATOM     14  C   UNL     1       4.397   3.418  26.754  0.00  0.00    -0.004 A 
ATOM     15  C   UNL     1       4.834   4.158  27.870  0.00  0.00    -0.066 A 
ATOM     16  O   UNL     1       4.079   4.957  28.519  0.00  0.00    -0.871 OA
ATOM     17  C   UNL     1       6.182   3.914  28.224  0.00  0.00    +0.110 A 
ATOM     18  C   UNL     1       7.034   3.043  27.556  0.00  0.00    +0.056 A 
BRANCH  17  19
ATOM     19  O   UNL     1       6.691   4.501  29.360  0.00  0.00    -0.507 OA
ATOM     20  H   UNL     1       7.582   4.090  29.360  0.00  0.00    +0.292 HD
ENDBRANCH  17  19
ENDBRANCH   5  12
BRANCH  10  21
ATOM     21  O   UNL     1      10.217  -1.317  22.596  0.00  0.00    -0.506 OA
ATOM     22  H   UNL     1      10.065  -0.488  22.119  0.00  0.00    +0.292 HD
ENDBRANCH  10  21
BRANCH   1  23
ATOM     23  O   UNL     1       7.068  -4.425  24.133  0.00  0.00    -0.461 OA
BRANCH  23  27
ATOM     24  C   UNL     1       3.680  -5.269  26.708  0.00  0.00    +0.041 C 
ATOM     25  C   UNL     1       4.360  -6.272  25.784  0.00  0.00    +0.150 C 
ATOM     26  O   UNL     1       5.673  -5.849  25.396  0.00  0.00    -0.334 OA
ATOM     27  C   UNL     1       5.717  -4.743  24.487  0.00  0.00    +0.339 C 
ATOM     28  C   UNL     1       4.993  -5.097  23.168  0.00  0.00    +0.214 C 
ATOM     29  C   UNL     1       3.573  -5.608  23.438  0.00  0.00    +0.180 C 
ATOM     30  C   UNL     1       3.557  -6.679  24.537  0.00  0.00    +0.174 C 
BRANCH  28  31
ATOM     31  O   UNL     1       4.940  -3.970  22.277  0.00  0.00    -0.383 OA
ATOM     32  H   UNL     1       5.859  -3.759  22.021  0.00  0.00    +0.210 HD
ENDBRANCH  28  31
BRANCH  29  33
ATOM     33  O   UNL     1       2.688  -4.511  23.712  0.00  0.00    -0.386 OA
ATOM     34  H   UNL     1       3.148  -3.816  24.209  0.00  0.00    +0.210 HD
ENDBRANCH  29  33
BRANCH  30  35
ATOM     35  O   UNL     1       4.150  -7.874  23.998  0.00  0.00    -0.387 OA
ATOM     36  H   UNL     1       3.636  -8.134  23.207  0.00  0.00    +0.210 HD
ENDBRANCH  30  35
ENDBRANCH  23  27
ENDBRANCH   1  23
BRANCH   6  37
ATOM     37  O   UNL     1       8.850   3.145  24.911  0.00  0.00    -0.453 OA
BRANCH  37  38
ATOM     38  C   UNL     1       8.728   3.695  23.586  0.00  0.00    +0.340 C 
ATOM     39  O   UNL     1       9.694   4.732  23.327  0.00  0.00    -0.331 OA
ATOM     40  C   UNL     1       9.384   6.079  23.677  0.00  0.00    +0.179 C 
ATOM     41  C   UNL     1       7.969   6.504  23.252  0.00  0.00    +0.177 C 
ATOM     42  C   UNL     1       6.889   5.493  23.660  0.00  0.00    +0.180 C 
ATOM     43  C   UNL     1       7.271   4.081  23.211  0.00  0.00    +0.214 C 
BRANCH  41  44
ATOM     44  O   UNL     1       7.975   6.618  21.808  0.00  0.00    -0.386 OA
ATOM     45  H   UNL     1       8.700   7.226  21.569  0.00  0.00    +0.210 HD
ENDBRANCH  41  44
BRANCH  42  46
ATOM     46  O   UNL     1       6.533   5.561  25.034  0.00  0.00    -0.386 OA
ATOM     47  H   UNL     1       6.633   6.483  25.363  0.00  0.00    +0.210 HD
ENDBRANCH  42  46
BRANCH  43  48
ATOM     48  O   UNL     1       7.104   4.013  21.776  0.00  0.00    -0.383 OA
ATOM     49  H   UNL     1       6.547   3.229  21.604  0.00  0.00    +0.210 HD
ENDBRANCH  43  48
BRANCH  40  50
ATOM     50  C   UNL     1       9.736   6.383  25.135  0.00  0.00    +0.190 C 
BRANCH  50  51
ATOM     51  O   UNL     1       8.980   5.590  26.034  0.00  0.00    -0.392 OA
ATOM     52  H   UNL     1       9.612   5.061  26.568  0.00  0.00    +0.210 HD
ENDBRANCH  50  51
ENDBRANCH  40  50
ENDBRANCH  37  38
ENDBRANCH   6  37
TORSDOF 15
ENDMDL
MODEL 5
REMARK VINA RESULT:      -6.9      2.324     10.280
REMARK  Name = 
REMARK  16 active torsions:
REMARK  status: ('A' for Active; 'I' for Inactive)
REMARK    1  A    between atoms: C_1  and  C_2
REMARK    2  A    between atoms: C_4  and  O_53
REMARK    3  A    between atoms: C_6  and  O_52
REMARK    4  A    between atoms: C_8  and  O_51
REMARK    5  A    between atoms: C_10  and  O_13
REMARK    6  A    between atoms: O_13  and  C_14
REMARK    7  A    between atoms: C_16  and  O_50
REMARK    8  A    between atoms: C_21  and  C_42
REMARK    9  A    between atoms: C_22  and  O_25
REMARK   10  A    between atoms: O_25  and  C_26
REMARK   11  A    between atoms: C_28  and  O_41
REMARK   12  A    between atoms: C_30  and  O_40
REMARK   13  A    between atoms: C_32  and  O_39
REMARK   14  A    between atoms: C_34  and  C_37
REMARK   15  A    between atoms: C_37  and  O_38
REMARK   16  A    between atoms: C_44  and  O_49
REMARK                            x       y       z     vdW  Elec       q    Type
REMARK                         _______ _______ _______ _____ _____    ______ ____
ROOT
ATOM      1  C   UNL     1       5.215   2.735  25.257  0.00  0.00    +0.131 A 
ATOM      2  C   UNL     1       5.718   1.592  24.632  0.00  0.00    +0.093 A 
ATOM      3  C   UNL     1       5.475   0.337  25.192  0.00  0.00    +0.147 A 
ATOM      4  O   UNL     1       6.044  -0.753  24.581  0.00  0.00    -0.451 OA
ATOM      5  C   UNL     1       5.604  -2.003  24.955  0.00  0.00    +0.181 A 
ATOM      6  C   UNL     1       4.890  -2.291  26.070  0.00  0.00    +0.214 A 
ATOM      7  C   UNL     1       4.678  -1.114  26.973  0.00  0.00    +0.238 A 
ATOM      8  O   UNL     1       4.568  -1.232  28.186  0.00  0.00    -0.283 OA
ATOM      9  C   UNL     1       4.734   0.217  26.360  0.00  0.00    +0.109 A 
ATOM     10  C   UNL     1       4.167   1.351  26.942  0.00  0.00    +0.135 A 
ATOM     11  C   UNL     1       4.410   2.606  26.392  0.00  0.00    +0.092 A 
ENDROOT
BRANCH   5  12
ATOM     12  C   UNL     1       6.035  -3.041  24.006  0.00  0.00    +0.024 A 
ATOM     13  C   UNL     1       7.384  -3.160  23.661  0.00  0.00    +0.011 A 
ATOM     14  C   UNL     1       7.790  -4.126  22.720  0.00  0.00    -0.004 A 
ATOM     15  C   UNL     1       6.891  -5.023  22.110  0.00  0.00    -0.066 A 
ATOM     16  O   UNL     1       7.258  -5.934  21.295  0.00  0.00    -0.871 OA
ATOM     17  C   UNL     1       5.546  -4.839  22.506  0.00  0.00    +0.110 A 
ATOM     18  C   UNL     1       5.105  -3.871  23.400  0.00  0.00    +0.056 A 
BRANCH  17  19
ATOM     19  O   UNL     1       4.591  -5.723  22.056  0.00  0.00    -0.507 OA
ATOM     20  H   UNL     1       4.147  -5.917  22.910  0.00  0.00    +0.292 HD
ENDBRANCH  17  19
ENDBRANCH   5  12
BRANCH  10  21
ATOM     21  O   UNL     1       3.362   1.248  28.037  0.00  0.00    -0.506 OA
ATOM     22  H   UNL     1       3.753   1.725  28.783  0.00  0.00    +0.292 HD
ENDBRANCH  10  21
BRANCH   1  23
ATOM     23  O   UNL     1       5.437   4.029  24.891  0.00  0.00    -0.461 OA
BRANCH  23  27
ATOM     24  C   UNL     1       9.557   3.637  23.589  0.00  0.00    +0.041 C 
ATOM     25  C   UNL     1       9.013   4.747  24.481  0.00  0.00    +0.150 C 
ATOM     26  O   UNL     1       7.760   4.395  25.082  0.00  0.00    -0.334 OA
ATOM     27  C   UNL     1       6.642   4.350  24.188  0.00  0.00    +0.339 C 
ATOM     28  C   UNL     1       6.413   5.733  23.538  0.00  0.00    +0.214 C 
ATOM     29  C   UNL     1       7.697   6.256  22.883  0.00  0.00    +0.180 C 
ATOM     30  C   UNL     1       8.902   6.133  23.825  0.00  0.00    +0.174 C 
BRANCH  28  31
ATOM     31  O   UNL     1       5.357   5.690  22.564  0.00  0.00    -0.383 OA
ATOM     32  H   UNL     1       4.575   5.301  23.000  0.00  0.00    +0.210 HD
ENDBRANCH  28  31
BRANCH  29  33
ATOM     33  O   UNL     1       7.910   5.617  21.615  0.00  0.00    -0.386 OA
ATOM     34  H   UNL     1       7.860   6.264  20.893  0.00  0.00    +0.210 HD
ENDBRANCH  29  33
BRANCH  30  35
ATOM     35  O   UNL     1       8.746   7.108  24.872  0.00  0.00    -0.387 OA
ATOM     36  H   UNL     1       9.058   7.970  24.528  0.00  0.00    +0.210 HD
ENDBRANCH  30  35
ENDBRANCH  23  27
ENDBRANCH   1  23
BRANCH   6  37
ATOM     37  O   UNL     1       4.429  -3.576  26.385  0.00  0.00    -0.453 OA
BRANCH  37  38
ATOM     38  C   UNL     1       5.318  -4.411  27.151  0.00  0.00    +0.340 C 
ATOM     39  O   UNL     1       5.761  -5.566  26.414  0.00  0.00    -0.331 OA
ATOM     40  C   UNL     1       4.975  -6.756  26.442  0.00  0.00    +0.179 C 
ATOM     41  C   UNL     1       4.497  -7.133  27.854  0.00  0.00    +0.177 C 
ATOM     42  C   UNL     1       3.867  -5.955  28.609  0.00  0.00    +0.180 C 
ATOM     43  C   UNL     1       4.788  -4.733  28.574  0.00  0.00    +0.214 C 
BRANCH  41  44
ATOM     44  O   UNL     1       5.660  -7.586  28.590  0.00  0.00    -0.386 OA
ATOM     45  H   UNL     1       5.686  -8.558  28.518  0.00  0.00    +0.210 HD
ENDBRANCH  41  44
BRANCH  42  46
ATOM     46  O   UNL     1       2.538  -5.660  28.202  0.00  0.00    -0.386 OA
ATOM     47  H   UNL     1       1.970  -6.458  28.304  0.00  0.00    +0.210 HD
ENDBRANCH  42  46
BRANCH  43  48
ATOM     48  O   UNL     1       5.900  -4.992  29.461  0.00  0.00    -0.383 OA
ATOM     49  H   UNL     1       5.619  -4.686  30.345  0.00  0.00    +0.210 HD
ENDBRANCH  43  48
BRANCH  40  50
ATOM     50  C   UNL     1       3.878  -6.737  25.376  0.00  0.00    +0.190 C 
BRANCH  50  51
ATOM     51  O   UNL     1       4.198  -7.574  24.278  0.00  0.00    -0.392 OA
ATOM     52  H   UNL     1       3.369  -7.735  23.776  0.00  0.00    +0.210 HD
ENDBRANCH  50  51
ENDBRANCH  40  50
ENDBRANCH  37  38
ENDBRANCH   6  37
TORSDOF 15
ENDMDL
MODEL 6
REMARK VINA RESULT:      -6.8      1.444      2.183
REMARK  Name = 
REMARK  16 active torsions:
REMARK  status: ('A' for Active; 'I' for Inactive)
REMARK    1  A    between atoms: C_1  and  C_2
REMARK    2  A    between atoms: C_4  and  O_53
REMARK    3  A    between atoms: C_6  and  O_52
REMARK    4  A    between atoms: C_8  and  O_51
REMARK    5  A    between atoms: C_10  and  O_13
REMARK    6  A    between atoms: O_13  and  C_14
REMARK    7  A    between atoms: C_16  and  O_50
REMARK    8  A    between atoms: C_21  and  C_42
REMARK    9  A    between atoms: C_22  and  O_25
REMARK   10  A    between atoms: O_25  and  C_26
REMARK   11  A    between atoms: C_28  and  O_41
REMARK   12  A    between atoms: C_30  and  O_40
REMARK   13  A    between atoms: C_32  and  O_39
REMARK   14  A    between atoms: C_34  and  C_37
REMARK   15  A    between atoms: C_37  and  O_38
REMARK   16  A    between atoms: C_44  and  O_49
REMARK                            x       y       z     vdW  Elec       q    Type
REMARK                         _______ _______ _______ _____ _____    ______ ____
ROOT
ATOM      1  C   UNL     1       7.830  -3.419  24.477  0.00  0.00    +0.131 A 
ATOM      2  C   UNL     1       7.163  -2.418  25.186  0.00  0.00    +0.093 A 
ATOM      3  C   UNL     1       7.681  -1.122  25.201  0.00  0.00    +0.147 A 
ATOM      4  O   UNL     1       7.028  -0.186  25.963  0.00  0.00    -0.451 OA
ATOM      5  C   UNL     1       7.362   1.138  25.782  0.00  0.00    +0.181 A 
ATOM      6  C   UNL     1       8.471   1.596  25.155  0.00  0.00    +0.214 A 
ATOM      7  C   UNL     1       9.417   0.514  24.729  0.00  0.00    +0.238 A 
ATOM      8  O   UNL     1      10.625   0.690  24.663  0.00  0.00    -0.283 OA
ATOM      9  C   UNL     1       8.849  -0.821  24.515  0.00  0.00    +0.109 A 
ATOM     10  C   UNL     1       9.475  -1.802  23.745  0.00  0.00    +0.135 A 
ATOM     11  C   UNL     1       8.967  -3.098  23.730  0.00  0.00    +0.092 A 
ENDROOT
BRANCH   5  12
ATOM     12  C   UNL     1       6.374   2.040  26.395  0.00  0.00    +0.024 A 
ATOM     13  C   UNL     1       6.681   2.718  27.577  0.00  0.00    +0.011 A 
ATOM     14  C   UNL     1       5.720   3.548  28.186  0.00  0.00    -0.004 A 
ATOM     15  C   UNL     1       4.438   3.760  27.639  0.00  0.00    -0.066 A 
ATOM     16  O   UNL     1       3.579   4.550  28.156  0.00  0.00    -0.871 OA
ATOM     17  C   UNL     1       4.201   3.038  26.446  0.00  0.00    +0.110 A 
ATOM     18  C   UNL     1       5.111   2.181  25.841  0.00  0.00    +0.056 A 
BRANCH  17  19
ATOM     19  O   UNL     1       3.023   3.245  25.764  0.00  0.00    -0.507 OA
ATOM     20  H   UNL     1       2.448   2.623  26.259  0.00  0.00    +0.292 HD
ENDBRANCH  17  19
ENDBRANCH   5  12
BRANCH  10  21
ATOM     21  O   UNL     1      10.572  -1.508  22.992  0.00  0.00    -0.506 OA
ATOM     22  H   UNL     1      11.370  -1.858  23.416  0.00  0.00    +0.292 HD
ENDBRANCH  10  21
BRANCH   1  23
ATOM     23  O   UNL     1       7.508  -4.743  24.436  0.00  0.00    -0.461 OA
BRANCH  23  27
ATOM     24  C   UNL     1       3.793  -6.373  25.973  0.00  0.00    +0.041 C 
ATOM     25  C   UNL     1       4.346  -4.986  26.282  0.00  0.00    +0.150 C 
ATOM     26  O   UNL     1       5.331  -4.570  25.328  0.00  0.00    -0.334 OA
ATOM     27  C   UNL     1       6.585  -5.259  25.401  0.00  0.00    +0.339 C 
ATOM     28  C   UNL     1       7.238  -5.048  26.786  0.00  0.00    +0.214 C 
ATOM     29  C   UNL     1       6.271  -5.420  27.916  0.00  0.00    +0.180 C 
ATOM     30  C   UNL     1       4.888  -4.789  27.707  0.00  0.00    +0.174 C 
BRANCH  28  31
ATOM     31  O   UNL     1       8.451  -5.808  26.918  0.00  0.00    -0.383 OA
ATOM     32  H   UNL     1       8.982  -5.649  26.114  0.00  0.00    +0.210 HD
ENDBRANCH  28  31
BRANCH  29  33
ATOM     33  O   UNL     1       6.216  -6.846  28.081  0.00  0.00    -0.386 OA
ATOM     34  H   UNL     1       6.967  -7.158  28.611  0.00  0.00    +0.210 HD
ENDBRANCH  29  33
BRANCH  30  35
ATOM     35  O   UNL     1       5.008  -3.374  27.944  0.00  0.00    -0.387 OA
ATOM     36  H   UNL     1       5.350  -3.250  28.852  0.00  0.00    +0.210 HD
ENDBRANCH  30  35
ENDBRANCH  23  27
ENDBRANCH   1  23
BRANCH   6  37
ATOM     37  O   UNL     1       8.746   2.956  24.959  0.00  0.00    -0.453 OA
BRANCH  37  38
ATOM     38  C   UNL     1       8.638   3.448  23.610  0.00  0.00    +0.340 C 
ATOM     39  O   UNL     1       9.607   4.474  23.317  0.00  0.00    -0.331 OA
ATOM     40  C   UNL     1       9.292   5.835  23.605  0.00  0.00    +0.179 C 
ATOM     41  C   UNL     1       7.882   6.239  23.146  0.00  0.00    +0.177 C 
ATOM     42  C   UNL     1       6.798   5.246  23.585  0.00  0.00    +0.180 C 
ATOM     43  C   UNL     1       7.186   3.815  23.202  0.00  0.00    +0.214 C 
BRANCH  41  44
ATOM     44  O   UNL     1       7.904   6.290  21.698  0.00  0.00    -0.386 OA
ATOM     45  H   UNL     1       7.117   5.810  21.380  0.00  0.00    +0.210 HD
ENDBRANCH  41  44
BRANCH  42  46
ATOM     46  O   UNL     1       6.426   5.372  24.950  0.00  0.00    -0.386 OA
ATOM     47  H   UNL     1       5.725   4.717  25.171  0.00  0.00    +0.210 HD
ENDBRANCH  42  46
BRANCH  43  48
ATOM     48  O   UNL     1       7.035   3.685  21.770  0.00  0.00    -0.383 OA
ATOM     49  H   UNL     1       7.178   4.578  21.400  0.00  0.00    +0.210 HD
ENDBRANCH  43  48
BRANCH  40  50
ATOM     50  C   UNL     1       9.627   6.202  25.052  0.00  0.00    +0.190 C 
BRANCH  50  51
ATOM     51  O   UNL     1       8.914   5.399  25.977  0.00  0.00    -0.392 OA
ATOM     52  H   UNL     1       8.504   4.660  25.476  0.00  0.00    +0.210 HD
ENDBRANCH  50  51
ENDBRANCH  40  50
ENDBRANCH  37  38
ENDBRANCH   6  37
TORSDOF 15
ENDMDL
MODEL 7
REMARK VINA RESULT:      -6.8      2.902      9.912
REMARK  Name = 
REMARK  16 active torsions:
REMARK  status: ('A' for Active; 'I' for Inactive)
REMARK    1  A    between atoms: C_1  and  C_2
REMARK    2  A    between atoms: C_4  and  O_53
REMARK    3  A    between atoms: C_6  and  O_52
REMARK    4  A    between atoms: C_8  and  O_51
REMARK    5  A    between atoms: C_10  and  O_13
REMARK    6  A    between atoms: O_13  and  C_14
REMARK    7  A    between atoms: C_16  and  O_50
REMARK    8  A    between atoms: C_21  and  C_42
REMARK    9  A    between atoms: C_22  and  O_25
REMARK   10  A    between atoms: O_25  and  C_26
REMARK   11  A    between atoms: C_28  and  O_41
REMARK   12  A    between atoms: C_30  and  O_40
REMARK   13  A    between atoms: C_32  and  O_39
REMARK   14  A    between atoms: C_34  and  C_37
REMARK   15  A    between atoms: C_37  and  O_38
REMARK   16  A    between atoms: C_44  and  O_49
REMARK                            x       y       z     vdW  Elec       q    Type
REMARK                         _______ _______ _______ _____ _____    ______ ____
ROOT
ATOM      1  C   UNL     1       8.041  -1.829  23.549  0.00  0.00    +0.131 A 
ATOM      2  C   UNL     1       6.995  -2.695  23.222  0.00  0.00    +0.093 A 
ATOM      3  C   UNL     1       6.711  -3.777  24.056  0.00  0.00    +0.147 A 
ATOM      4  O   UNL     1       5.718  -4.640  23.663  0.00  0.00    -0.451 OA
ATOM      5  C   UNL     1       5.249  -5.546  24.587  0.00  0.00    +0.181 A 
ATOM      6  C   UNL     1       5.862  -5.884  25.746  0.00  0.00    +0.214 A 
ATOM      7  C   UNL     1       7.207  -5.248  25.928  0.00  0.00    +0.238 A 
ATOM      8  O   UNL     1       8.106  -5.788  26.557  0.00  0.00    -0.283 OA
ATOM      9  C   UNL     1       7.455  -3.995  25.208  0.00  0.00    +0.109 A 
ATOM     10  C   UNL     1       8.449  -3.087  25.574  0.00  0.00    +0.135 A 
ATOM     11  C   UNL     1       8.742  -2.009  24.744  0.00  0.00    +0.092 A 
ENDROOT
BRANCH   5  12
ATOM     12  C   UNL     1       3.984  -6.162  24.155  0.00  0.00    +0.024 A 
ATOM     13  C   UNL     1       3.696  -7.486  24.497  0.00  0.00    +0.011 A 
ATOM     14  C   UNL     1       2.505  -8.089  24.048  0.00  0.00    -0.004 A 
ATOM     15  C   UNL     1       1.548  -7.403  23.274  0.00  0.00    -0.066 A 
ATOM     16  O   UNL     1       0.443  -7.926  22.905  0.00  0.00    -0.871 OA
ATOM     17  C   UNL     1       1.911  -6.071  22.966  0.00  0.00    +0.110 A 
ATOM     18  C   UNL     1       3.094  -5.459  23.359  0.00  0.00    +0.056 A 
BRANCH  17  19
ATOM     19  O   UNL     1       1.009  -5.270  22.304  0.00  0.00    -0.507 OA
ATOM     20  H   UNL     1       0.245  -5.886  22.278  0.00  0.00    +0.292 HD
ENDBRANCH  17  19
ENDBRANCH   5  12
BRANCH  10  21
ATOM     21  O   UNL     1       9.131  -3.231  26.745  0.00  0.00    -0.506 OA
ATOM     22  H   UNL     1       8.561  -3.636  27.415  0.00  0.00    +0.292 HD
ENDBRANCH  10  21
BRANCH   1  23
ATOM     23  O   UNL     1       8.501  -0.787  22.800  0.00  0.00    -0.461 OA
BRANCH  23  27
ATOM     24  C   UNL     1       7.598   2.459  25.532  0.00  0.00    +0.041 C 
ATOM     25  C   UNL     1       6.636   1.876  24.503  0.00  0.00    +0.150 C 
ATOM     26  O   UNL     1       7.042   0.576  24.058  0.00  0.00    -0.334 OA
ATOM     27  C   UNL     1       8.204   0.549  23.220  0.00  0.00    +0.339 C 
ATOM     28  C   UNL     1       7.961   1.368  21.932  0.00  0.00    +0.214 C 
ATOM     29  C   UNL     1       7.478   2.786  22.261  0.00  0.00    +0.180 C 
ATOM     30  C   UNL     1       6.339   2.770  23.289  0.00  0.00    +0.174 C 
BRANCH  28  31
ATOM     31  O   UNL     1       9.144   1.437  21.119  0.00  0.00    -0.383 OA
ATOM     32  H   UNL     1       9.912   1.344  21.716  0.00  0.00    +0.210 HD
ENDBRANCH  28  31
BRANCH  29  33
ATOM     33  O   UNL     1       8.582   3.612  22.661  0.00  0.00    -0.386 OA
ATOM     34  H   UNL     1       8.609   4.426  22.134  0.00  0.00    +0.210 HD
ENDBRANCH  29  33
BRANCH  30  35
ATOM     35  O   UNL     1       5.163   2.256  22.637  0.00  0.00    -0.387 OA
ATOM     36  H   UNL     1       4.947   2.853  21.892  0.00  0.00    +0.210 HD
ENDBRANCH  30  35
ENDBRANCH  23  27
ENDBRANCH   1  23
BRANCH   6  37
ATOM     37  O   UNL     1       5.322  -6.783  26.676  0.00  0.00    -0.453 OA
BRANCH  37  38
ATOM     38  C   UNL     1       5.264  -6.339  28.044  0.00  0.00    +0.340 C 
ATOM     39  O   UNL     1       4.383  -7.144  28.850  0.00  0.00    -0.331 OA
ATOM     40  C   UNL     1       2.997  -6.811  28.915  0.00  0.00    +0.179 C 
ATOM     41  C   UNL     1       2.744  -5.310  29.126  0.00  0.00    +0.177 C 
ATOM     42  C   UNL     1       3.551  -4.424  28.166  0.00  0.00    +0.180 C 
ATOM     43  C   UNL     1       5.032  -4.810  28.187  0.00  0.00    +0.214 C 
BRANCH  41  44
ATOM     44  O   UNL     1       3.138  -4.999  30.485  0.00  0.00    -0.386 OA
ATOM     45  H   UNL     1       4.088  -4.778  30.467  0.00  0.00    +0.210 HD
ENDBRANCH  41  44
BRANCH  42  46
ATOM     46  O   UNL     1       3.011  -4.364  26.854  0.00  0.00    -0.386 OA
ATOM     47  H   UNL     1       2.028  -4.385  26.893  0.00  0.00    +0.210 HD
ENDBRANCH  42  46
BRANCH  43  48
ATOM     48  O   UNL     1       5.592  -4.347  29.437  0.00  0.00    -0.383 OA
ATOM     49  H   UNL     1       4.879  -3.852  29.887  0.00  0.00    +0.210 HD
ENDBRANCH  43  48
BRANCH  40  50
ATOM     50  C   UNL     1       2.207  -7.440  27.765  0.00  0.00    +0.190 C 
BRANCH  50  51
ATOM     51  O   UNL     1       1.088  -6.651  27.402  0.00  0.00    -0.392 OA
ATOM     52  H   UNL     1       0.495  -7.209  26.853  0.00  0.00    +0.210 HD
ENDBRANCH  50  51
ENDBRANCH  40  50
ENDBRANCH  37  38
ENDBRANCH   6  37
TORSDOF 15
ENDMDL
MODEL 8
REMARK VINA RESULT:      -6.8      2.540      9.770
REMARK  Name = 
REMARK  16 active torsions:
REMARK  status: ('A' for Active; 'I' for Inactive)
REMARK    1  A    between atoms: C_1  and  C_2
REMARK    2  A    between atoms: C_4  and  O_53
REMARK    3  A    between atoms: C_6  and  O_52
REMARK    4  A    between atoms: C_8  and  O_51
REMARK    5  A    between atoms: C_10  and  O_13
REMARK    6  A    between atoms: O_13  and  C_14
REMARK    7  A    between atoms: C_16  and  O_50
REMARK    8  A    between atoms: C_21  and  C_42
REMARK    9  A    between atoms: C_22  and  O_25
REMARK   10  A    between atoms: O_25  and  C_26
REMARK   11  A    between atoms: C_28  and  O_41
REMARK   12  A    between atoms: C_30  and  O_40
REMARK   13  A    between atoms: C_32  and  O_39
REMARK   14  A    between atoms: C_34  and  C_37
REMARK   15  A    between atoms: C_37  and  O_38
REMARK   16  A    between atoms: C_44  and  O_49
REMARK                            x       y       z     vdW  Elec       q    Type
REMARK                         _______ _______ _______ _____ _____    ______ ____
ROOT
ATOM      1  C   UNL     1       7.947   0.695  23.606  0.00  0.00    +0.131 A 
ATOM      2  C   UNL     1       7.120  -0.365  23.228  0.00  0.00    +0.093 A 
ATOM      3  C   UNL     1       6.996  -1.475  24.066  0.00  0.00    +0.147 A 
ATOM      4  O   UNL     1       6.225  -2.521  23.625  0.00  0.00    -0.451 OA
ATOM      5  C   UNL     1       5.879  -3.494  24.535  0.00  0.00    +0.181 A 
ATOM      6  C   UNL     1       6.461  -3.694  25.742  0.00  0.00    +0.214 A 
ATOM      7  C   UNL     1       7.638  -2.801  26.000  0.00  0.00    +0.238 A 
ATOM      8  O   UNL     1       8.578  -3.146  26.702  0.00  0.00    -0.283 OA
ATOM      9  C   UNL     1       7.683  -1.530  25.270  0.00  0.00    +0.109 A 
ATOM     10  C   UNL     1       8.449  -0.439  25.683  0.00  0.00    +0.135 A 
ATOM     11  C   UNL     1       8.582   0.668  24.850  0.00  0.00    +0.092 A 
ENDROOT
BRANCH   5  12
ATOM     12  C   UNL     1       4.795  -4.354  24.032  0.00  0.00    +0.024 A 
ATOM     13  C   UNL     1       5.094  -5.483  23.266  0.00  0.00    +0.011 A 
ATOM     14  C   UNL     1       4.055  -6.281  22.749  0.00  0.00    -0.004 A 
ATOM     15  C   UNL     1       2.693  -6.012  22.991  0.00  0.00    -0.066 A 
ATOM     16  O   UNL     1       1.748  -6.759  22.569  0.00  0.00    -0.871 OA
ATOM     17  C   UNL     1       2.471  -4.853  23.770  0.00  0.00    +0.110 A 
ATOM     18  C   UNL     1       3.469  -4.022  24.262  0.00  0.00    +0.056 A 
BRANCH  17  19
ATOM     19  O   UNL     1       1.186  -4.547  24.159  0.00  0.00    -0.507 OA
ATOM     20  H   UNL     1       1.140  -3.625  23.827  0.00  0.00    +0.292 HD
ENDBRANCH  17  19
ENDBRANCH   5  12
BRANCH  10  21
ATOM     21  O   UNL     1       9.061  -0.434  26.902  0.00  0.00    -0.506 OA
ATOM     22  H   UNL     1       9.903   0.040  26.848  0.00  0.00    +0.292 HD
ENDBRANCH  10  21
BRANCH   1  23
ATOM     23  O   UNL     1       8.245   1.801  22.867  0.00  0.00    -0.461 OA
BRANCH  23  27
ATOM     24  C   UNL     1       5.653   4.893  24.460  0.00  0.00    +0.041 C 
ATOM     25  C   UNL     1       6.289   4.898  23.074  0.00  0.00    +0.150 C 
ATOM     26  O   UNL     1       6.724   3.594  22.672  0.00  0.00    -0.334 OA
ATOM     27  C   UNL     1       7.869   3.088  23.368  0.00  0.00    +0.339 C 
ATOM     28  C   UNL     1       9.088   4.013  23.151  0.00  0.00    +0.214 C 
ATOM     29  C   UNL     1       8.749   5.466  23.509  0.00  0.00    +0.180 C 
ATOM     30  C   UNL     1       7.427   5.911  22.870  0.00  0.00    +0.174 C 
BRANCH  28  31
ATOM     31  O   UNL     1      10.223   3.579  23.918  0.00  0.00    -0.383 OA
ATOM     32  H   UNL     1      11.013   3.687  23.354  0.00  0.00    +0.210 HD
ENDBRANCH  28  31
BRANCH  29  33
ATOM     33  O   UNL     1       8.773   5.651  24.932  0.00  0.00    -0.386 OA
ATOM     34  H   UNL     1       9.536   5.195  25.324  0.00  0.00    +0.210 HD
ENDBRANCH  29  33
BRANCH  30  35
ATOM     35  O   UNL     1       7.646   6.052  21.454  0.00  0.00    -0.387 OA
ATOM     36  H   UNL     1       6.948   6.639  21.099  0.00  0.00    +0.210 HD
ENDBRANCH  30  35
ENDBRANCH  23  27
ENDBRANCH   1  23
BRANCH   6  37
ATOM     37  O   UNL     1       6.044  -4.674  26.653  0.00  0.00    -0.453 OA
BRANCH  37  38
ATOM     38  C   UNL     1       5.230  -4.227  27.753  0.00  0.00    +0.340 C 
ATOM     39  O   UNL     1       5.806  -4.549  29.033  0.00  0.00    -0.331 OA
ATOM     40  C   UNL     1       5.525  -5.816  29.626  0.00  0.00    +0.179 C 
ATOM     41  C   UNL     1       4.037  -6.198  29.562  0.00  0.00    +0.177 C 
ATOM     42  C   UNL     1       3.431  -6.020  28.163  0.00  0.00    +0.180 C 
ATOM     43  C   UNL     1       3.735  -4.624  27.614  0.00  0.00    +0.214 C 
BRANCH  41  44
ATOM     44  O   UNL     1       3.335  -5.329  30.485  0.00  0.00    -0.386 OA
ATOM     45  H   UNL     1       2.419  -5.243  30.160  0.00  0.00    +0.210 HD
ENDBRANCH  41  44
BRANCH  42  46
ATOM     46  O   UNL     1       3.772  -7.059  27.256  0.00  0.00    -0.386 OA
ATOM     47  H   UNL     1       2.965  -7.566  27.007  0.00  0.00    +0.210 HD
ENDBRANCH  42  46
BRANCH  43  48
ATOM     48  O   UNL     1       2.911  -3.677  28.332  0.00  0.00    -0.383 OA
ATOM     49  H   UNL     1       3.174  -3.746  29.270  0.00  0.00    +0.210 HD
ENDBRANCH  43  48
BRANCH  40  50
ATOM     50  C   UNL     1       6.488  -6.899  29.136  0.00  0.00    +0.190 C 
BRANCH  50  51
ATOM     51  O   UNL     1       7.483  -6.369  28.278  0.00  0.00    -0.392 OA
ATOM     52  H   UNL     1       8.275  -6.173  28.826  0.00  0.00    +0.210 HD
ENDBRANCH  50  51
ENDBRANCH  40  50
ENDBRANCH  37  38
ENDBRANCH   6  37
TORSDOF 15
ENDMDL
MODEL 9
REMARK VINA RESULT:      -6.8      1.591      2.552
REMARK  Name = 
REMARK  16 active torsions:
REMARK  status: ('A' for Active; 'I' for Inactive)
REMARK    1  A    between atoms: C_1  and  C_2
REMARK    2  A    between atoms: C_4  and  O_53
REMARK    3  A    between atoms: C_6  and  O_52
REMARK    4  A    between atoms: C_8  and  O_51
REMARK    5  A    between atoms: C_10  and  O_13
REMARK    6  A    between atoms: O_13  and  C_14
REMARK    7  A    between atoms: C_16  and  O_50
REMARK    8  A    between atoms: C_21  and  C_42
REMARK    9  A    between atoms: C_22  and  O_25
REMARK   10  A    between atoms: O_25  and  C_26
REMARK   11  A    between atoms: C_28  and  O_41
REMARK   12  A    between atoms: C_30  and  O_40
REMARK   13  A    between atoms: C_32  and  O_39
REMARK   14  A    between atoms: C_34  and  C_37
REMARK   15  A    between atoms: C_37  and  O_38
REMARK   16  A    between atoms: C_44  and  O_49
REMARK                            x       y       z     vdW  Elec       q    Type
REMARK                         _______ _______ _______ _____ _____    ______ ____
ROOT
ATOM      1  C   UNL     1       8.300  -3.737  25.171  0.00  0.00    +0.131 A 
ATOM      2  C   UNL     1       7.718  -2.821  26.049  0.00  0.00    +0.093 A 
ATOM      3  C   UNL     1       8.004  -1.462  25.916  0.00  0.00    +0.147 A 
ATOM      4  O   UNL     1       7.461  -0.605  26.840  0.00  0.00    -0.451 OA
ATOM      5  C   UNL     1       7.511   0.745  26.574  0.00  0.00    +0.181 A 
ATOM      6  C   UNL     1       8.301   1.342  25.649  0.00  0.00    +0.214 A 
ATOM      7  C   UNL     1       9.242   0.400  24.959  0.00  0.00    +0.238 A 
ATOM      8  O   UNL     1      10.334   0.757  24.540  0.00  0.00    -0.283 OA
ATOM      9  C   UNL     1       8.857  -1.015  24.917  0.00  0.00    +0.109 A 
ATOM     10  C   UNL     1       9.379  -1.920  23.993  0.00  0.00    +0.135 A 
ATOM     11  C   UNL     1       9.103  -3.278  24.123  0.00  0.00    +0.092 A 
ENDROOT
BRANCH   5  12
ATOM     12  C   UNL     1       6.614   1.511  27.455  0.00  0.00    +0.024 A 
ATOM     13  C   UNL     1       7.137   2.247  28.521  0.00  0.00    +0.011 A 
ATOM     14  C   UNL     1       6.274   2.944  29.389  0.00  0.00    -0.004 A 
ATOM     15  C   UNL     1       4.876   2.964  29.220  0.00  0.00    -0.066 A 
ATOM     16  O   UNL     1       4.091   3.634  29.972  0.00  0.00    -0.871 OA
ATOM     17  C   UNL     1       4.422   2.194  28.124  0.00  0.00    +0.110 A 
ATOM     18  C   UNL     1       5.241   1.463  27.273  0.00  0.00    +0.056 A 
BRANCH  17  19
ATOM     19  O   UNL     1       3.085   2.221  27.797  0.00  0.00    -0.507 OA
ATOM     20  H   UNL     1       2.827   3.040  28.273  0.00  0.00    +0.292 HD
ENDBRANCH  17  19
ENDBRANCH   5  12
BRANCH  10  21
ATOM     21  O   UNL     1      10.147  -1.494  22.950  0.00  0.00    -0.506 OA
ATOM     22  H   UNL     1      10.610  -2.244  22.550  0.00  0.00    +0.292 HD
ENDBRANCH  10  21
BRANCH   1  23
ATOM     23  O   UNL     1       8.196  -5.096  25.222  0.00  0.00    -0.461 OA
BRANCH  23  27
ATOM     24  C   UNL     1       4.366  -6.985  24.463  0.00  0.00    +0.041 C 
ATOM     25  C   UNL     1       4.565  -5.566  24.984  0.00  0.00    +0.150 C 
ATOM     26  O   UNL     1       5.888  -5.077  24.734  0.00  0.00    -0.334 OA
ATOM     27  C   UNL     1       6.924  -5.680  25.519  0.00  0.00    +0.339 C 
ATOM     28  C   UNL     1       6.673  -5.435  27.024  0.00  0.00    +0.214 C 
ATOM     29  C   UNL     1       5.262  -5.881  27.429  0.00  0.00    +0.180 C 
ATOM     30  C   UNL     1       4.200  -5.343  26.461  0.00  0.00    +0.174 C 
BRANCH  28  31
ATOM     31  O   UNL     1       7.645  -6.112  27.838  0.00  0.00    -0.383 OA
ATOM     32  H   UNL     1       7.208  -6.896  28.221  0.00  0.00    +0.210 HD
ENDBRANCH  28  31
BRANCH  29  33
ATOM     33  O   UNL     1       5.210  -7.308  27.581  0.00  0.00    -0.386 OA
ATOM     34  H   UNL     1       5.972  -7.726  27.148  0.00  0.00    +0.210 HD
ENDBRANCH  29  33
BRANCH  30  35
ATOM     35  O   UNL     1       4.081  -3.925  26.679  0.00  0.00    -0.387 OA
ATOM     36  H   UNL     1       4.480  -3.721  27.549  0.00  0.00    +0.210 HD
ENDBRANCH  30  35
ENDBRANCH  23  27
ENDBRANCH   1  23
BRANCH   6  37
ATOM     37  O   UNL     1       8.286   2.718  25.386  0.00  0.00    -0.453 OA
BRANCH  37  38
ATOM     38  C   UNL     1       7.078   3.251  24.811  0.00  0.00    +0.340 C 
ATOM     39  O   UNL     1       6.680   2.553  23.616  0.00  0.00    -0.331 OA
ATOM     40  C   UNL     1       7.204   2.971  22.356  0.00  0.00    +0.179 C 
ATOM     41  C   UNL     1       7.166   4.495  22.161  0.00  0.00    +0.177 C 
ATOM     42  C   UNL     1       7.738   5.268  23.357  0.00  0.00    +0.180 C 
ATOM     43  C   UNL     1       7.096   4.797  24.664  0.00  0.00    +0.214 C 
BRANCH  41  44
ATOM     44  O   UNL     1       5.777   4.868  21.989  0.00  0.00    -0.386 OA
ATOM     45  H   UNL     1       5.762   5.795  21.686  0.00  0.00    +0.210 HD
ENDBRANCH  41  44
BRANCH  42  46
ATOM     46  O   UNL     1       9.157   5.276  23.407  0.00  0.00    -0.386 OA
ATOM     47  H   UNL     1       9.490   6.203  23.405  0.00  0.00    +0.210 HD
ENDBRANCH  42  46
BRANCH  43  48
ATOM     48  O   UNL     1       5.743   5.305  24.701  0.00  0.00    -0.383 OA
ATOM     49  H   UNL     1       5.807   6.225  25.024  0.00  0.00    +0.210 HD
ENDBRANCH  43  48
BRANCH  40  50
ATOM     50  C   UNL     1       8.554   2.317  22.057  0.00  0.00    +0.190 C 
BRANCH  50  51
ATOM     51  O   UNL     1       8.432   0.917  21.876  0.00  0.00    -0.392 OA
ATOM     52  H   UNL     1       8.658   0.717  20.941  0.00  0.00    +0.210 HD
ENDBRANCH  50  51
ENDBRANCH  40  50
ENDBRANCH  37  38
ENDBRANCH   6  37
TORSDOF 15
ENDMDL
