MODEL 1
REMARK VINA RESULT:      -7.1      0.000      0.000
REMARK  Name = 
REMARK  27 active torsions:
REMARK  status: ('A' for Active; 'I' for Inactive)
REMARK    1  A    between atoms: C_1  and  C_2
REMARK    2  A    between atoms: C_3  and  O_73
REMARK    3  A    between atoms: C_5  and  O_72
REMARK    4  A    between atoms: C_7  and  O_71
REMARK    5  A    between atoms: C_8  and  O_11
REMARK    6  A    between atoms: O_11  and  C_12
REMARK    7  A    between atoms: C_14  and  O_70
REMARK    8  A    between atoms: C_19  and  C_62
REMARK    9  A    between atoms: C_20  and  O_23
REMARK   10  A    between atoms: O_23  and  C_24
REMARK   11  A    between atoms: C_26  and  O_61
REMARK   12  A    between atoms: C_27  and  O_60
REMARK   13  A    between atoms: C_28  and  O_59
REMARK   14  A    between atoms: C_30  and  C_32
REMARK   15  A    between atoms: C_32  and  O_33
REMARK   16  A    between atoms: O_33  and  C_34
REMARK   17  A    between atoms: C_36  and  O_58
REMARK   18  A    between atoms: C_37  and  O_57
REMARK   19  A    between atoms: C_38  and  O_56
REMARK   20  A    between atoms: C_40  and  C_43
REMARK   21  A    between atoms: C_43  and  O_44
REMARK   22  A    between atoms: O_44  and  C_45
REMARK   23  A    between atoms: C_45  and  C_47
REMARK   24  A    between atoms: C_48  and  C_49
REMARK   25  A    between atoms: C_52  and  O_55
REMARK   26  A    between atoms: C_64  and  O_69
REMARK   27  A    between atoms: C_65  and  O_68
REMARK                            x       y       z     vdW  Elec       q    Type
REMARK                         _______ _______ _______ _____ _____    ______ ____
ROOT
ATOM      1  C   UNL     1       9.182   3.512  24.024  0.00  0.00    +0.340 C 
ATOM      2  O   UNL     1       8.287   4.379  24.711  0.00  0.00    -0.331 OA
ATOM      3  C   UNL     1       8.362   5.782  24.510  0.00  0.00    +0.179 C 
ATOM      4  C   UNL     1       9.804   6.303  24.454  0.00  0.00    +0.177 C 
ATOM      5  C   UNL     1      10.592   5.522  23.410  0.00  0.00    +0.180 C 
ATOM      6  C   UNL     1      10.601   4.036  23.738  0.00  0.00    +0.214 C 
ENDROOT
BRANCH   6   7
ATOM      7  O   UNL     1      11.288   3.343  22.674  0.00  0.00    -0.383 OA
ATOM      8  H   UNL     1      10.807   2.506  22.520  0.00  0.00    +0.210 HD
ENDBRANCH   6   7
BRANCH   4   9
ATOM      9  O   UNL     1      10.468   6.132  25.718  0.00  0.00    -0.386 OA
ATOM     10  H   UNL     1      10.464   7.020  26.131  0.00  0.00    +0.210 HD
ENDBRANCH   4   9
BRANCH   5  11
ATOM     11  O   UNL     1      11.947   6.017  23.407  0.00  0.00    -0.386 OA
ATOM     12  H   UNL     1      11.940   6.873  23.882  0.00  0.00    +0.210 HD
ENDBRANCH   5  11
BRANCH   3  13
ATOM     13  C   UNL     1       7.580   6.372  25.697  0.00  0.00    +0.197 C 
BRANCH  13  14
ATOM     14  O   UNL     1       6.597   5.482  26.242  0.00  0.00    -0.346 OA
BRANCH  14  15
ATOM     15  C   UNL     1       6.920   5.191  27.618  0.00  0.00    +0.282 C 
ATOM     16  O   UNL     1       7.177   3.809  27.845  0.00  0.00    -0.339 OA
ATOM     17  C   UNL     1       6.032   2.951  27.680  0.00  0.00    +0.190 C 
ATOM     18  C   UNL     1       4.864   3.357  28.580  0.00  0.00    +0.178 C 
ATOM     19  C   UNL     1       4.545   4.842  28.423  0.00  0.00    +0.179 C 
ATOM     20  C   UNL     1       5.812   5.695  28.560  0.00  0.00    +0.201 C 
BRANCH  18  21
ATOM     21  O   UNL     1       5.178   3.100  29.957  0.00  0.00    -0.386 OA
ATOM     22  H   UNL     1       5.043   2.136  30.070  0.00  0.00    +0.210 HD
ENDBRANCH  18  21
BRANCH  19  23
ATOM     23  O   UNL     1       3.588   5.186  29.446  0.00  0.00    -0.386 OA
ATOM     24  H   UNL     1       3.784   4.620  30.217  0.00  0.00    +0.210 HD
ENDBRANCH  19  23
BRANCH  20  25
ATOM     25  O   UNL     1       5.481   7.071  28.327  0.00  0.00    -0.384 OA
ATOM     26  H   UNL     1       5.528   7.204  27.360  0.00  0.00    +0.210 HD
ENDBRANCH  20  25
BRANCH  17  27
ATOM     27  C   UNL     1       6.489   1.515  27.999  0.00  0.00    +0.266 C 
BRANCH  27  28
ATOM     28  O   UNL     1       5.333   0.676  28.161  0.00  0.00    -0.459 OA
BRANCH  28  29
ATOM     29  C   UNL     1       4.991   0.011  27.041  0.00  0.00    +0.332 C 
ATOM     30  O   UNL     1       3.989   0.175  26.368  0.00  0.00    -0.246 OA
BRANCH  29  31
ATOM     31  C   UNL     1       6.143  -0.822  26.663  0.00  0.00    +0.092 C 
ATOM     32  C   UNL     1       6.198  -2.072  27.143  0.00  0.00    +0.015 C 
BRANCH  32  33
ATOM     33  C   UNL     1       7.251  -3.038  26.838  0.00  0.00    -0.025 A 
ATOM     34  C   UNL     1       8.430  -2.558  26.252  0.00  0.00    +0.011 A 
ATOM     35  C   UNL     1       9.432  -3.439  25.853  0.00  0.00    +0.046 A 
ATOM     36  C   UNL     1       9.261  -4.798  26.063  0.00  0.00    +0.117 A 
ATOM     37  C   UNL     1       8.131  -5.291  26.703  0.00  0.00    +0.046 A 
ATOM     38  C   UNL     1       7.130  -4.409  27.096  0.00  0.00    +0.011 A 
BRANCH  36  39
ATOM     39  O   UNL     1      10.264  -5.643  25.697  0.00  0.00    -0.507 OA
ATOM     40  H   UNL     1      10.584  -5.330  24.831  0.00  0.00    +0.292 HD
ENDBRANCH  36  39
ENDBRANCH  32  33
ENDBRANCH  29  31
ENDBRANCH  28  29
ENDBRANCH  27  28
ENDBRANCH  17  27
ENDBRANCH  14  15
ENDBRANCH  13  14
ENDBRANCH   3  13
BRANCH   1  41
ATOM     41  O   UNL     1       8.582   2.990  22.830  0.00  0.00    -0.453 OA
BRANCH  41  47
ATOM     42  C   UNL     1       6.924  -3.280  22.970  0.00  0.00    +0.131 A 
ATOM     43  C   UNL     1       6.181  -2.094  23.095  0.00  0.00    +0.093 A 
ATOM     44  C   UNL     1       6.815  -0.851  22.980  0.00  0.00    +0.147 A 
ATOM     45  O   UNL     1       6.065   0.287  23.176  0.00  0.00    -0.451 OA
ATOM     46  C   UNL     1       6.680   1.545  23.128  0.00  0.00    +0.181 A 
ATOM     47  C   UNL     1       8.009   1.712  22.897  0.00  0.00    +0.214 A 
ATOM     48  C   UNL     1       8.844   0.474  22.766  0.00  0.00    +0.238 A 
ATOM     49  O   UNL     1      10.070   0.466  22.787  0.00  0.00    -0.283 OA
ATOM     50  C   UNL     1       8.178  -0.819  22.749  0.00  0.00    +0.109 A 
ATOM     51  C   UNL     1       8.924  -2.010  22.656  0.00  0.00    +0.135 A 
ATOM     52  C   UNL     1       8.297  -3.231  22.760  0.00  0.00    +0.092 A 
BRANCH  46  53
ATOM     53  C   UNL     1       5.716   2.687  23.349  0.00  0.00    +0.025 A 
ATOM     54  C   UNL     1       4.840   2.650  24.456  0.00  0.00    +0.015 A 
ATOM     55  C   UNL     1       3.944   3.695  24.729  0.00  0.00    +0.050 A 
ATOM     56  C   UNL     1       3.920   4.806  23.905  0.00  0.00    +0.158 A 
ATOM     57  C   UNL     1       4.776   4.888  22.816  0.00  0.00    +0.159 A 
ATOM     58  C   UNL     1       5.665   3.845  22.540  0.00  0.00    +0.060 A 
BRANCH  57  59
ATOM     59  O   UNL     1       4.706   6.019  22.049  0.00  0.00    -0.503 OA
ATOM     60  H   UNL     1       5.395   6.642  22.337  0.00  0.00    +0.292 HD
ENDBRANCH  57  59
BRANCH  56  61
ATOM     61  O   UNL     1       3.056   5.825  24.183  0.00  0.00    -0.503 OA
ATOM     62  H   UNL     1       2.928   5.786  25.153  0.00  0.00    +0.292 HD
ENDBRANCH  56  61
ENDBRANCH  46  53
BRANCH  51  63
ATOM     63  O   UNL     1      10.288  -2.010  22.538  0.00  0.00    -0.506 OA
ATOM     64  H   UNL     1      10.674  -2.790  22.968  0.00  0.00    +0.292 HD
ENDBRANCH  51  63
BRANCH  42  65
ATOM     65  O   UNL     1       6.479  -4.564  23.062  0.00  0.00    -0.461 OA
BRANCH  65  69
ATOM     66  C   UNL     1       4.037  -5.305  26.506  0.00  0.00    +0.041 C 
ATOM     67  C   UNL     1       4.332  -6.331  25.412  0.00  0.00    +0.150 C 
ATOM     68  O   UNL     1       5.489  -5.933  24.667  0.00  0.00    -0.334 OA
ATOM     69  C   UNL     1       5.294  -4.808  23.809  0.00  0.00    +0.339 C 
ATOM     70  C   UNL     1       4.212  -5.129  22.765  0.00  0.00    +0.214 C 
ATOM     71  C   UNL     1       2.911  -5.429  23.514  0.00  0.00    +0.180 C 
ATOM     72  C   UNL     1       3.122  -6.596  24.496  0.00  0.00    +0.174 C 
BRANCH  70  73
ATOM     73  O   UNL     1       4.620  -6.286  21.991  0.00  0.00    -0.383 OA
ATOM     74  H   UNL     1       4.020  -6.318  21.219  0.00  0.00    +0.210 HD
ENDBRANCH  70  73
BRANCH  71  75
ATOM     75  O   UNL     1       1.839  -5.672  22.600  0.00  0.00    -0.386 OA
ATOM     76  H   UNL     1       2.163  -6.286  21.916  0.00  0.00    +0.210 HD
ENDBRANCH  71  75
BRANCH  72  77
ATOM     77  O   UNL     1       3.332  -7.821  23.777  0.00  0.00    -0.387 OA
ATOM     78  H   UNL     1       4.302  -7.916  23.652  0.00  0.00    +0.210 HD
ENDBRANCH  72  77
ENDBRANCH  65  69
ENDBRANCH  42  65
ENDBRANCH  41  47
ENDBRANCH   1  41
TORSDOF 26
ENDMDL
MODEL 2
REMARK VINA RESULT:      -6.1      2.125      6.306
REMARK  Name = 
REMARK  27 active torsions:
REMARK  status: ('A' for Active; 'I' for Inactive)
REMARK    1  A    between atoms: C_1  and  C_2
REMARK    2  A    between atoms: C_3  and  O_73
REMARK    3  A    between atoms: C_5  and  O_72
REMARK    4  A    between atoms: C_7  and  O_71
REMARK    5  A    between atoms: C_8  and  O_11
REMARK    6  A    between atoms: O_11  and  C_12
REMARK    7  A    between atoms: C_14  and  O_70
REMARK    8  A    between atoms: C_19  and  C_62
REMARK    9  A    between atoms: C_20  and  O_23
REMARK   10  A    between atoms: O_23  and  C_24
REMARK   11  A    between atoms: C_26  and  O_61
REMARK   12  A    between atoms: C_27  and  O_60
REMARK   13  A    between atoms: C_28  and  O_59
REMARK   14  A    between atoms: C_30  and  C_32
REMARK   15  A    between atoms: C_32  and  O_33
REMARK   16  A    between atoms: O_33  and  C_34
REMARK   17  A    between atoms: C_36  and  O_58
REMARK   18  A    between atoms: C_37  and  O_57
REMARK   19  A    between atoms: C_38  and  O_56
REMARK   20  A    between atoms: C_40  and  C_43
REMARK   21  A    between atoms: C_43  and  O_44
REMARK   22  A    between atoms: O_44  and  C_45
REMARK   23  A    between atoms: C_45  and  C_47
REMARK   24  A    between atoms: C_48  and  C_49
REMARK   25  A    between atoms: C_52  and  O_55
REMARK   26  A    between atoms: C_64  and  O_69
REMARK   27  A    between atoms: C_65  and  O_68
REMARK                            x       y       z     vdW  Elec       q    Type
REMARK                         _______ _______ _______ _____ _____    ______ ____
ROOT
ATOM      1  C   UNL     1       3.254   4.318  25.021  0.00  0.00    +0.340 C 
ATOM      2  O   UNL     1       4.515   4.909  24.729  0.00  0.00    -0.331 OA
ATOM      3  C   UNL     1       4.612   6.311  24.527  0.00  0.00    +0.179 C 
ATOM      4  C   UNL     1       3.457   6.877  23.692  0.00  0.00    +0.177 C 
ATOM      5  C   UNL     1       2.126   6.470  24.313  0.00  0.00    +0.180 C 
ATOM      6  C   UNL     1       2.005   4.955  24.386  0.00  0.00    +0.214 C 
ENDROOT
BRANCH   6   7
ATOM      7  O   UNL     1       0.767   4.632  25.056  0.00  0.00    -0.383 OA
ATOM      8  H   UNL     1       0.147   4.309  24.373  0.00  0.00    +0.210 HD
ENDBRANCH   6   7
BRANCH   4   9
ATOM      9  O   UNL     1       3.485   6.366  22.349  0.00  0.00    -0.386 OA
ATOM     10  H   UNL     1       3.942   7.053  21.823  0.00  0.00    +0.210 HD
ENDBRANCH   4   9
BRANCH   5  11
ATOM     11  O   UNL     1       1.066   6.992  23.487  0.00  0.00    -0.386 OA
ATOM     12  H   UNL     1       0.858   7.888  23.822  0.00  0.00    +0.210 HD
ENDBRANCH   5  11
BRANCH   3  13
ATOM     13  C   UNL     1       5.972   6.495  23.831  0.00  0.00    +0.197 C 
BRANCH  13  14
ATOM     14  O   UNL     1       6.854   5.374  23.978  0.00  0.00    -0.346 OA
BRANCH  14  15
ATOM     15  C   UNL     1       7.571   5.159  22.744  0.00  0.00    +0.282 C 
ATOM     16  O   UNL     1       7.296   3.890  22.159  0.00  0.00    -0.339 OA
ATOM     17  C   UNL     1       7.777   2.763  22.917  0.00  0.00    +0.190 C 
ATOM     18  C   UNL     1       9.283   2.835  23.177  0.00  0.00    +0.178 C 
ATOM     19  C   UNL     1       9.669   4.186  23.775  0.00  0.00    +0.179 C 
ATOM     20  C   UNL     1       9.085   5.340  22.951  0.00  0.00    +0.201 C 
BRANCH  18  21
ATOM     21  O   UNL     1      10.013   2.651  21.954  0.00  0.00    -0.386 OA
ATOM     22  H   UNL     1      10.602   3.431  21.893  0.00  0.00    +0.210 HD
ENDBRANCH  18  21
BRANCH  19  23
ATOM     23  O   UNL     1      11.109   4.253  23.791  0.00  0.00    -0.386 OA
ATOM     24  H   UNL     1      11.379   4.719  22.976  0.00  0.00    +0.210 HD
ENDBRANCH  19  23
BRANCH  20  25
ATOM     25  O   UNL     1       9.403   6.584  23.591  0.00  0.00    -0.384 OA
ATOM     26  H   UNL     1       9.987   7.068  22.976  0.00  0.00    +0.210 HD
ENDBRANCH  20  25
BRANCH  17  27
ATOM     27  C   UNL     1       7.425   1.494  22.118  0.00  0.00    +0.266 C 
BRANCH  27  28
ATOM     28  O   UNL     1       7.926   0.342  22.817  0.00  0.00    -0.459 OA
BRANCH  28  29
ATOM     29  C   UNL     1       8.647  -0.487  22.038  0.00  0.00    +0.332 C 
ATOM     30  O   UNL     1       9.585  -0.187  21.320  0.00  0.00    -0.246 OA
BRANCH  29  31
ATOM     31  C   UNL     1       8.223  -1.859  22.357  0.00  0.00    +0.092 C 
ATOM     32  C   UNL     1       6.924  -2.073  22.603  0.00  0.00    +0.015 C 
BRANCH  32  33
ATOM     33  C   UNL     1       6.333  -3.377  22.900  0.00  0.00    -0.025 A 
ATOM     34  C   UNL     1       7.143  -4.511  22.752  0.00  0.00    +0.011 A 
ATOM     35  C   UNL     1       6.614  -5.786  22.929  0.00  0.00    +0.046 A 
ATOM     36  C   UNL     1       5.280  -5.923  23.278  0.00  0.00    +0.117 A 
ATOM     37  C   UNL     1       4.476  -4.812  23.497  0.00  0.00    +0.046 A 
ATOM     38  C   UNL     1       5.005  -3.539  23.314  0.00  0.00    +0.011 A 
BRANCH  36  39
ATOM     39  O   UNL     1       4.787  -7.176  23.480  0.00  0.00    -0.507 OA
ATOM     40  H   UNL     1       3.937  -7.065  23.944  0.00  0.00    +0.292 HD
ENDBRANCH  36  39
ENDBRANCH  32  33
ENDBRANCH  29  31
ENDBRANCH  28  29
ENDBRANCH  27  28
ENDBRANCH  17  27
ENDBRANCH  14  15
ENDBRANCH  13  14
ENDBRANCH   3  13
BRANCH   1  41
ATOM     41  O   UNL     1       3.077   4.149  26.435  0.00  0.00    -0.453 OA
BRANCH  41  47
ATOM     42  C   UNL     1       3.667  -1.967  28.512  0.00  0.00    +0.131 A 
ATOM     43  C   UNL     1       4.447  -0.816  28.706  0.00  0.00    +0.093 A 
ATOM     44  C   UNL     1       4.044   0.408  28.157  0.00  0.00    +0.147 A 
ATOM     45  O   UNL     1       4.869   1.499  28.312  0.00  0.00    -0.451 OA
ATOM     46  C   UNL     1       4.526   2.723  27.724  0.00  0.00    +0.181 A 
ATOM     47  C   UNL     1       3.399   2.901  26.986  0.00  0.00    +0.214 A 
ATOM     48  C   UNL     1       2.539   1.696  26.744  0.00  0.00    +0.238 A 
ATOM     49  O   UNL     1       1.632   1.652  25.919  0.00  0.00    -0.283 OA
ATOM     50  C   UNL     1       2.875   0.452  27.419  0.00  0.00    +0.109 A 
ATOM     51  C   UNL     1       2.113  -0.712  27.200  0.00  0.00    +0.135 A 
ATOM     52  C   UNL     1       2.506  -1.911  27.749  0.00  0.00    +0.092 A 
BRANCH  46  53
ATOM     53  C   UNL     1       5.528   3.819  28.001  0.00  0.00    +0.025 A 
ATOM     54  C   UNL     1       5.526   4.458  29.261  0.00  0.00    +0.015 A 
ATOM     55  C   UNL     1       6.452   5.461  29.587  0.00  0.00    +0.050 A 
ATOM     56  C   UNL     1       7.408   5.833  28.661  0.00  0.00    +0.158 A 
ATOM     57  C   UNL     1       7.455   5.219  27.417  0.00  0.00    +0.159 A 
ATOM     58  C   UNL     1       6.530   4.223  27.089  0.00  0.00    +0.060 A 
BRANCH  57  59
ATOM     59  O   UNL     1       8.433   5.628  26.552  0.00  0.00    -0.503 OA
ATOM     60  H   UNL     1       8.786   4.855  26.081  0.00  0.00    +0.292 HD
ENDBRANCH  57  59
BRANCH  56  61
ATOM     61  O   UNL     1       8.314   6.800  28.988  0.00  0.00    -0.503 OA
ATOM     62  H   UNL     1       7.773   7.588  29.196  0.00  0.00    +0.292 HD
ENDBRANCH  56  61
ENDBRANCH  46  53
BRANCH  51  63
ATOM     63  O   UNL     1       1.014  -0.722  26.385  0.00  0.00    -0.506 OA
ATOM     64  H   UNL     1       0.845   0.161  26.017  0.00  0.00    +0.292 HD
ENDBRANCH  51  63
BRANCH  42  65
ATOM     65  O   UNL     1       3.908  -3.231  28.960  0.00  0.00    -0.461 OA
BRANCH  65  69
ATOM     66  C   UNL     1       2.621  -6.339  26.304  0.00  0.00    +0.041 C 
ATOM     67  C   UNL     1       3.407  -6.568  27.593  0.00  0.00    +0.150 C 
ATOM     68  O   UNL     1       3.299  -5.420  28.444  0.00  0.00    -0.334 OA
ATOM     69  C   UNL     1       4.020  -4.271  27.997  0.00  0.00    +0.339 C 
ATOM     70  C   UNL     1       5.521  -4.594  27.917  0.00  0.00    +0.214 C 
ATOM     71  C   UNL     1       5.703  -5.732  26.909  0.00  0.00    +0.180 C 
ATOM     72  C   UNL     1       4.876  -6.958  27.340  0.00  0.00    +0.174 C 
BRANCH  70  73
ATOM     73  O   UNL     1       5.993  -5.006  29.225  0.00  0.00    -0.383 OA
ATOM     74  H   UNL     1       6.097  -5.978  29.179  0.00  0.00    +0.210 HD
ENDBRANCH  70  73
BRANCH  71  75
ATOM     75  O   UNL     1       7.087  -6.043  26.732  0.00  0.00    -0.386 OA
ATOM     76  H   UNL     1       7.382  -6.547  27.513  0.00  0.00    +0.210 HD
ENDBRANCH  71  75
BRANCH  72  77
ATOM     77  O   UNL     1       5.426  -7.537  28.533  0.00  0.00    -0.387 OA
ATOM     78  H   UNL     1       6.170  -6.959  28.814  0.00  0.00    +0.210 HD
ENDBRANCH  72  77
ENDBRANCH  65  69
ENDBRANCH  42  65
ENDBRANCH  41  47
ENDBRANCH   1  41
TORSDOF 26
ENDMDL
MODEL 3
REMARK VINA RESULT:      -5.2      2.236     10.112
REMARK  Name = 
REMARK  27 active torsions:
REMARK  status: ('A' for Active; 'I' for Inactive)
REMARK    1  A    between atoms: C_1  and  C_2
REMARK    2  A    between atoms: C_3  and  O_73
REMARK    3  A    between atoms: C_5  and  O_72
REMARK    4  A    between atoms: C_7  and  O_71
REMARK    5  A    between atoms: C_8  and  O_11
REMARK    6  A    between atoms: O_11  and  C_12
REMARK    7  A    between atoms: C_14  and  O_70
REMARK    8  A    between atoms: C_19  and  C_62
REMARK    9  A    between atoms: C_20  and  O_23
REMARK   10  A    between atoms: O_23  and  C_24
REMARK   11  A    between atoms: C_26  and  O_61
REMARK   12  A    between atoms: C_27  and  O_60
REMARK   13  A    between atoms: C_28  and  O_59
REMARK   14  A    between atoms: C_30  and  C_32
REMARK   15  A    between atoms: C_32  and  O_33
REMARK   16  A    between atoms: O_33  and  C_34
REMARK   17  A    between atoms: C_36  and  O_58
REMARK   18  A    between atoms: C_37  and  O_57
REMARK   19  A    between atoms: C_38  and  O_56
REMARK   20  A    between atoms: C_40  and  C_43
REMARK   21  A    between atoms: C_43  and  O_44
REMARK   22  A    between atoms: O_44  and  C_45
REMARK   23  A    between atoms: C_45  and  C_47
REMARK   24  A    between atoms: C_48  and  C_49
REMARK   25  A    between atoms: C_52  and  O_55
REMARK   26  A    between atoms: C_64  and  O_69
REMARK   27  A    between atoms: C_65  and  O_68
REMARK                            x       y       z     vdW  Elec       q    Type
REMARK                         _______ _______ _______ _____ _____    ______ ____
ROOT
ATOM      1  C   UNL     1       4.086  -5.259  28.171  0.00  0.00    +0.340 C 
ATOM      2  O   UNL     1       3.897  -5.198  26.762  0.00  0.00    -0.331 OA
ATOM      3  C   UNL     1       2.797  -4.480  26.224  0.00  0.00    +0.179 C 
ATOM      4  C   UNL     1       1.499  -4.694  27.012  0.00  0.00    +0.177 C 
ATOM      5  C   UNL     1       1.734  -4.381  28.485  0.00  0.00    +0.180 C 
ATOM      6  C   UNL     1       2.829  -5.268  29.059  0.00  0.00    +0.214 C 
ENDROOT
BRANCH   6   7
ATOM      7  O   UNL     1       3.063  -4.869  30.426  0.00  0.00    -0.383 OA
ATOM      8  H   UNL     1       2.506  -5.441  30.991  0.00  0.00    +0.210 HD
ENDBRANCH   6   7
BRANCH   4   9
ATOM      9  O   UNL     1       1.055  -6.059  26.923  0.00  0.00    -0.386 OA
ATOM     10  H   UNL     1       0.502  -6.201  27.718  0.00  0.00    +0.210 HD
ENDBRANCH   4   9
BRANCH   5  11
ATOM     11  O   UNL     1       0.504  -4.623  29.198  0.00  0.00    -0.386 OA
ATOM     12  H   UNL     1       0.120  -3.748  29.411  0.00  0.00    +0.210 HD
ENDBRANCH   5  11
BRANCH   3  13
ATOM     13  C   UNL     1       2.686  -4.995  24.778  0.00  0.00    +0.197 C 
BRANCH  13  14
ATOM     14  O   UNL     1       3.436  -4.223  23.830  0.00  0.00    -0.346 OA
BRANCH  14  15
ATOM     15  C   UNL     1       4.832  -4.237  24.193  0.00  0.00    +0.282 C 
ATOM     16  O   UNL     1       5.551  -3.125  23.670  0.00  0.00    -0.339 OA
ATOM     17  C   UNL     1       5.675  -3.112  22.235  0.00  0.00    +0.190 C 
ATOM     18  C   UNL     1       6.334  -4.383  21.695  0.00  0.00    +0.178 C 
ATOM     19  C   UNL     1       5.641  -5.630  22.240  0.00  0.00    +0.179 C 
ATOM     20  C   UNL     1       5.497  -5.557  23.765  0.00  0.00    +0.201 C 
BRANCH  18  21
ATOM     21  O   UNL     1       7.720  -4.429  22.070  0.00  0.00    -0.386 OA
ATOM     22  H   UNL     1       7.713  -4.580  23.037  0.00  0.00    +0.210 HD
ENDBRANCH  18  21
BRANCH  19  23
ATOM     23  O   UNL     1       6.443  -6.767  21.860  0.00  0.00    -0.386 OA
ATOM     24  H   UNL     1       7.376  -6.516  22.006  0.00  0.00    +0.210 HD
ENDBRANCH  19  23
BRANCH  20  25
ATOM     25  O   UNL     1       4.772  -6.707  24.224  0.00  0.00    -0.384 OA
ATOM     26  H   UNL     1       4.716  -6.626  25.195  0.00  0.00    +0.210 HD
ENDBRANCH  20  25
BRANCH  17  27
ATOM     27  C   UNL     1       6.505  -1.870  21.860  0.00  0.00    +0.266 C 
BRANCH  27  28
ATOM     28  O   UNL     1       7.404  -1.560  22.938  0.00  0.00    -0.459 OA
BRANCH  28  29
ATOM     29  C   UNL     1       8.611  -1.128  22.523  0.00  0.00    +0.332 C 
ATOM     30  O   UNL     1       9.459  -1.777  21.938  0.00  0.00    -0.246 OA
BRANCH  29  31
ATOM     31  C   UNL     1       8.646   0.327  22.732  0.00  0.00    +0.092 C 
ATOM     32  C   UNL     1       8.687   0.779  23.993  0.00  0.00    +0.015 C 
BRANCH  32  33
ATOM     33  C   UNL     1       8.761   2.189  24.374  0.00  0.00    -0.025 A 
ATOM     34  C   UNL     1       7.943   2.627  25.423  0.00  0.00    +0.011 A 
ATOM     35  C   UNL     1       7.899   3.974  25.771  0.00  0.00    +0.046 A 
ATOM     36  C   UNL     1       8.693   4.878  25.082  0.00  0.00    +0.117 A 
ATOM     37  C   UNL     1       9.562   4.456  24.084  0.00  0.00    +0.046 A 
ATOM     38  C   UNL     1       9.600   3.110  23.735  0.00  0.00    +0.011 A 
BRANCH  36  39
ATOM     39  O   UNL     1       8.663   6.186  25.457  0.00  0.00    -0.507 OA
ATOM     40  H   UNL     1       9.415   6.616  25.011  0.00  0.00    +0.292 HD
ENDBRANCH  36  39
ENDBRANCH  32  33
ENDBRANCH  29  31
ENDBRANCH  28  29
ENDBRANCH  27  28
ENDBRANCH  17  27
ENDBRANCH  14  15
ENDBRANCH  13  14
ENDBRANCH   3  13
BRANCH   1  41
ATOM     41  O   UNL     1       5.014  -4.257  28.613  0.00  0.00    -0.453 OA
BRANCH  41  47
ATOM     42  C   UNL     1       3.851   1.736  26.422  0.00  0.00    +0.131 A 
ATOM     43  C   UNL     1       4.821   0.774  26.096  0.00  0.00    +0.093 A 
ATOM     44  C   UNL     1       4.804  -0.481  26.718  0.00  0.00    +0.147 A 
ATOM     45  O   UNL     1       5.810  -1.372  26.422  0.00  0.00    -0.451 OA
ATOM     46  C   UNL     1       5.858  -2.612  27.071  0.00  0.00    +0.181 A 
ATOM     47  C   UNL     1       4.947  -2.996  28.004  0.00  0.00    +0.214 A 
ATOM     48  C   UNL     1       3.898  -1.998  28.391  0.00  0.00    +0.238 A 
ATOM     49  O   UNL     1       3.164  -2.113  29.367  0.00  0.00    -0.283 OA
ATOM     50  C   UNL     1       3.823  -0.743  27.657  0.00  0.00    +0.109 A 
ATOM     51  C   UNL     1       2.873   0.236  28.004  0.00  0.00    +0.135 A 
ATOM     52  C   UNL     1       2.885   1.465  27.384  0.00  0.00    +0.092 A 
BRANCH  46  53
ATOM     53  C   UNL     1       7.014  -3.475  26.622  0.00  0.00    +0.025 A 
ATOM     54  C   UNL     1       7.143  -4.784  27.137  0.00  0.00    +0.015 A 
ATOM     55  C   UNL     1       8.178  -5.642  26.735  0.00  0.00    +0.050 A 
ATOM     56  C   UNL     1       9.097  -5.209  25.797  0.00  0.00    +0.158 A 
ATOM     57  C   UNL     1       8.997  -3.935  25.255  0.00  0.00    +0.159 A 
ATOM     58  C   UNL     1       7.969  -3.078  25.659  0.00  0.00    +0.060 A 
BRANCH  57  59
ATOM     59  O   UNL     1       9.934  -3.575  24.325  0.00  0.00    -0.503 OA
ATOM     60  H   UNL     1      10.044  -2.609  24.341  0.00  0.00    +0.292 HD
ENDBRANCH  57  59
BRANCH  56  61
ATOM     61  O   UNL     1      10.095  -6.052  25.400  0.00  0.00    -0.503 OA
ATOM     62  H   UNL     1       9.988  -6.846  25.962  0.00  0.00    +0.292 HD
ENDBRANCH  56  61
ENDBRANCH  46  53
BRANCH  51  63
ATOM     63  O   UNL     1       1.960   0.045  29.006  0.00  0.00    -0.506 OA
ATOM     64  H   UNL     1       1.952   0.799  29.618  0.00  0.00    +0.292 HD
ENDBRANCH  51  63
BRANCH  42  65
ATOM     65  O   UNL     1       3.722   3.000  25.929  0.00  0.00    -0.461 OA
BRANCH  65  69
ATOM     66  C   UNL     1       6.079   3.833  22.447  0.00  0.00    +0.041 C 
ATOM     67  C   UNL     1       5.041   4.783  23.042  0.00  0.00    +0.150 C 
ATOM     68  O   UNL     1       4.761   4.416  24.398  0.00  0.00    -0.334 OA
ATOM     69  C   UNL     1       4.009   3.211  24.552  0.00  0.00    +0.339 C 
ATOM     70  C   UNL     1       2.641   3.358  23.867  0.00  0.00    +0.214 C 
ATOM     71  C   UNL     1       2.887   3.617  22.378  0.00  0.00    +0.180 C 
ATOM     72  C   UNL     1       3.756   4.876  22.196  0.00  0.00    +0.174 C 
BRANCH  70  73
ATOM     73  O   UNL     1       1.927   4.475  24.456  0.00  0.00    -0.383 OA
ATOM     74  H   UNL     1       1.339   4.819  23.752  0.00  0.00    +0.210 HD
ENDBRANCH  70  73
BRANCH  71  75
ATOM     75  O   UNL     1       1.653   3.698  21.662  0.00  0.00    -0.386 OA
ATOM     76  H   UNL     1       1.821   3.412  20.745  0.00  0.00    +0.210 HD
ENDBRANCH  71  75
BRANCH  72  77
ATOM     77  O   UNL     1       3.021   6.049  22.576  0.00  0.00    -0.387 OA
ATOM     78  H   UNL     1       3.294   6.768  21.963  0.00  0.00    +0.210 HD
ENDBRANCH  72  77
ENDBRANCH  65  69
ENDBRANCH  42  65
ENDBRANCH  41  47
ENDBRANCH   1  41
TORSDOF 26
ENDMDL
MODEL 4
REMARK VINA RESULT:      -4.6      2.654      9.285
REMARK  Name = 
REMARK  27 active torsions:
REMARK  status: ('A' for Active; 'I' for Inactive)
REMARK    1  A    between atoms: C_1  and  C_2
REMARK    2  A    between atoms: C_3  and  O_73
REMARK    3  A    between atoms: C_5  and  O_72
REMARK    4  A    between atoms: C_7  and  O_71
REMARK    5  A    between atoms: C_8  and  O_11
REMARK    6  A    between atoms: O_11  and  C_12
REMARK    7  A    between atoms: C_14  and  O_70
REMARK    8  A    between atoms: C_19  and  C_62
REMARK    9  A    between atoms: C_20  and  O_23
REMARK   10  A    between atoms: O_23  and  C_24
REMARK   11  A    between atoms: C_26  and  O_61
REMARK   12  A    between atoms: C_27  and  O_60
REMARK   13  A    between atoms: C_28  and  O_59
REMARK   14  A    between atoms: C_30  and  C_32
REMARK   15  A    between atoms: C_32  and  O_33
REMARK   16  A    between atoms: O_33  and  C_34
REMARK   17  A    between atoms: C_36  and  O_58
REMARK   18  A    between atoms: C_37  and  O_57
REMARK   19  A    between atoms: C_38  and  O_56
REMARK   20  A    between atoms: C_40  and  C_43
REMARK   21  A    between atoms: C_43  and  O_44
REMARK   22  A    between atoms: O_44  and  C_45
REMARK   23  A    between atoms: C_45  and  C_47
REMARK   24  A    between atoms: C_48  and  C_49
REMARK   25  A    between atoms: C_52  and  O_55
REMARK   26  A    between atoms: C_64  and  O_69
REMARK   27  A    between atoms: C_65  and  O_68
REMARK                            x       y       z     vdW  Elec       q    Type
REMARK                         _______ _______ _______ _____ _____    ______ ____
ROOT
ATOM      1  C   UNL     1       5.837  -3.084  22.980  0.00  0.00    +0.340 C 
ATOM      2  O   UNL     1       4.842  -3.906  23.579  0.00  0.00    -0.331 OA
ATOM      3  C   UNL     1       5.115  -5.275  23.840  0.00  0.00    +0.179 C 
ATOM      4  C   UNL     1       5.879  -5.961  22.702  0.00  0.00    +0.177 C 
ATOM      5  C   UNL     1       7.139  -5.168  22.376  0.00  0.00    +0.180 C 
ATOM      6  C   UNL     1       6.792  -3.744  21.969  0.00  0.00    +0.214 C 
ENDROOT
BRANCH   6   7
ATOM      7  O   UNL     1       8.024  -3.022  21.756  0.00  0.00    -0.383 OA
ATOM      8  H   UNL     1       7.844  -2.083  21.956  0.00  0.00    +0.210 HD
ENDBRANCH   6   7
BRANCH   4   9
ATOM      9  O   UNL     1       5.084  -6.024  21.505  0.00  0.00    -0.386 OA
ATOM     10  H   UNL     1       4.319  -5.438  21.676  0.00  0.00    +0.210 HD
ENDBRANCH   4   9
BRANCH   5  11
ATOM     11  O   UNL     1       7.814  -5.824  21.284  0.00  0.00    -0.386 OA
ATOM     12  H   UNL     1       8.415  -6.490  21.677  0.00  0.00    +0.210 HD
ENDBRANCH   5  11
BRANCH   3  13
ATOM     13  C   UNL     1       3.725  -5.898  24.061  0.00  0.00    +0.197 C 
BRANCH  13  14
ATOM     14  O   UNL     1       2.661  -5.178  23.426  0.00  0.00    -0.346 OA
BRANCH  14  15
ATOM     15  C   UNL     1       1.406  -5.521  24.050  0.00  0.00    +0.282 C 
ATOM     16  O   UNL     1       1.539  -5.801  25.440  0.00  0.00    -0.339 OA
ATOM     17  C   UNL     1       2.292  -6.991  25.743  0.00  0.00    +0.190 C 
ATOM     18  C   UNL     1       1.708  -8.237  25.075  0.00  0.00    +0.178 C 
ATOM     19  C   UNL     1       1.500  -8.007  23.580  0.00  0.00    +0.179 C 
ATOM     20  C   UNL     1       0.737  -6.701  23.325  0.00  0.00    +0.201 C 
BRANCH  18  21
ATOM     21  O   UNL     1       0.444  -8.578  25.665  0.00  0.00    -0.386 OA
ATOM     22  H   UNL     1       0.120  -9.338  25.141  0.00  0.00    +0.210 HD
ENDBRANCH  18  21
BRANCH  19  23
ATOM     23  O   UNL     1       0.760  -9.135  23.071  0.00  0.00    -0.386 OA
ATOM     24  H   UNL     1       0.684  -9.776  23.804  0.00  0.00    +0.210 HD
ENDBRANCH  19  23
BRANCH  20  25
ATOM     25  O   UNL     1       0.634  -6.485  21.911  0.00  0.00    -0.384 OA
ATOM     26  H   UNL     1       0.066  -5.699  21.793  0.00  0.00    +0.210 HD
ENDBRANCH  20  25
BRANCH  17  27
ATOM     27  C   UNL     1       2.297  -7.149  27.275  0.00  0.00    +0.266 C 
BRANCH  27  28
ATOM     28  O   UNL     1       3.048  -6.072  27.860  0.00  0.00    -0.459 OA
BRANCH  28  29
ATOM     29  C   UNL     1       4.270  -6.442  28.290  0.00  0.00    +0.332 C 
ATOM     30  O   UNL     1       4.527  -7.134  29.258  0.00  0.00    -0.246 OA
BRANCH  29  31
ATOM     31  C   UNL     1       5.237  -6.018  27.265  0.00  0.00    +0.092 C 
ATOM     32  C   UNL     1       6.333  -5.363  27.670  0.00  0.00    +0.015 C 
BRANCH  32  33
ATOM     33  C   UNL     1       7.406  -4.905  26.788  0.00  0.00    -0.025 A 
ATOM     34  C   UNL     1       7.732  -3.543  26.809  0.00  0.00    +0.011 A 
ATOM     35  C   UNL     1       8.680  -3.029  25.927  0.00  0.00    +0.046 A 
ATOM     36  C   UNL     1       9.316  -3.885  25.043  0.00  0.00    +0.117 A 
ATOM     37  C   UNL     1       9.057  -5.249  25.051  0.00  0.00    +0.046 A 
ATOM     38  C   UNL     1       8.107  -5.759  25.929  0.00  0.00    +0.011 A 
BRANCH  36  39
ATOM     39  O   UNL     1      10.263  -3.372  24.211  0.00  0.00    -0.507 OA
ATOM     40  H   UNL     1      10.601  -2.566  24.643  0.00  0.00    +0.292 HD
ENDBRANCH  36  39
ENDBRANCH  32  33
ENDBRANCH  29  31
ENDBRANCH  28  29
ENDBRANCH  27  28
ENDBRANCH  17  27
ENDBRANCH  14  15
ENDBRANCH  13  14
ENDBRANCH   3  13
BRANCH   1  41
ATOM     41  O   UNL     1       6.572  -2.354  23.973  0.00  0.00    -0.453 OA
BRANCH  41  47
ATOM     42  C   UNL     1       6.226   4.100  23.421  0.00  0.00    +0.131 A 
ATOM     43  C   UNL     1       5.707   3.195  24.362  0.00  0.00    +0.093 A 
ATOM     44  C   UNL     1       5.984   1.826  24.248  0.00  0.00    +0.147 A 
ATOM     45  O   UNL     1       5.403   0.964  25.150  0.00  0.00    -0.451 OA
ATOM     46  C   UNL     1       5.609  -0.417  25.029  0.00  0.00    +0.181 A 
ATOM     47  C   UNL     1       6.367  -0.969  24.045  0.00  0.00    +0.214 A 
ATOM     48  C   UNL     1       6.934  -0.042  23.012  0.00  0.00    +0.238 A 
ATOM     49  O   UNL     1       7.434  -0.412  21.955  0.00  0.00    -0.283 OA
ATOM     50  C   UNL     1       6.766   1.392  23.194  0.00  0.00    +0.109 A 
ATOM     51  C   UNL     1       7.257   2.299  22.235  0.00  0.00    +0.135 A 
ATOM     52  C   UNL     1       6.992   3.645  22.354  0.00  0.00    +0.092 A 
BRANCH  46  53
ATOM     53  C   UNL     1       4.914  -1.219  26.104  0.00  0.00    +0.025 A 
ATOM     54  C   UNL     1       5.371  -1.133  27.437  0.00  0.00    +0.015 A 
ATOM     55  C   UNL     1       4.747  -1.832  28.482  0.00  0.00    +0.050 A 
ATOM     56  C   UNL     1       3.644  -2.620  28.213  0.00  0.00    +0.158 A 
ATOM     57  C   UNL     1       3.154  -2.719  26.918  0.00  0.00    +0.159 A 
ATOM     58  C   UNL     1       3.778  -2.028  25.875  0.00  0.00    +0.060 A 
BRANCH  57  59
ATOM     59  O   UNL     1       2.053  -3.508  26.724  0.00  0.00    -0.503 OA
ATOM     60  H   UNL     1       2.253  -4.413  27.015  0.00  0.00    +0.292 HD
ENDBRANCH  57  59
BRANCH  56  61
ATOM     61  O   UNL     1       3.033  -3.287  29.235  0.00  0.00    -0.503 OA
ATOM     62  H   UNL     1       3.616  -4.053  29.416  0.00  0.00    +0.292 HD
ENDBRANCH  56  61
ENDBRANCH  46  53
BRANCH  51  63
ATOM     63  O   UNL     1       7.940   1.888  21.123  0.00  0.00    -0.506 OA
ATOM     64  H   UNL     1       7.520   2.222  20.313  0.00  0.00    +0.292 HD
ENDBRANCH  51  63
BRANCH  42  65
ATOM     65  O   UNL     1       6.053   5.450  23.371  0.00  0.00    -0.461 OA
BRANCH  65  69
ATOM     66  C   UNL     1       2.911   6.519  26.083  0.00  0.00    +0.041 C 
ATOM     67  C   UNL     1       2.817   5.407  25.039  0.00  0.00    +0.150 C 
ATOM     68  O   UNL     1       4.131   5.021  24.615  0.00  0.00    -0.334 OA
ATOM     69  C   UNL     1       4.804   5.979  23.797  0.00  0.00    +0.339 C 
ATOM     70  C   UNL     1       4.001   6.221  22.509  0.00  0.00    +0.214 C 
ATOM     71  C   UNL     1       2.627   6.768  22.907  0.00  0.00    +0.180 C 
ATOM     72  C   UNL     1       1.915   5.777  23.847  0.00  0.00    +0.174 C 
BRANCH  70  73
ATOM     73  O   UNL     1       3.851   4.967  21.795  0.00  0.00    -0.383 OA
ATOM     74  H   UNL     1       4.558   4.379  22.132  0.00  0.00    +0.210 HD
ENDBRANCH  70  73
BRANCH  71  75
ATOM     75  O   UNL     1       1.847   7.081  21.751  0.00  0.00    -0.386 OA
ATOM     76  H   UNL     1       1.297   6.303  21.543  0.00  0.00    +0.210 HD
ENDBRANCH  71  75
BRANCH  72  77
ATOM     77  O   UNL     1       1.556   4.584  23.135  0.00  0.00    -0.387 OA
ATOM     78  H   UNL     1       2.313   4.364  22.546  0.00  0.00    +0.210 HD
ENDBRANCH  72  77
ENDBRANCH  65  69
ENDBRANCH  42  65
ENDBRANCH  41  47
ENDBRANCH   1  41
TORSDOF 26
ENDMDL
MODEL 5
REMARK VINA RESULT:      -4.6      2.600      6.653
REMARK  Name = 
REMARK  27 active torsions:
REMARK  status: ('A' for Active; 'I' for Inactive)
REMARK    1  A    between atoms: C_1  and  C_2
REMARK    2  A    between atoms: C_3  and  O_73
REMARK    3  A    between atoms: C_5  and  O_72
REMARK    4  A    between atoms: C_7  and  O_71
REMARK    5  A    between atoms: C_8  and  O_11
REMARK    6  A    between atoms: O_11  and  C_12
REMARK    7  A    between atoms: C_14  and  O_70
REMARK    8  A    between atoms: C_19  and  C_62
REMARK    9  A    between atoms: C_20  and  O_23
REMARK   10  A    between atoms: O_23  and  C_24
REMARK   11  A    between atoms: C_26  and  O_61
REMARK   12  A    between atoms: C_27  and  O_60
REMARK   13  A    between atoms: C_28  and  O_59
REMARK   14  A    between atoms: C_30  and  C_32
REMARK   15  A    between atoms: C_32  and  O_33
REMARK   16  A    between atoms: O_33  and  C_34
REMARK   17  A    between atoms: C_36  and  O_58
REMARK   18  A    between atoms: C_37  and  O_57
REMARK   19  A    between atoms: C_38  and  O_56
REMARK   20  A    between atoms: C_40  and  C_43
REMARK   21  A    between atoms: C_43  and  O_44
REMARK   22  A    between atoms: O_44  and  C_45
REMARK   23  A    between atoms: C_45  and  C_47
REMARK   24  A    between atoms: C_48  and  C_49
REMARK   25  A    between atoms: C_52  and  O_55
REMARK   26  A    between atoms: C_64  and  O_69
REMARK   27  A    between atoms: C_65  and  O_68
REMARK                            x       y       z     vdW  Elec       q    Type
REMARK                         _______ _______ _______ _____ _____    ______ ____
ROOT
ATOM      1  C   UNL     1       6.938   2.077  26.741  0.00  0.00    +0.340 C 
ATOM      2  O   UNL     1       7.923   1.056  26.631  0.00  0.00    -0.331 OA
ATOM      3  C   UNL     1       7.851  -0.094  27.461  0.00  0.00    +0.179 C 
ATOM      4  C   UNL     1       7.463   0.236  28.908  0.00  0.00    +0.177 C 
ATOM      5  C   UNL     1       6.173   1.047  28.923  0.00  0.00    +0.180 C 
ATOM      6  C   UNL     1       6.336   2.338  28.134  0.00  0.00    +0.214 C 
ENDROOT
BRANCH   6   7
ATOM      7  O   UNL     1       5.064   3.019  28.113  0.00  0.00    -0.383 OA
ATOM      8  H   UNL     1       5.169   3.838  28.636  0.00  0.00    +0.210 HD
ENDBRANCH   6   7
BRANCH   4   9
ATOM      9  O   UNL     1       8.479   1.023  29.553  0.00  0.00    -0.386 OA
ATOM     10  H   UNL     1       8.137   1.195  30.453  0.00  0.00    +0.210 HD
ENDBRANCH   4   9
BRANCH   5  11
ATOM     11  O   UNL     1       5.857   1.364  30.293  0.00  0.00    -0.386 OA
ATOM     12  H   UNL     1       6.676   1.711  30.703  0.00  0.00    +0.210 HD
ENDBRANCH   5  11
BRANCH   3  13
ATOM     13  C   UNL     1       9.257  -0.713  27.367  0.00  0.00    +0.197 C 
BRANCH  13  14
ATOM     14  O   UNL     1       9.252  -2.128  27.140  0.00  0.00    -0.346 OA
BRANCH  14  15
ATOM     15  C   UNL     1       8.272  -2.453  26.132  0.00  0.00    +0.282 C 
ATOM     16  O   UNL     1       7.101  -3.057  26.673  0.00  0.00    -0.339 OA
ATOM     17  C   UNL     1       7.308  -4.366  27.237  0.00  0.00    +0.190 C 
ATOM     18  C   UNL     1       7.910  -5.347  26.230  0.00  0.00    +0.178 C 
ATOM     19  C   UNL     1       9.157  -4.758  25.574  0.00  0.00    +0.179 C 
ATOM     20  C   UNL     1       8.883  -3.347  25.039  0.00  0.00    +0.201 C 
BRANCH  18  21
ATOM     21  O   UNL     1       6.957  -5.660  25.202  0.00  0.00    -0.386 OA
ATOM     22  H   UNL     1       7.087  -4.969  24.521  0.00  0.00    +0.210 HD
ENDBRANCH  18  21
BRANCH  19  23
ATOM     23  O   UNL     1       9.536  -5.642  24.500  0.00  0.00    -0.386 OA
ATOM     24  H   UNL     1       9.368  -6.553  24.812  0.00  0.00    +0.210 HD
ENDBRANCH  19  23
BRANCH  20  25
ATOM     25  O   UNL     1      10.098  -2.802  24.505  0.00  0.00    -0.384 OA
ATOM     26  H   UNL     1       9.940  -1.846  24.382  0.00  0.00    +0.210 HD
ENDBRANCH  20  25
BRANCH  17  27
ATOM     27  C   UNL     1       5.940  -4.870  27.733  0.00  0.00    +0.266 C 
BRANCH  27  28
ATOM     28  O   UNL     1       6.112  -6.135  28.392  0.00  0.00    -0.459 OA
BRANCH  28  29
ATOM     29  C   UNL     1       5.224  -6.351  29.382  0.00  0.00    +0.332 C 
ATOM     30  O   UNL     1       5.338  -7.128  30.312  0.00  0.00    -0.246 OA
BRANCH  29  31
ATOM     31  C   UNL     1       4.169  -5.334  29.247  0.00  0.00    +0.092 C 
ATOM     32  C   UNL     1       4.245  -4.245  30.023  0.00  0.00    +0.015 C 
BRANCH  32  33
ATOM     33  C   UNL     1       3.303  -3.127  29.990  0.00  0.00    -0.025 A 
ATOM     34  C   UNL     1       3.826  -1.829  30.039  0.00  0.00    +0.011 A 
ATOM     35  C   UNL     1       2.978  -0.726  30.104  0.00  0.00    +0.046 A 
ATOM     36  C   UNL     1       1.606  -0.925  30.095  0.00  0.00    +0.117 A 
ATOM     37  C   UNL     1       1.066  -2.199  29.978  0.00  0.00    +0.046 A 
ATOM     38  C   UNL     1       1.915  -3.299  29.919  0.00  0.00    +0.011 A 
BRANCH  36  39
ATOM     39  O   UNL     1       0.792   0.165  30.125  0.00  0.00    -0.507 OA
ATOM     40  H   UNL     1      -0.055  -0.115  29.732  0.00  0.00    +0.292 HD
ENDBRANCH  36  39
ENDBRANCH  32  33
ENDBRANCH  29  31
ENDBRANCH  28  29
ENDBRANCH  27  28
ENDBRANCH  17  27
ENDBRANCH  14  15
ENDBRANCH  13  14
ENDBRANCH   3  13
BRANCH   1  41
ATOM     41  O   UNL     1       5.903   1.905  25.763  0.00  0.00    -0.453 OA
BRANCH  41  47
ATOM     42  C   UNL     1       3.913  -4.117  24.403  0.00  0.00    +0.131 A 
ATOM     43  C   UNL     1       4.955  -3.322  23.900  0.00  0.00    +0.093 A 
ATOM     44  C   UNL     1       5.180  -2.042  24.424  0.00  0.00    +0.147 A 
ATOM     45  O   UNL     1       6.168  -1.268  23.859  0.00  0.00    -0.451 OA
ATOM     46  C   UNL     1       6.379   0.038  24.319  0.00  0.00    +0.181 A 
ATOM     47  C   UNL     1       5.644   0.602  25.313  0.00  0.00    +0.214 A 
ATOM     48  C   UNL     1       4.513  -0.206  25.874  0.00  0.00    +0.238 A 
ATOM     49  O   UNL     1       3.635   0.249  26.599  0.00  0.00    -0.283 OA
ATOM     50  C   UNL     1       4.354  -1.584  25.434  0.00  0.00    +0.109 A 
ATOM     51  C   UNL     1       3.289  -2.372  25.912  0.00  0.00    +0.135 A 
ATOM     52  C   UNL     1       3.077  -3.633  25.403  0.00  0.00    +0.092 A 
BRANCH  46  53
ATOM     53  C   UNL     1       7.507   0.746  23.605  0.00  0.00    +0.025 A 
ATOM     54  C   UNL     1       8.718   0.058  23.369  0.00  0.00    +0.015 A 
ATOM     55  C   UNL     1       9.789   0.653  22.685  0.00  0.00    +0.050 A 
ATOM     56  C   UNL     1       9.662   1.945  22.211  0.00  0.00    +0.158 A 
ATOM     57  C   UNL     1       8.483   2.650  22.408  0.00  0.00    +0.159 A 
ATOM     58  C   UNL     1       7.417   2.061  23.093  0.00  0.00    +0.060 A 
BRANCH  57  59
ATOM     59  O   UNL     1       8.422   3.921  21.903  0.00  0.00    -0.503 OA
ATOM     60  H   UNL     1       7.611   4.351  22.222  0.00  0.00    +0.292 HD
ENDBRANCH  57  59
BRANCH  56  61
ATOM     61  O   UNL     1      10.703   2.514  21.535  0.00  0.00    -0.503 OA
ATOM     62  H   UNL     1      10.288   2.956  20.766  0.00  0.00    +0.292 HD
ENDBRANCH  56  61
ENDBRANCH  46  53
BRANCH  51  63
ATOM     63  O   UNL     1       2.390  -1.904  26.831  0.00  0.00    -0.506 OA
ATOM     64  H   UNL     1       1.582  -1.585  26.395  0.00  0.00    +0.292 HD
ENDBRANCH  51  63
BRANCH  42  65
ATOM     65  O   UNL     1       3.546  -5.369  24.010  0.00  0.00    -0.461 OA
BRANCH  65  69
ATOM     66  C   UNL     1       0.670  -6.120  27.098  0.00  0.00    +0.041 C 
ATOM     67  C   UNL     1       1.771  -7.093  26.680  0.00  0.00    +0.150 C 
ATOM     68  O   UNL     1       2.796  -6.395  25.963  0.00  0.00    -0.334 OA
ATOM     69  C   UNL     1       2.427  -5.968  24.650  0.00  0.00    +0.339 C 
ATOM     70  C   UNL     1       2.067  -7.188  23.787  0.00  0.00    +0.214 C 
ATOM     71  C   UNL     1       0.878  -7.895  24.445  0.00  0.00    +0.180 C 
ATOM     72  C   UNL     1       1.236  -8.300  25.887  0.00  0.00    +0.174 C 
BRANCH  70  73
ATOM     73  O   UNL     1       3.206  -8.084  23.722  0.00  0.00    -0.383 OA
ATOM     74  H   UNL     1       2.962  -8.782  23.081  0.00  0.00    +0.210 HD
ENDBRANCH  70  73
BRANCH  71  75
ATOM     75  O   UNL     1       0.443  -9.005  23.657  0.00  0.00    -0.386 OA
ATOM     76  H   UNL     1       0.469  -9.800  24.221  0.00  0.00    +0.210 HD
ENDBRANCH  71  75
BRANCH  72  77
ATOM     77  O   UNL     1       2.224  -9.341  25.882  0.00  0.00    -0.387 OA
ATOM     78  H   UNL     1       2.636  -9.339  24.988  0.00  0.00    +0.210 HD
ENDBRANCH  72  77
ENDBRANCH  65  69
ENDBRANCH  42  65
ENDBRANCH  41  47
ENDBRANCH   1  41
TORSDOF 26
ENDMDL
MODEL 6
REMARK VINA RESULT:      -4.5      2.429      9.097
REMARK  Name = 
REMARK  27 active torsions:
REMARK  status: ('A' for Active; 'I' for Inactive)
REMARK    1  A    between atoms: C_1  and  C_2
REMARK    2  A    between atoms: C_3  and  O_73
REMARK    3  A    between atoms: C_5  and  O_72
REMARK    4  A    between atoms: C_7  and  O_71
REMARK    5  A    between atoms: C_8  and  O_11
REMARK    6  A    between atoms: O_11  and  C_12
REMARK    7  A    between atoms: C_14  and  O_70
REMARK    8  A    between atoms: C_19  and  C_62
REMARK    9  A    between atoms: C_20  and  O_23
REMARK   10  A    between atoms: O_23  and  C_24
REMARK   11  A    between atoms: C_26  and  O_61
REMARK   12  A    between atoms: C_27  and  O_60
REMARK   13  A    between atoms: C_28  and  O_59
REMARK   14  A    between atoms: C_30  and  C_32
REMARK   15  A    between atoms: C_32  and  O_33
REMARK   16  A    between atoms: O_33  and  C_34
REMARK   17  A    between atoms: C_36  and  O_58
REMARK   18  A    between atoms: C_37  and  O_57
REMARK   19  A    between atoms: C_38  and  O_56
REMARK   20  A    between atoms: C_40  and  C_43
REMARK   21  A    between atoms: C_43  and  O_44
REMARK   22  A    between atoms: O_44  and  C_45
REMARK   23  A    between atoms: C_45  and  C_47
REMARK   24  A    between atoms: C_48  and  C_49
REMARK   25  A    between atoms: C_52  and  O_55
REMARK   26  A    between atoms: C_64  and  O_69
REMARK   27  A    between atoms: C_65  and  O_68
REMARK                            x       y       z     vdW  Elec       q    Type
REMARK                         _______ _______ _______ _____ _____    ______ ____
ROOT
ATOM      1  C   UNL     1       5.408  -3.547  23.316  0.00  0.00    +0.340 C 
ATOM      2  O   UNL     1       4.135  -3.880  23.857  0.00  0.00    -0.331 OA
ATOM      3  C   UNL     1       3.832  -5.229  24.182  0.00  0.00    +0.179 C 
ATOM      4  C   UNL     1       4.336  -6.226  23.131  0.00  0.00    +0.177 C 
ATOM      5  C   UNL     1       5.823  -6.006  22.885  0.00  0.00    +0.180 C 
ATOM      6  C   UNL     1       6.089  -4.586  22.407  0.00  0.00    +0.214 C 
ENDROOT
BRANCH   6   7
ATOM      7  O   UNL     1       7.516  -4.415  22.272  0.00  0.00    -0.383 OA
ATOM      8  H   UNL     1       7.660  -3.760  21.560  0.00  0.00    +0.210 HD
ENDBRANCH   6   7
BRANCH   4   9
ATOM      9  O   UNL     1       3.656  -6.047  21.877  0.00  0.00    -0.386 OA
ATOM     10  H   UNL     1       2.851  -5.534  22.093  0.00  0.00    +0.210 HD
ENDBRANCH   4   9
BRANCH   5  11
ATOM     11  O   UNL     1       6.254  -6.938  21.872  0.00  0.00    -0.386 OA
ATOM     12  H   UNL     1       5.506  -7.548  21.708  0.00  0.00    +0.210 HD
ENDBRANCH   5  11
BRANCH   3  13
ATOM     13  C   UNL     1       2.299  -5.248  24.309  0.00  0.00    +0.197 C 
BRANCH  13  14
ATOM     14  O   UNL     1       1.795  -4.419  25.364  0.00  0.00    -0.346 OA
BRANCH  14  15
ATOM     15  C   UNL     1       0.912  -5.191  26.204  0.00  0.00    +0.282 C 
ATOM     16  O   UNL     1       1.283  -5.154  27.579  0.00  0.00    -0.339 OA
ATOM     17  C   UNL     1       2.532  -5.805  27.879  0.00  0.00    +0.190 C 
ATOM     18  C   UNL     1       2.549  -7.269  27.436  0.00  0.00    +0.178 C 
ATOM     19  C   UNL     1       2.125  -7.401  25.974  0.00  0.00    +0.179 C 
ATOM     20  C   UNL     1       0.817  -6.645  25.711  0.00  0.00    +0.201 C 
BRANCH  18  21
ATOM     21  O   UNL     1       1.654  -8.050  28.243  0.00  0.00    -0.386 OA
ATOM     22  H   UNL     1       1.765  -8.969  27.924  0.00  0.00    +0.210 HD
ENDBRANCH  18  21
BRANCH  19  23
ATOM     23  O   UNL     1       1.963  -8.807  25.699  0.00  0.00    -0.386 OA
ATOM     24  H   UNL     1       1.092  -8.912  25.269  0.00  0.00    +0.210 HD
ENDBRANCH  19  23
BRANCH  20  25
ATOM     25  O   UNL     1       0.500  -6.728  24.314  0.00  0.00    -0.384 OA
ATOM     26  H   UNL     1       1.340  -6.913  23.852  0.00  0.00    +0.210 HD
ENDBRANCH  20  25
BRANCH  17  27
ATOM     27  C   UNL     1       2.747  -5.698  29.401  0.00  0.00    +0.266 C 
BRANCH  27  28
ATOM     28  O   UNL     1       3.983  -5.011  29.657  0.00  0.00    -0.459 OA
BRANCH  28  29
ATOM     29  C   UNL     1       5.074  -5.776  29.457  0.00  0.00    +0.332 C 
ATOM     30  O   UNL     1       5.238  -6.927  29.821  0.00  0.00    -0.246 OA
BRANCH  29  31
ATOM     31  C   UNL     1       5.963  -5.036  28.547  0.00  0.00    +0.092 C 
ATOM     32  C   UNL     1       6.849  -5.737  27.829  0.00  0.00    +0.015 C 
BRANCH  32  33
ATOM     33  C   UNL     1       7.777  -5.162  26.856  0.00  0.00    -0.025 A 
ATOM     34  C   UNL     1       8.198  -3.841  27.055  0.00  0.00    +0.011 A 
ATOM     35  C   UNL     1       9.007  -3.206  26.116  0.00  0.00    +0.046 A 
ATOM     36  C   UNL     1       9.413  -3.905  24.990  0.00  0.00    +0.117 A 
ATOM     37  C   UNL     1       9.064  -5.237  24.806  0.00  0.00    +0.046 A 
ATOM     38  C   UNL     1       8.252  -5.866  25.743  0.00  0.00    +0.011 A 
BRANCH  36  39
ATOM     39  O   UNL     1      10.231  -3.281  24.099  0.00  0.00    -0.507 OA
ATOM     40  H   UNL     1       9.751  -2.489  23.794  0.00  0.00    +0.292 HD
ENDBRANCH  36  39
ENDBRANCH  32  33
ENDBRANCH  29  31
ENDBRANCH  28  29
ENDBRANCH  27  28
ENDBRANCH  17  27
ENDBRANCH  14  15
ENDBRANCH  13  14
ENDBRANCH   3  13
BRANCH   1  41
ATOM     41  O   UNL     1       6.306  -3.102  24.342  0.00  0.00    -0.453 OA
BRANCH  41  47
ATOM     42  C   UNL     1       8.542   2.939  23.577  0.00  0.00    +0.131 A 
ATOM     43  C   UNL     1       7.650   2.362  24.497  0.00  0.00    +0.093 A 
ATOM     44  C   UNL     1       7.379   0.989  24.446  0.00  0.00    +0.147 A 
ATOM     45  O   UNL     1       6.449   0.473  25.320  0.00  0.00    -0.451 OA
ATOM     46  C   UNL     1       6.108  -0.884  25.257  0.00  0.00    +0.181 A 
ATOM     47  C   UNL     1       6.654  -1.744  24.357  0.00  0.00    +0.214 A 
ATOM     48  C   UNL     1       7.604  -1.171  23.349  0.00  0.00    +0.238 A 
ATOM     49  O   UNL     1       7.989  -1.767  22.348  0.00  0.00    -0.283 OA
ATOM     50  C   UNL     1       7.997   0.225  23.474  0.00  0.00    +0.109 A 
ATOM     51  C   UNL     1       8.865   0.813  22.534  0.00  0.00    +0.135 A 
ATOM     52  C   UNL     1       9.139   2.161  22.592  0.00  0.00    +0.092 A 
BRANCH  46  53
ATOM     53  C   UNL     1       5.086  -1.291  26.293  0.00  0.00    +0.025 A 
ATOM     54  C   UNL     1       5.484  -1.434  27.640  0.00  0.00    +0.015 A 
ATOM     55  C   UNL     1       4.573  -1.780  28.650  0.00  0.00    +0.050 A 
ATOM     56  C   UNL     1       3.242  -1.976  28.331  0.00  0.00    +0.158 A 
ATOM     57  C   UNL     1       2.808  -1.830  27.021  0.00  0.00    +0.159 A 
ATOM     58  C   UNL     1       3.715  -1.490  26.013  0.00  0.00    +0.060 A 
BRANCH  57  59
ATOM     59  O   UNL     1       1.476  -2.028  26.777  0.00  0.00    -0.503 OA
ATOM     60  H   UNL     1       1.306  -2.981  26.692  0.00  0.00    +0.292 HD
ENDBRANCH  57  59
BRANCH  56  61
ATOM     61  O   UNL     1       2.359  -2.299  29.320  0.00  0.00    -0.503 OA
ATOM     62  H   UNL     1       1.886  -1.465  29.514  0.00  0.00    +0.292 HD
ENDBRANCH  56  61
ENDBRANCH  46  53
BRANCH  51  63
ATOM     63  O   UNL     1       9.406   0.104  21.495  0.00  0.00    -0.506 OA
ATOM     64  H   UNL     1       8.939  -0.739  21.370  0.00  0.00    +0.292 HD
ENDBRANCH  51  63
BRANCH  42  65
ATOM     65  O   UNL     1       8.913   4.246  23.473  0.00  0.00    -0.461 OA
BRANCH  65  69
ATOM     66  C   UNL     1       5.948   6.682  25.383  0.00  0.00    +0.041 C 
ATOM     67  C   UNL     1       5.646   5.573  24.377  0.00  0.00    +0.150 C 
ATOM     68  O   UNL     1       6.769   4.689  24.269  0.00  0.00    -0.334 OA
ATOM     69  C   UNL     1       7.902   5.238  23.594  0.00  0.00    +0.339 C 
ATOM     70  C   UNL     1       7.522   5.611  22.152  0.00  0.00    +0.214 C 
ATOM     71  C   UNL     1       6.410   6.663  22.217  0.00  0.00    +0.180 C 
ATOM     72  C   UNL     1       5.205   6.111  23.002  0.00  0.00    +0.174 C 
BRANCH  70  73
ATOM     73  O   UNL     1       7.049   4.427  21.460  0.00  0.00    -0.383 OA
ATOM     74  H   UNL     1       6.550   4.753  20.682  0.00  0.00    +0.210 HD
ENDBRANCH  70  73
BRANCH  71  75
ATOM     75  O   UNL     1       6.050   7.108  20.908  0.00  0.00    -0.386 OA
ATOM     76  H   UNL     1       5.182   6.722  20.689  0.00  0.00    +0.210 HD
ENDBRANCH  71  75
BRANCH  72  77
ATOM     77  O   UNL     1       4.566   5.060  22.263  0.00  0.00    -0.387 OA
ATOM     78  H   UNL     1       3.718   4.865  22.720  0.00  0.00    +0.210 HD
ENDBRANCH  72  77
ENDBRANCH  65  69
ENDBRANCH  42  65
ENDBRANCH  41  47
ENDBRANCH   1  41
TORSDOF 26
ENDMDL
MODEL 7
REMARK VINA RESULT:      -4.4      2.485      6.440
REMARK  Name = 
REMARK  27 active torsions:
REMARK  status: ('A' for Active; 'I' for Inactive)
REMARK    1  A    between atoms: C_1  and  C_2
REMARK    2  A    between atoms: C_3  and  O_73
REMARK    3  A    between atoms: C_5  and  O_72
REMARK    4  A    between atoms: C_7  and  O_71
REMARK    5  A    between atoms: C_8  and  O_11
REMARK    6  A    between atoms: O_11  and  C_12
REMARK    7  A    between atoms: C_14  and  O_70
REMARK    8  A    between atoms: C_19  and  C_62
REMARK    9  A    between atoms: C_20  and  O_23
REMARK   10  A    between atoms: O_23  and  C_24
REMARK   11  A    between atoms: C_26  and  O_61
REMARK   12  A    between atoms: C_27  and  O_60
REMARK   13  A    between atoms: C_28  and  O_59
REMARK   14  A    between atoms: C_30  and  C_32
REMARK   15  A    between atoms: C_32  and  O_33
REMARK   16  A    between atoms: O_33  and  C_34
REMARK   17  A    between atoms: C_36  and  O_58
REMARK   18  A    between atoms: C_37  and  O_57
REMARK   19  A    between atoms: C_38  and  O_56
REMARK   20  A    between atoms: C_40  and  C_43
REMARK   21  A    between atoms: C_43  and  O_44
REMARK   22  A    between atoms: O_44  and  C_45
REMARK   23  A    between atoms: C_45  and  C_47
REMARK   24  A    between atoms: C_48  and  C_49
REMARK   25  A    between atoms: C_52  and  O_55
REMARK   26  A    between atoms: C_64  and  O_69
REMARK   27  A    between atoms: C_65  and  O_68
REMARK                            x       y       z     vdW  Elec       q    Type
REMARK                         _______ _______ _______ _____ _____    ______ ____
ROOT
ATOM      1  C   UNL     1       3.792   3.152  24.817  0.00  0.00    +0.340 C 
ATOM      2  O   UNL     1       5.050   3.462  24.230  0.00  0.00    -0.331 OA
ATOM      3  C   UNL     1       5.245   4.714  23.588  0.00  0.00    +0.179 C 
ATOM      4  C   UNL     1       4.045   5.144  22.737  0.00  0.00    +0.177 C 
ATOM      5  C   UNL     1       2.778   5.115  23.583  0.00  0.00    +0.180 C 
ATOM      6  C   UNL     1       2.531   3.721  24.141  0.00  0.00    +0.214 C 
ENDROOT
BRANCH   6   7
ATOM      7  O   UNL     1       1.370   3.776  24.998  0.00  0.00    -0.383 OA
ATOM      8  H   UNL     1       1.020   2.866  25.064  0.00  0.00    +0.210 HD
ENDBRANCH   6   7
BRANCH   4   9
ATOM      9  O   UNL     1       3.847   4.251  21.627  0.00  0.00    -0.386 OA
ATOM     10  H   UNL     1       3.359   3.488  21.997  0.00  0.00    +0.210 HD
ENDBRANCH   4   9
BRANCH   5  11
ATOM     11  O   UNL     1       1.668   5.494  22.744  0.00  0.00    -0.386 OA
ATOM     12  H   UNL     1       1.505   6.447  22.899  0.00  0.00    +0.210 HD
ENDBRANCH   5  11
BRANCH   3  13
ATOM     13  C   UNL     1       6.511   4.505  22.738  0.00  0.00    +0.197 C 
BRANCH  13  14
ATOM     14  O   UNL     1       7.586   3.873  23.446  0.00  0.00    -0.346 OA
BRANCH  14  15
ATOM     15  C   UNL     1       8.148   2.822  22.633  0.00  0.00    +0.282 C 
ATOM     16  O   UNL     1       7.366   1.631  22.651  0.00  0.00    -0.339 OA
ATOM     17  C   UNL     1       7.329   0.958  23.924  0.00  0.00    +0.190 C 
ATOM     18  C   UNL     1       8.726   0.601  24.436  0.00  0.00    +0.178 C 
ATOM     19  C   UNL     1       9.643   1.822  24.415  0.00  0.00    +0.179 C 
ATOM     20  C   UNL     1       9.598   2.520  23.050  0.00  0.00    +0.201 C 
BRANCH  18  21
ATOM     21  O   UNL     1       9.312  -0.426  23.621  0.00  0.00    -0.386 OA
ATOM     22  H   UNL     1      10.108  -0.714  24.114  0.00  0.00    +0.210 HD
ENDBRANCH  18  21
BRANCH  19  23
ATOM     23  O   UNL     1      10.978   1.361  24.705  0.00  0.00    -0.386 OA
ATOM     24  H   UNL     1      11.203   1.691  25.596  0.00  0.00    +0.210 HD
ENDBRANCH  19  23
BRANCH  20  25
ATOM     25  O   UNL     1      10.408   3.703  23.100  0.00  0.00    -0.384 OA
ATOM     26  H   UNL     1       9.933   4.337  23.670  0.00  0.00    +0.210 HD
ENDBRANCH  20  25
BRANCH  17  27
ATOM     27  C   UNL     1       6.477  -0.312  23.742  0.00  0.00    +0.266 C 
BRANCH  27  28
ATOM     28  O   UNL     1       5.449  -0.340  24.747  0.00  0.00    -0.459 OA
BRANCH  28  29
ATOM     29  C   UNL     1       5.746  -1.130  25.797  0.00  0.00    +0.332 C 
ATOM     30  O   UNL     1       6.451  -0.848  26.749  0.00  0.00    -0.246 OA
BRANCH  29  31
ATOM     31  C   UNL     1       4.905  -2.332  25.686  0.00  0.00    +0.092 C 
ATOM     32  C   UNL     1       5.267  -3.271  24.802  0.00  0.00    +0.015 C 
BRANCH  32  33
ATOM     33  C   UNL     1       4.565  -4.536  24.593  0.00  0.00    -0.025 A 
ATOM     34  C   UNL     1       5.326  -5.712  24.577  0.00  0.00    +0.011 A 
ATOM     35  C   UNL     1       4.730  -6.938  24.290  0.00  0.00    +0.046 A 
ATOM     36  C   UNL     1       3.367  -6.986  24.043  0.00  0.00    +0.117 A 
ATOM     37  C   UNL     1       2.582  -5.844  24.121  0.00  0.00    +0.046 A 
ATOM     38  C   UNL     1       3.180  -4.620  24.402  0.00  0.00    +0.011 A 
BRANCH  36  39
ATOM     39  O   UNL     1       2.795  -8.196  23.798  0.00  0.00    -0.507 OA
ATOM     40  H   UNL     1       1.905  -8.013  23.445  0.00  0.00    +0.292 HD
ENDBRANCH  36  39
ENDBRANCH  32  33
ENDBRANCH  29  31
ENDBRANCH  28  29
ENDBRANCH  27  28
ENDBRANCH  17  27
ENDBRANCH  14  15
ENDBRANCH  13  14
ENDBRANCH   3  13
BRANCH   1  41
ATOM     41  O   UNL     1       3.791   3.442  26.222  0.00  0.00    -0.453 OA
BRANCH  41  47
ATOM     42  C   UNL     1       3.141  -2.014  29.669  0.00  0.00    +0.131 A 
ATOM     43  C   UNL     1       3.913  -0.855  29.856  0.00  0.00    +0.093 A 
ATOM     44  C   UNL     1       3.818   0.207  28.947  0.00  0.00    +0.147 A 
ATOM     45  O   UNL     1       4.639   1.296  29.127  0.00  0.00    -0.451 OA
ATOM     46  C   UNL     1       4.613   2.350  28.203  0.00  0.00    +0.181 A 
ATOM     47  C   UNL     1       3.807   2.357  27.110  0.00  0.00    +0.214 A 
ATOM     48  C   UNL     1       2.971   1.137  26.865  0.00  0.00    +0.238 A 
ATOM     49  O   UNL     1       2.381   0.906  25.815  0.00  0.00    -0.283 OA
ATOM     50  C   UNL     1       2.960   0.085  27.870  0.00  0.00    +0.109 A 
ATOM     51  C   UNL     1       2.212  -1.092  27.669  0.00  0.00    +0.135 A 
ATOM     52  C   UNL     1       2.299  -2.130  28.568  0.00  0.00    +0.092 A 
BRANCH  46  53
ATOM     53  C   UNL     1       5.563   3.472  28.553  0.00  0.00    +0.025 A 
ATOM     54  C   UNL     1       5.666   3.899  29.895  0.00  0.00    +0.015 A 
ATOM     55  C   UNL     1       6.552   4.916  30.285  0.00  0.00    +0.050 A 
ATOM     56  C   UNL     1       7.362   5.514  29.338  0.00  0.00    +0.158 A 
ATOM     57  C   UNL     1       7.303   5.112  28.011  0.00  0.00    +0.159 A 
ATOM     58  C   UNL     1       6.417   4.104  27.621  0.00  0.00    +0.060 A 
BRANCH  57  59
ATOM     59  O   UNL     1       8.140   5.739  27.129  0.00  0.00    -0.503 OA
ATOM     60  H   UNL     1       8.794   6.260  27.625  0.00  0.00    +0.292 HD
ENDBRANCH  57  59
BRANCH  56  61
ATOM     61  O   UNL     1       8.231   6.493  29.725  0.00  0.00    -0.503 OA
ATOM     62  H   UNL     1       7.680   7.136  30.216  0.00  0.00    +0.292 HD
ENDBRANCH  56  61
ENDBRANCH  46  53
BRANCH  51  63
ATOM     63  O   UNL     1       1.440  -1.285  26.556  0.00  0.00    -0.506 OA
ATOM     64  H   UNL     1       0.857  -0.524  26.401  0.00  0.00    +0.292 HD
ENDBRANCH  51  63
BRANCH  42  65
ATOM     65  O   UNL     1       3.113  -3.138  30.439  0.00  0.00    -0.461 OA
BRANCH  65  69
ATOM     66  C   UNL     1       6.086  -5.351  28.287  0.00  0.00    +0.041 C 
ATOM     67  C   UNL     1       4.590  -5.382  27.982  0.00  0.00    +0.150 C 
ATOM     68  O   UNL     1       3.947  -4.241  28.564  0.00  0.00    -0.334 OA
ATOM     69  C   UNL     1       3.840  -4.273  29.988  0.00  0.00    +0.339 C 
ATOM     70  C   UNL     1       3.008  -5.491  30.422  0.00  0.00    +0.214 C 
ATOM     71  C   UNL     1       3.730  -6.751  29.938  0.00  0.00    +0.180 C 
ATOM     72  C   UNL     1       3.917  -6.700  28.409  0.00  0.00    +0.174 C 
BRANCH  70  73
ATOM     73  O   UNL     1       1.690  -5.409  29.820  0.00  0.00    -0.383 OA
ATOM     74  H   UNL     1       1.656  -6.124  29.151  0.00  0.00    +0.210 HD
ENDBRANCH  70  73
BRANCH  71  75
ATOM     75  O   UNL     1       3.045  -7.930  30.365  0.00  0.00    -0.386 OA
ATOM     76  H   UNL     1       2.946  -7.883  31.334  0.00  0.00    +0.210 HD
ENDBRANCH  71  75
BRANCH  72  77
ATOM     77  O   UNL     1       2.648  -6.822  27.748  0.00  0.00    -0.387 OA
ATOM     78  H   UNL     1       2.038  -7.262  28.381  0.00  0.00    +0.210 HD
ENDBRANCH  72  77
ENDBRANCH  65  69
ENDBRANCH  42  65
ENDBRANCH  41  47
ENDBRANCH   1  41
TORSDOF 26
ENDMDL
MODEL 8
REMARK VINA RESULT:      -4.4      2.270     10.418
REMARK  Name = 
REMARK  27 active torsions:
REMARK  status: ('A' for Active; 'I' for Inactive)
REMARK    1  A    between atoms: C_1  and  C_2
REMARK    2  A    between atoms: C_3  and  O_73
REMARK    3  A    between atoms: C_5  and  O_72
REMARK    4  A    between atoms: C_7  and  O_71
REMARK    5  A    between atoms: C_8  and  O_11
REMARK    6  A    between atoms: O_11  and  C_12
REMARK    7  A    between atoms: C_14  and  O_70
REMARK    8  A    between atoms: C_19  and  C_62
REMARK    9  A    between atoms: C_20  and  O_23
REMARK   10  A    between atoms: O_23  and  C_24
REMARK   11  A    between atoms: C_26  and  O_61
REMARK   12  A    between atoms: C_27  and  O_60
REMARK   13  A    between atoms: C_28  and  O_59
REMARK   14  A    between atoms: C_30  and  C_32
REMARK   15  A    between atoms: C_32  and  O_33
REMARK   16  A    between atoms: O_33  and  C_34
REMARK   17  A    between atoms: C_36  and  O_58
REMARK   18  A    between atoms: C_37  and  O_57
REMARK   19  A    between atoms: C_38  and  O_56
REMARK   20  A    between atoms: C_40  and  C_43
REMARK   21  A    between atoms: C_43  and  O_44
REMARK   22  A    between atoms: O_44  and  C_45
REMARK   23  A    between atoms: C_45  and  C_47
REMARK   24  A    between atoms: C_48  and  C_49
REMARK   25  A    between atoms: C_52  and  O_55
REMARK   26  A    between atoms: C_64  and  O_69
REMARK   27  A    between atoms: C_65  and  O_68
REMARK                            x       y       z     vdW  Elec       q    Type
REMARK                         _______ _______ _______ _____ _____    ______ ____
ROOT
ATOM      1  C   UNL     1       4.670  -6.549  27.693  0.00  0.00    +0.340 C 
ATOM      2  O   UNL     1       4.358  -6.061  26.393  0.00  0.00    -0.331 OA
ATOM      3  C   UNL     1       3.094  -5.464  26.144  0.00  0.00    +0.179 C 
ATOM      4  C   UNL     1       1.936  -6.211  26.817  0.00  0.00    +0.177 C 
ATOM      5  C   UNL     1       2.221  -6.368  28.305  0.00  0.00    +0.180 C 
ATOM      6  C   UNL     1       3.518  -7.133  28.530  0.00  0.00    +0.214 C 
ENDROOT
BRANCH   6   7
ATOM      7  O   UNL     1       3.776  -7.176  29.949  0.00  0.00    -0.383 OA
ATOM      8  H   UNL     1       2.920  -7.338  30.392  0.00  0.00    +0.210 HD
ENDBRANCH   6   7
BRANCH   4   9
ATOM      9  O   UNL     1       1.774  -7.528  26.263  0.00  0.00    -0.386 OA
ATOM     10  H   UNL     1       0.968  -7.886  26.687  0.00  0.00    +0.210 HD
ENDBRANCH   4   9
BRANCH   5  11
ATOM     11  O   UNL     1       1.129  -7.099  28.898  0.00  0.00    -0.386 OA
ATOM     12  H   UNL     1       0.742  -6.525  29.589  0.00  0.00    +0.210 HD
ENDBRANCH   5  11
BRANCH   3  13
ATOM     13  C   UNL     1       2.973  -5.473  24.609  0.00  0.00    +0.197 C 
BRANCH  13  14
ATOM     14  O   UNL     1       3.623  -4.366  23.971  0.00  0.00    -0.346 OA
BRANCH  14  15
ATOM     15  C   UNL     1       5.037  -4.406  24.258  0.00  0.00    +0.282 C 
ATOM     16  O   UNL     1       5.650  -3.122  24.193  0.00  0.00    -0.339 OA
ATOM     17  C   UNL     1       5.688  -2.541  22.876  0.00  0.00    +0.190 C 
ATOM     18  C   UNL     1       6.395  -3.442  21.861  0.00  0.00    +0.178 C 
ATOM     19  C   UNL     1       5.817  -4.855  21.892  0.00  0.00    +0.179 C 
ATOM     20  C   UNL     1       5.758  -5.395  23.326  0.00  0.00    +0.201 C 
BRANCH  18  21
ATOM     21  O   UNL     1       7.800  -3.516  22.147  0.00  0.00    -0.386 OA
ATOM     22  H   UNL     1       7.893  -4.282  22.751  0.00  0.00    +0.210 HD
ENDBRANCH  18  21
BRANCH  19  23
ATOM     23  O   UNL     1       6.666  -5.684  21.072  0.00  0.00    -0.386 OA
ATOM     24  H   UNL     1       7.449  -5.907  21.613  0.00  0.00    +0.210 HD
ENDBRANCH  19  23
BRANCH  20  25
ATOM     25  O   UNL     1       5.137  -6.688  23.317  0.00  0.00    -0.384 OA
ATOM     26  H   UNL     1       4.539  -6.711  24.089  0.00  0.00    +0.210 HD
ENDBRANCH  20  25
BRANCH  17  27
ATOM     27  C   UNL     1       6.413  -1.188  22.996  0.00  0.00    +0.266 C 
BRANCH  27  28
ATOM     28  O   UNL     1       6.169  -0.634  24.300  0.00  0.00    -0.459 OA
BRANCH  28  29
ATOM     29  C   UNL     1       6.064   0.709  24.302  0.00  0.00    +0.332 C 
ATOM     30  O   UNL     1       5.055   1.364  24.495  0.00  0.00    -0.246 OA
BRANCH  29  31
ATOM     31  C   UNL     1       7.429   1.251  24.222  0.00  0.00    +0.092 C 
ATOM     32  C   UNL     1       7.571   2.555  23.948  0.00  0.00    +0.015 C 
BRANCH  32  33
ATOM     33  C   UNL     1       8.851   3.257  23.867  0.00  0.00    -0.025 A 
ATOM     34  C   UNL     1       8.868   4.623  24.178  0.00  0.00    +0.011 A 
ATOM     35  C   UNL     1      10.036   5.367  24.031  0.00  0.00    +0.046 A 
ATOM     36  C   UNL     1      11.191   4.736  23.596  0.00  0.00    +0.117 A 
ATOM     37  C   UNL     1      11.214   3.370  23.348  0.00  0.00    +0.046 A 
ATOM     38  C   UNL     1      10.045   2.630  23.490  0.00  0.00    +0.011 A 
BRANCH  36  39
ATOM     39  O   UNL     1      12.331   5.472  23.490  0.00  0.00    -0.507 OA
ATOM     40  H   UNL     1      12.693   5.290  22.604  0.00  0.00    +0.292 HD
ENDBRANCH  36  39
ENDBRANCH  32  33
ENDBRANCH  29  31
ENDBRANCH  28  29
ENDBRANCH  27  28
ENDBRANCH  17  27
ENDBRANCH  14  15
ENDBRANCH  13  14
ENDBRANCH   3  13
BRANCH   1  41
ATOM     41  O   UNL     1       5.406  -5.577  28.448  0.00  0.00    -0.453 OA
BRANCH  41  47
ATOM     42  C   UNL     1       3.084   0.474  28.192  0.00  0.00    +0.131 A 
ATOM     43  C   UNL     1       4.196  -0.146  27.598  0.00  0.00    +0.093 A 
ATOM     44  C   UNL     1       4.434  -1.511  27.804  0.00  0.00    +0.147 A 
ATOM     45  O   UNL     1       5.570  -2.066  27.261  0.00  0.00    -0.451 OA
ATOM     46  C   UNL     1       5.870  -3.414  27.498  0.00  0.00    +0.181 A 
ATOM     47  C   UNL     1       5.086  -4.226  28.256  0.00  0.00    +0.214 A 
ATOM     48  C   UNL     1       3.892  -3.606  28.918  0.00  0.00    +0.238 A 
ATOM     49  O   UNL     1       3.236  -4.147  29.801  0.00  0.00    -0.283 OA
ATOM     50  C   UNL     1       3.560  -2.224  28.604  0.00  0.00    +0.109 A 
ATOM     51  C   UNL     1       2.464  -1.591  29.223  0.00  0.00    +0.135 A 
ATOM     52  C   UNL     1       2.227  -0.252  29.011  0.00  0.00    +0.092 A 
BRANCH  46  53
ATOM     53  C   UNL     1       7.141  -3.869  26.821  0.00  0.00    +0.025 A 
ATOM     54  C   UNL     1       7.606  -5.186  27.032  0.00  0.00    +0.015 A 
ATOM     55  C   UNL     1       8.764  -5.674  26.407  0.00  0.00    +0.050 A 
ATOM     56  C   UNL     1       9.470  -4.856  25.545  0.00  0.00    +0.158 A 
ATOM     57  C   UNL     1       9.038  -3.560  25.298  0.00  0.00    +0.159 A 
ATOM     58  C   UNL     1       7.888  -3.071  25.925  0.00  0.00    +0.060 A 
BRANCH  57  59
ATOM     59  O   UNL     1       9.779  -2.808  24.427  0.00  0.00    -0.503 OA
ATOM     60  H   UNL     1      10.144  -2.041  24.899  0.00  0.00    +0.292 HD
ENDBRANCH  57  59
BRANCH  56  61
ATOM     61  O   UNL     1      10.588  -5.340  24.929  0.00  0.00    -0.503 OA
ATOM     62  H   UNL     1      11.097  -5.775  25.643  0.00  0.00    +0.292 HD
ENDBRANCH  56  61
ENDBRANCH  46  53
BRANCH  51  63
ATOM     63  O   UNL     1       1.647  -2.244  30.106  0.00  0.00    -0.506 OA
ATOM     64  H   UNL     1       2.047  -3.081  30.395  0.00  0.00    +0.292 HD
ENDBRANCH  51  63
BRANCH  42  65
ATOM     65  O   UNL     1       2.706   1.780  28.110  0.00  0.00    -0.461 OA
BRANCH  65  69
ATOM     66  C   UNL     1       6.397   3.784  27.252  0.00  0.00    +0.041 C 
ATOM     67  C   UNL     1       5.199   4.429  27.947  0.00  0.00    +0.150 C 
ATOM     68  O   UNL     1       4.328   3.415  28.464  0.00  0.00    -0.334 OA
ATOM     69  C   UNL     1       3.594   2.692  27.475  0.00  0.00    +0.339 C 
ATOM     70  C   UNL     1       2.693   3.656  26.685  0.00  0.00    +0.214 C 
ATOM     71  C   UNL     1       3.595   4.684  25.997  0.00  0.00    +0.180 C 
ATOM     72  C   UNL     1       4.446   5.426  27.045  0.00  0.00    +0.174 C 
BRANCH  70  73
ATOM     73  O   UNL     1       1.784   4.321  27.599  0.00  0.00    -0.383 OA
ATOM     74  H   UNL     1       0.892   3.979  27.387  0.00  0.00    +0.210 HD
ENDBRANCH  70  73
BRANCH  71  75
ATOM     75  O   UNL     1       2.828   5.577  25.187  0.00  0.00    -0.386 OA
ATOM     76  H   UNL     1       3.451   6.143  24.694  0.00  0.00    +0.210 HD
ENDBRANCH  71  75
BRANCH  72  77
ATOM     77  O   UNL     1       3.615   6.268  27.858  0.00  0.00    -0.387 OA
ATOM     78  H   UNL     1       2.914   6.629  27.271  0.00  0.00    +0.210 HD
ENDBRANCH  72  77
ENDBRANCH  65  69
ENDBRANCH  42  65
ENDBRANCH  41  47
ENDBRANCH   1  41
TORSDOF 26
ENDMDL
MODEL 9
REMARK VINA RESULT:      -4.3      2.246     10.290
REMARK  Name = 
REMARK  27 active torsions:
REMARK  status: ('A' for Active; 'I' for Inactive)
REMARK    1  A    between atoms: C_1  and  C_2
REMARK    2  A    between atoms: C_3  and  O_73
REMARK    3  A    between atoms: C_5  and  O_72
REMARK    4  A    between atoms: C_7  and  O_71
REMARK    5  A    between atoms: C_8  and  O_11
REMARK    6  A    between atoms: O_11  and  C_12
REMARK    7  A    between atoms: C_14  and  O_70
REMARK    8  A    between atoms: C_19  and  C_62
REMARK    9  A    between atoms: C_20  and  O_23
REMARK   10  A    between atoms: O_23  and  C_24
REMARK   11  A    between atoms: C_26  and  O_61
REMARK   12  A    between atoms: C_27  and  O_60
REMARK   13  A    between atoms: C_28  and  O_59
REMARK   14  A    between atoms: C_30  and  C_32
REMARK   15  A    between atoms: C_32  and  O_33
REMARK   16  A    between atoms: O_33  and  C_34
REMARK   17  A    between atoms: C_36  and  O_58
REMARK   18  A    between atoms: C_37  and  O_57
REMARK   19  A    between atoms: C_38  and  O_56
REMARK   20  A    between atoms: C_40  and  C_43
REMARK   21  A    between atoms: C_43  and  O_44
REMARK   22  A    between atoms: O_44  and  C_45
REMARK   23  A    between atoms: C_45  and  C_47
REMARK   24  A    between atoms: C_48  and  C_49
REMARK   25  A    between atoms: C_52  and  O_55
REMARK   26  A    between atoms: C_64  and  O_69
REMARK   27  A    between atoms: C_65  and  O_68
REMARK                            x       y       z     vdW  Elec       q    Type
REMARK                         _______ _______ _______ _____ _____    ______ ____
ROOT
ATOM      1  C   UNL     1       3.536  -2.772  27.887  0.00  0.00    +0.340 C 
ATOM      2  O   UNL     1       3.472  -4.120  27.437  0.00  0.00    -0.331 OA
ATOM      3  C   UNL     1       2.274  -4.866  27.597  0.00  0.00    +0.179 C 
ATOM      4  C   UNL     1       1.603  -4.636  28.958  0.00  0.00    +0.177 C 
ATOM      5  C   UNL     1       1.395  -3.144  29.183  0.00  0.00    +0.180 C 
ATOM      6  C   UNL     1       2.721  -2.399  29.138  0.00  0.00    +0.214 C 
ENDROOT
BRANCH   6   7
ATOM      7  O   UNL     1       2.451  -0.987  29.273  0.00  0.00    -0.383 OA
ATOM      8  H   UNL     1       2.639  -0.748  30.202  0.00  0.00    +0.210 HD
ENDBRANCH   6   7
BRANCH   4   9
ATOM      9  O   UNL     1       2.424  -5.128  30.031  0.00  0.00    -0.386 OA
ATOM     10  H   UNL     1       2.893  -4.341  30.375  0.00  0.00    +0.210 HD
ENDBRANCH   4   9
BRANCH   5  11
ATOM     11  O   UNL     1       0.793  -2.965  30.481  0.00  0.00    -0.386 OA
ATOM     12  H   UNL     1       1.427  -3.312  31.141  0.00  0.00    +0.210 HD
ENDBRANCH   5  11
BRANCH   3  13
ATOM     13  C   UNL     1       2.716  -6.328  27.410  0.00  0.00    +0.197 C 
BRANCH  13  14
ATOM     14  O   UNL     1       3.800  -6.491  26.486  0.00  0.00    -0.346 OA
BRANCH  14  15
ATOM     15  C   UNL     1       3.456  -7.500  25.513  0.00  0.00    +0.282 C 
ATOM     16  O   UNL     1       4.354  -7.531  24.408  0.00  0.00    -0.339 OA
ATOM     17  C   UNL     1       4.310  -6.362  23.568  0.00  0.00    +0.190 C 
ATOM     18  C   UNL     1       2.909  -6.091  23.017  0.00  0.00    +0.178 C 
ATOM     19  C   UNL     1       1.875  -6.077  24.141  0.00  0.00    +0.179 C 
ATOM     20  C   UNL     1       2.008  -7.323  25.026  0.00  0.00    +0.201 C 
BRANCH  18  21
ATOM     21  O   UNL     1       2.538  -7.102  22.067  0.00  0.00    -0.386 OA
ATOM     22  H   UNL     1       1.915  -7.683  22.549  0.00  0.00    +0.210 HD
ENDBRANCH  18  21
BRANCH  19  23
ATOM     23  O   UNL     1       0.572  -6.030  23.525  0.00  0.00    -0.386 OA
ATOM     24  H   UNL     1       0.095  -6.833  23.811  0.00  0.00    +0.210 HD
ENDBRANCH  19  23
BRANCH  20  25
ATOM     25  O   UNL     1       1.075  -7.230  26.112  0.00  0.00    -0.384 OA
ATOM     26  H   UNL     1       0.281  -7.726  25.835  0.00  0.00    +0.210 HD
ENDBRANCH  20  25
BRANCH  17  27
ATOM     27  C   UNL     1       5.309  -6.590  22.418  0.00  0.00    +0.266 C 
BRANCH  27  28
ATOM     28  O   UNL     1       6.331  -5.580  22.472  0.00  0.00    -0.459 OA
BRANCH  28  29
ATOM     29  C   UNL     1       6.247  -4.678  21.475  0.00  0.00    +0.332 C 
ATOM     30  O   UNL     1       5.837  -4.871  20.345  0.00  0.00    -0.246 OA
BRANCH  29  31
ATOM     31  C   UNL     1       6.559  -3.362  22.055  0.00  0.00    +0.092 C 
ATOM     32  C   UNL     1       7.810  -3.147  22.484  0.00  0.00    +0.015 C 
BRANCH  32  33
ATOM     33  C   UNL     1       8.293  -1.889  23.051  0.00  0.00    -0.025 A 
ATOM     34  C   UNL     1       9.505  -1.911  23.753  0.00  0.00    +0.011 A 
ATOM     35  C   UNL     1       9.973  -0.767  24.395  0.00  0.00    +0.046 A 
ATOM     36  C   UNL     1       9.237   0.404  24.311  0.00  0.00    +0.117 A 
ATOM     37  C   UNL     1       8.068   0.467  23.564  0.00  0.00    +0.046 A 
ATOM     38  C   UNL     1       7.600  -0.678  22.928  0.00  0.00    +0.011 A 
BRANCH  36  39
ATOM     39  O   UNL     1       9.724   1.522  24.916  0.00  0.00    -0.507 OA
ATOM     40  H   UNL     1       8.950   2.053  25.178  0.00  0.00    +0.292 HD
ENDBRANCH  36  39
ENDBRANCH  32  33
ENDBRANCH  29  31
ENDBRANCH  28  29
ENDBRANCH  27  28
ENDBRANCH  17  27
ENDBRANCH  14  15
ENDBRANCH  13  14
ENDBRANCH   3  13
BRANCH   1  41
ATOM     41  O   UNL     1       3.272  -1.855  26.815  0.00  0.00    -0.453 OA
BRANCH  41  47
ATOM     42  C   UNL     1       6.227   3.910  26.490  0.00  0.00    +0.131 A 
ATOM     43  C   UNL     1       6.686   2.593  26.321  0.00  0.00    +0.093 A 
ATOM     44  C   UNL     1       5.791   1.519  26.411  0.00  0.00    +0.147 A 
ATOM     45  O   UNL     1       6.291   0.241  26.307  0.00  0.00    -0.451 OA
ATOM     46  C   UNL     1       5.433  -0.858  26.453  0.00  0.00    +0.181 A 
ATOM     47  C   UNL     1       4.103  -0.732  26.702  0.00  0.00    +0.214 A 
ATOM     48  C   UNL     1       3.569   0.656  26.899  0.00  0.00    +0.238 A 
ATOM     49  O   UNL     1       2.458   0.908  27.351  0.00  0.00    -0.283 OA
ATOM     50  C   UNL     1       4.460   1.784  26.675  0.00  0.00    +0.109 A 
ATOM     51  C   UNL     1       4.011   3.104  26.875  0.00  0.00    +0.135 A 
ATOM     52  C   UNL     1       4.890   4.158  26.776  0.00  0.00    +0.092 A 
BRANCH  46  53
ATOM     53  C   UNL     1       6.135  -2.186  26.297  0.00  0.00    +0.025 A 
ATOM     54  C   UNL     1       5.528  -3.205  25.531  0.00  0.00    +0.015 A 
ATOM     55  C   UNL     1       6.146  -4.449  25.326  0.00  0.00    +0.050 A 
ATOM     56  C   UNL     1       7.392  -4.690  25.875  0.00  0.00    +0.158 A 
ATOM     57  C   UNL     1       8.030  -3.709  26.622  0.00  0.00    +0.159 A 
ATOM     58  C   UNL     1       7.413  -2.472  26.831  0.00  0.00    +0.060 A 
BRANCH  57  59
ATOM     59  O   UNL     1       9.266  -4.010  27.126  0.00  0.00    -0.503 OA
ATOM     60  H   UNL     1       9.239  -3.943  28.096  0.00  0.00    +0.292 HD
ENDBRANCH  57  59
BRANCH  56  61
ATOM     61  O   UNL     1       7.995  -5.896  25.661  0.00  0.00    -0.503 OA
ATOM     62  H   UNL     1       7.265  -6.547  25.694  0.00  0.00    +0.292 HD
ENDBRANCH  56  61
ENDBRANCH  46  53
BRANCH  51  63
ATOM     63  O   UNL     1       2.724   3.389  27.245  0.00  0.00    -0.506 OA
ATOM     64  H   UNL     1       2.160   2.601  27.177  0.00  0.00    +0.292 HD
ENDBRANCH  51  63
BRANCH  42  65
ATOM     65  O   UNL     1       6.951   5.064  26.446  0.00  0.00    -0.461 OA
BRANCH  65  69
ATOM     66  C   UNL     1       5.581   7.063  22.910  0.00  0.00    +0.041 C 
ATOM     67  C   UNL     1       6.234   5.682  22.930  0.00  0.00    +0.150 C 
ATOM     68  O   UNL     1       6.172   5.129  24.251  0.00  0.00    -0.334 OA
ATOM     69  C   UNL     1       7.037   5.750  25.204  0.00  0.00    +0.339 C 
ATOM     70  C   UNL     1       8.499   5.601  24.755  0.00  0.00    +0.214 C 
ATOM     71  C   UNL     1       8.649   6.301  23.401  0.00  0.00    +0.180 C 
ATOM     72  C   UNL     1       7.672   5.689  22.379  0.00  0.00    +0.174 C 
BRANCH  70  73
ATOM     73  O   UNL     1       8.821   4.192  24.627  0.00  0.00    -0.383 OA
ATOM     74  H   UNL     1       8.133   3.812  24.043  0.00  0.00    +0.210 HD
ENDBRANCH  70  73
BRANCH  71  75
ATOM     75  O   UNL     1      10.005   6.261  22.951  0.00  0.00    -0.386 OA
ATOM     76  H   UNL     1      10.250   7.159  22.661  0.00  0.00    +0.210 HD
ENDBRANCH  71  75
BRANCH  72  77
ATOM     77  O   UNL     1       8.064   4.347  22.056  0.00  0.00    -0.387 OA
ATOM     78  H   UNL     1       8.572   4.392  21.215  0.00  0.00    +0.210 HD
ENDBRANCH  72  77
ENDBRANCH  65  69
ENDBRANCH  42  65
ENDBRANCH  41  47
ENDBRANCH   1  41
TORSDOF 26
ENDMDL
