MODEL 1
REMARK VINA RESULT:      -7.7      0.000      0.000
REMARK  Name = 
REMARK  18 active torsions:
REMARK  status: ('A' for Active; 'I' for Inactive)
REMARK    1  A    between atoms: C_3  and  O_44
REMARK    2  A    between atoms: C_4  and  O_43
REMARK    3  A    between atoms: C_6  and  C_7
REMARK    4  A    between atoms: C_8  and  O_20
REMARK    5  A    between atoms: C_12  and  O_19
REMARK    6  A    between atoms: C_14  and  O_18
REMARK    7  A    between atoms: O_20  and  C_21
REMARK    8  A    between atoms: C_22  and  O_42
REMARK    9  A    between atoms: C_23  and  O_41
REMARK   10  A    between atoms: C_24  and  O_40
REMARK   11  A    between atoms: C_25  and  C_27
REMARK   12  A    between atoms: C_27  and  O_28
REMARK   13  A    between atoms: O_28  and  C_29
REMARK   14  A    between atoms: C_30  and  O_39
REMARK   15  A    between atoms: C_31  and  O_38
REMARK   16  A    between atoms: C_32  and  O_37
REMARK   17  A    between atoms: C_33  and  C_35
REMARK   18  A    between atoms: C_35  and  O_36
REMARK                            x       y       z     vdW  Elec       q    Type
REMARK                         _______ _______ _______ _____ _____    ______ ____
ROOT
ATOM      1  C   UNL     1       7.456   0.462  24.395  0.00  0.00    +0.340 C 
ATOM      2  O   UNL     1       8.263  -0.714  24.595  0.00  0.00    -0.331 OA
ATOM      3  C   UNL     1       9.566  -0.768  23.970  0.00  0.00    +0.179 C 
ATOM      4  C   UNL     1       9.799   0.070  22.679  0.00  0.00    +0.177 C 
ATOM      5  C   UNL     1       8.758   1.161  22.417  0.00  0.00    +0.180 C 
ATOM      6  C   UNL     1       7.388   0.659  22.872  0.00  0.00    +0.214 C 
ENDROOT
BRANCH   6   7
ATOM      7  O   UNL     1       6.311   1.470  22.419  0.00  0.00    -0.383 OA
ATOM      8  H   UNL     1       6.553   2.404  22.473  0.00  0.00    +0.210 HD
ENDBRANCH   6   7
BRANCH   5   9
ATOM      9  O   UNL     1       8.747   1.459  21.011  0.00  0.00    -0.386 OA
ATOM     10  H   UNL     1       9.658   1.342  20.684  0.00  0.00    +0.210 HD
ENDBRANCH   5   9
BRANCH   4  11
ATOM     11  O   UNL     1       9.888  -0.759  21.498  0.00  0.00    -0.386 OA
ATOM     12  H   UNL     1      10.022  -0.173  20.728  0.00  0.00    +0.210 HD
ENDBRANCH   4  11
BRANCH   3  13
ATOM     13  C   UNL     1       9.831  -2.266  23.698  0.00  0.00    +0.197 C 
BRANCH  13  14
ATOM     14  O   UNL     1       9.322  -3.077  24.761  0.00  0.00    -0.346 OA
BRANCH  14  15
ATOM     15  C   UNL     1       8.724  -4.285  24.265  0.00  0.00    +0.282 C 
ATOM     16  O   UNL     1       7.357  -4.069  23.895  0.00  0.00    -0.341 OA
ATOM     17  C   UNL     1       6.573  -3.544  24.986  0.00  0.00    +0.178 C 
ATOM     18  C   UNL     1       6.524  -4.596  26.101  0.00  0.00    +0.177 C 
ATOM     19  C   UNL     1       7.951  -4.946  26.559  0.00  0.00    +0.179 C 
ATOM     20  C   UNL     1       8.809  -5.377  25.355  0.00  0.00    +0.201 C 
BRANCH  20  21
ATOM     21  O   UNL     1      10.164  -5.626  25.746  0.00  0.00    -0.384 OA
ATOM     22  H   UNL     1      10.254  -6.588  25.860  0.00  0.00    +0.210 HD
ENDBRANCH  20  21
BRANCH  19  23
ATOM     23  O   UNL     1       7.888  -5.986  27.542  0.00  0.00    -0.386 OA
ATOM     24  H   UNL     1       7.898  -6.825  27.053  0.00  0.00    +0.210 HD
ENDBRANCH  19  23
BRANCH  18  25
ATOM     25  O   UNL     1       5.890  -5.801  25.632  0.00  0.00    -0.386 OA
ATOM     26  H   UNL     1       4.927  -5.634  25.599  0.00  0.00    +0.210 HD
ENDBRANCH  18  25
BRANCH  17  27
ATOM     27  C   UNL     1       5.184  -3.172  24.454  0.00  0.00    +0.190 C 
BRANCH  27  28
ATOM     28  O   UNL     1       4.783  -4.040  23.390  0.00  0.00    -0.392 OA
ATOM     29  H   UNL     1       5.504  -4.093  22.739  0.00  0.00    +0.210 HD
ENDBRANCH  27  28
ENDBRANCH  17  27
ENDBRANCH  14  15
ENDBRANCH  13  14
ENDBRANCH   3  13
BRANCH   1  30
ATOM     30  O   UNL     1       7.992   1.551  25.177  0.00  0.00    -0.453 OA
BRANCH  30  41
ATOM     31  C   UNL     1       6.621   3.490  25.811  0.00  0.00    +0.181 A 
ATOM     32  O   UNL     1       5.614   4.016  26.641  0.00  0.00    -0.451 OA
ATOM     33  C   UNL     1       4.992   3.260  27.568  0.00  0.00    +0.147 A 
ATOM     34  C   UNL     1       5.497   2.038  27.984  0.00  0.00    +0.109 A 
ATOM     35  C   UNL     1       4.860   1.348  29.030  0.00  0.00    +0.135 A 
ATOM     36  C   UNL     1       3.710   1.864  29.630  0.00  0.00    +0.091 A 
ATOM     37  C   UNL     1       3.185   3.077  29.174  0.00  0.00    +0.124 A 
ATOM     38  C   UNL     1       6.683   1.531  27.272  0.00  0.00    +0.238 A 
ATOM     39  O   UNL     1       7.180   0.475  27.645  0.00  0.00    -0.283 OA
ATOM     40  C   UNL     1       3.818   3.772  28.148  0.00  0.00    +0.092 A 
ATOM     41  C   UNL     1       7.212   2.288  26.066  0.00  0.00    +0.214 A 
BRANCH  31  43
ATOM     42  C   UNL     1       5.683   4.783  23.858  0.00  0.00    +0.015 A 
ATOM     43  C   UNL     1       6.814   4.425  24.644  0.00  0.00    +0.025 A 
ATOM     44  C   UNL     1       8.037   4.971  24.239  0.00  0.00    +0.060 A 
ATOM     45  C   UNL     1       8.124   5.762  23.093  0.00  0.00    +0.159 A 
ATOM     46  C   UNL     1       7.018   6.005  22.293  0.00  0.00    +0.158 A 
ATOM     47  C   UNL     1       5.778   5.541  22.685  0.00  0.00    +0.050 A 
BRANCH  46  48
ATOM     48  O   UNL     1       7.200   6.682  21.124  0.00  0.00    -0.503 OA
ATOM     49  H   UNL     1       6.332   6.769  20.693  0.00  0.00    +0.292 HD
ENDBRANCH  46  48
BRANCH  45  50
ATOM     50  O   UNL     1       9.338   6.284  22.742  0.00  0.00    -0.503 OA
ATOM     51  H   UNL     1       9.932   6.042  23.482  0.00  0.00    +0.292 HD
ENDBRANCH  45  50
ENDBRANCH  31  43
BRANCH  37  52
ATOM     52  O   UNL     1       2.064   3.614  29.722  0.00  0.00    -0.507 OA
ATOM     53  H   UNL     1       1.283   3.174  29.340  0.00  0.00    +0.292 HD
ENDBRANCH  37  52
BRANCH  35  54
ATOM     54  O   UNL     1       5.297   0.162  29.517  0.00  0.00    -0.506 OA
ATOM     55  H   UNL     1       4.992   0.079  30.456  0.00  0.00    +0.292 HD
ENDBRANCH  35  54
ENDBRANCH  30  41
ENDBRANCH   1  30
TORSDOF 18
ENDMDL
MODEL 2
REMARK VINA RESULT:      -7.6      2.220      3.077
REMARK  Name = 
REMARK  18 active torsions:
REMARK  status: ('A' for Active; 'I' for Inactive)
REMARK    1  A    between atoms: C_3  and  O_44
REMARK    2  A    between atoms: C_4  and  O_43
REMARK    3  A    between atoms: C_6  and  C_7
REMARK    4  A    between atoms: C_8  and  O_20
REMARK    5  A    between atoms: C_12  and  O_19
REMARK    6  A    between atoms: C_14  and  O_18
REMARK    7  A    between atoms: O_20  and  C_21
REMARK    8  A    between atoms: C_22  and  O_42
REMARK    9  A    between atoms: C_23  and  O_41
REMARK   10  A    between atoms: C_24  and  O_40
REMARK   11  A    between atoms: C_25  and  C_27
REMARK   12  A    between atoms: C_27  and  O_28
REMARK   13  A    between atoms: O_28  and  C_29
REMARK   14  A    between atoms: C_30  and  O_39
REMARK   15  A    between atoms: C_31  and  O_38
REMARK   16  A    between atoms: C_32  and  O_37
REMARK   17  A    between atoms: C_33  and  C_35
REMARK   18  A    between atoms: C_35  and  O_36
REMARK                            x       y       z     vdW  Elec       q    Type
REMARK                         _______ _______ _______ _____ _____    ______ ____
ROOT
ATOM      1  C   UNL     1       7.582   0.542  24.255  0.00  0.00    +0.340 C 
ATOM      2  O   UNL     1       8.460  -0.563  24.541  0.00  0.00    -0.331 OA
ATOM      3  C   UNL     1       9.741  -0.616  23.871  0.00  0.00    +0.179 C 
ATOM      4  C   UNL     1       9.880   0.093  22.491  0.00  0.00    +0.177 C 
ATOM      5  C   UNL     1       8.771   1.095  22.162  0.00  0.00    +0.180 C 
ATOM      6  C   UNL     1       7.448   0.574  22.723  0.00  0.00    +0.214 C 
ENDROOT
BRANCH   6   7
ATOM      7  O   UNL     1       6.313   1.276  22.234  0.00  0.00    -0.383 OA
ATOM      8  H   UNL     1       6.332   1.308  21.268  0.00  0.00    +0.210 HD
ENDBRANCH   6   7
BRANCH   5   9
ATOM      9  O   UNL     1       8.693   1.242  20.735  0.00  0.00    -0.386 OA
ATOM     10  H   UNL     1       8.241   0.451  20.388  0.00  0.00    +0.210 HD
ENDBRANCH   5   9
BRANCH   4  11
ATOM     11  O   UNL     1       9.973  -0.850  21.400  0.00  0.00    -0.386 OA
ATOM     12  H   UNL     1      10.913  -1.092  21.290  0.00  0.00    +0.210 HD
ENDBRANCH   4  11
BRANCH   3  13
ATOM     13  C   UNL     1      10.079  -2.118  23.744  0.00  0.00    +0.197 C 
BRANCH  13  14
ATOM     14  O   UNL     1       9.378  -2.886  24.727  0.00  0.00    -0.346 OA
BRANCH  14  15
ATOM     15  C   UNL     1       8.693  -4.001  24.139  0.00  0.00    +0.282 C 
ATOM     16  O   UNL     1       7.322  -3.683  23.874  0.00  0.00    -0.341 OA
ATOM     17  C   UNL     1       6.625  -3.248  25.060  0.00  0.00    +0.178 C 
ATOM     18  C   UNL     1       6.579  -4.413  26.055  0.00  0.00    +0.177 C 
ATOM     19  C   UNL     1       8.008  -4.878  26.388  0.00  0.00    +0.179 C 
ATOM     20  C   UNL     1       8.778  -5.211  25.097  0.00  0.00    +0.201 C 
BRANCH  20  21
ATOM     21  O   UNL     1      10.137  -5.565  25.379  0.00  0.00    -0.384 OA
ATOM     22  H   UNL     1      10.605  -4.740  25.595  0.00  0.00    +0.210 HD
ENDBRANCH  20  21
BRANCH  19  23
ATOM     23  O   UNL     1       7.943  -6.017  27.254  0.00  0.00    -0.386 OA
ATOM     24  H   UNL     1       8.861  -6.270  27.442  0.00  0.00    +0.210 HD
ENDBRANCH  19  23
BRANCH  18  25
ATOM     25  O   UNL     1       5.859  -5.529  25.495  0.00  0.00    -0.386 OA
ATOM     26  H   UNL     1       4.961  -5.215  25.269  0.00  0.00    +0.210 HD
ENDBRANCH  18  25
BRANCH  17  27
ATOM     27  C   UNL     1       5.231  -2.755  24.652  0.00  0.00    +0.190 C 
BRANCH  27  28
ATOM     28  O   UNL     1       4.935  -1.484  25.235  0.00  0.00    -0.392 OA
ATOM     29  H   UNL     1       5.742  -0.941  25.231  0.00  0.00    +0.210 HD
ENDBRANCH  27  28
ENDBRANCH  17  27
ENDBRANCH  14  15
ENDBRANCH  13  14
ENDBRANCH   3  13
BRANCH   1  30
ATOM     30  O   UNL     1       8.085   1.733  24.896  0.00  0.00    -0.453 OA
BRANCH  30  41
ATOM     31  C   UNL     1       7.732   4.165  24.818  0.00  0.00    +0.181 A 
ATOM     32  O   UNL     1       6.826   5.233  24.692  0.00  0.00    -0.451 OA
ATOM     33  C   UNL     1       5.504   5.025  24.518  0.00  0.00    +0.147 A 
ATOM     34  C   UNL     1       4.912   3.797  24.762  0.00  0.00    +0.109 A 
ATOM     35  C   UNL     1       3.515   3.673  24.666  0.00  0.00    +0.135 A 
ATOM     36  C   UNL     1       2.725   4.762  24.296  0.00  0.00    +0.091 A 
ATOM     37  C   UNL     1       3.338   5.986  24.010  0.00  0.00    +0.124 A 
ATOM     38  C   UNL     1       5.812   2.679  25.098  0.00  0.00    +0.238 A 
ATOM     39  O   UNL     1       5.315   1.590  25.363  0.00  0.00    -0.283 OA
ATOM     40  C   UNL     1       4.719   6.120  24.116  0.00  0.00    +0.092 A 
ATOM     41  C   UNL     1       7.315   2.885  25.042  0.00  0.00    +0.214 A 
BRANCH  31  43
ATOM     42  C   UNL     1       9.529   5.882  25.252  0.00  0.00    +0.015 A 
ATOM     43  C   UNL     1       9.126   4.691  24.584  0.00  0.00    +0.025 A 
ATOM     44  C   UNL     1      10.076   4.114  23.735  0.00  0.00    +0.060 A 
ATOM     45  C   UNL     1      11.312   4.726  23.523  0.00  0.00    +0.159 A 
ATOM     46  C   UNL     1      11.631   5.940  24.110  0.00  0.00    +0.158 A 
ATOM     47  C   UNL     1      10.752   6.517  25.005  0.00  0.00    +0.050 A 
BRANCH  46  48
ATOM     48  O   UNL     1      12.806   6.540  23.762  0.00  0.00    -0.503 OA
ATOM     49  H   UNL     1      12.668   7.502  23.795  0.00  0.00    +0.292 HD
ENDBRANCH  46  48
BRANCH  45  50
ATOM     50  O   UNL     1      12.215   4.119  22.693  0.00  0.00    -0.503 OA
ATOM     51  H   UNL     1      11.802   4.165  21.807  0.00  0.00    +0.292 HD
ENDBRANCH  45  50
ENDBRANCH  31  43
BRANCH  37  52
ATOM     52  O   UNL     1       2.611   7.073  23.639  0.00  0.00    -0.507 OA
ATOM     53  H   UNL     1       2.702   7.201  22.677  0.00  0.00    +0.292 HD
ENDBRANCH  37  52
BRANCH  35  54
ATOM     54  O   UNL     1       2.849   2.519  24.911  0.00  0.00    -0.506 OA
ATOM     55  H   UNL     1       2.806   2.386  25.892  0.00  0.00    +0.292 HD
ENDBRANCH  35  54
ENDBRANCH  30  41
ENDBRANCH   1  30
TORSDOF 18
ENDMDL
MODEL 3
REMARK VINA RESULT:      -7.4      2.330      8.108
REMARK  Name = 
REMARK  18 active torsions:
REMARK  status: ('A' for Active; 'I' for Inactive)
REMARK    1  A    between atoms: C_3  and  O_44
REMARK    2  A    between atoms: C_4  and  O_43
REMARK    3  A    between atoms: C_6  and  C_7
REMARK    4  A    between atoms: C_8  and  O_20
REMARK    5  A    between atoms: C_12  and  O_19
REMARK    6  A    between atoms: C_14  and  O_18
REMARK    7  A    between atoms: O_20  and  C_21
REMARK    8  A    between atoms: C_22  and  O_42
REMARK    9  A    between atoms: C_23  and  O_41
REMARK   10  A    between atoms: C_24  and  O_40
REMARK   11  A    between atoms: C_25  and  C_27
REMARK   12  A    between atoms: C_27  and  O_28
REMARK   13  A    between atoms: O_28  and  C_29
REMARK   14  A    between atoms: C_30  and  O_39
REMARK   15  A    between atoms: C_31  and  O_38
REMARK   16  A    between atoms: C_32  and  O_37
REMARK   17  A    between atoms: C_33  and  C_35
REMARK   18  A    between atoms: C_35  and  O_36
REMARK                            x       y       z     vdW  Elec       q    Type
REMARK                         _______ _______ _______ _____ _____    ______ ____
ROOT
ATOM      1  C   UNL     1       5.159   1.009  25.922  0.00  0.00    +0.340 C 
ATOM      2  O   UNL     1       6.045   2.127  26.120  0.00  0.00    -0.331 OA
ATOM      3  C   UNL     1       6.576   2.357  27.445  0.00  0.00    +0.179 C 
ATOM      4  C   UNL     1       5.756   1.844  28.666  0.00  0.00    +0.177 C 
ATOM      5  C   UNL     1       4.671   0.817  28.335  0.00  0.00    +0.180 C 
ATOM      6  C   UNL     1       4.055   1.166  26.980  0.00  0.00    +0.214 C 
ENDROOT
BRANCH   6   7
ATOM      7  O   UNL     1       2.854   0.455  26.707  0.00  0.00    -0.383 OA
ATOM      8  H   UNL     1       2.114   0.859  27.181  0.00  0.00    +0.210 HD
ENDBRANCH   6   7
BRANCH   5   9
ATOM      9  O   UNL     1       3.675   0.852  29.369  0.00  0.00    -0.386 OA
ATOM     10  H   UNL     1       4.112   1.169  30.181  0.00  0.00    +0.210 HD
ENDBRANCH   5   9
BRANCH   4  11
ATOM     11  O   UNL     1       5.143   2.925  29.404  0.00  0.00    -0.386 OA
ATOM     12  H   UNL     1       4.194   2.718  29.508  0.00  0.00    +0.210 HD
ENDBRANCH   4  11
BRANCH   3  13
ATOM     13  C   UNL     1       6.797   3.883  27.543  0.00  0.00    +0.197 C 
BRANCH  13  14
ATOM     14  O   UNL     1       7.866   4.301  26.690  0.00  0.00    -0.346 OA
BRANCH  14  15
ATOM     15  C   UNL     1       7.549   5.519  26.000  0.00  0.00    +0.282 C 
ATOM     16  O   UNL     1       6.821   5.255  24.795  0.00  0.00    -0.341 OA
ATOM     17  C   UNL     1       7.533   4.362  23.914  0.00  0.00    +0.178 C 
ATOM     18  C   UNL     1       8.824   5.053  23.457  0.00  0.00    +0.177 C 
ATOM     19  C   UNL     1       9.680   5.429  24.680  0.00  0.00    +0.179 C 
ATOM     20  C   UNL     1       8.857   6.272  25.671  0.00  0.00    +0.201 C 
BRANCH  20  21
ATOM     21  O   UNL     1       9.609   6.562  26.856  0.00  0.00    -0.384 OA
ATOM     22  H   UNL     1       9.287   7.415  27.194  0.00  0.00    +0.210 HD
ENDBRANCH  20  21
BRANCH  19  23
ATOM     23  O   UNL     1      10.841   6.144  24.239  0.00  0.00    -0.386 OA
ATOM     24  H   UNL     1      10.878   6.957  24.769  0.00  0.00    +0.210 HD
ENDBRANCH  19  23
BRANCH  18  25
ATOM     25  O   UNL     1       8.521   6.258  22.728  0.00  0.00    -0.386 OA
ATOM     26  H   UNL     1       7.548   6.326  22.663  0.00  0.00    +0.210 HD
ENDBRANCH  18  25
BRANCH  17  27
ATOM     27  C   UNL     1       6.610   3.990  22.747  0.00  0.00    +0.190 C 
BRANCH  27  28
ATOM     28  O   UNL     1       7.320   3.969  21.506  0.00  0.00    -0.392 OA
ATOM     29  H   UNL     1       6.680   4.032  20.776  0.00  0.00    +0.210 HD
ENDBRANCH  27  28
ENDBRANCH  17  27
ENDBRANCH  14  15
ENDBRANCH  13  14
ENDBRANCH   3  13
BRANCH   1  30
ATOM     30  O   UNL     1       5.920  -0.217  25.942  0.00  0.00    -0.453 OA
BRANCH  30  41
ATOM     31  C   UNL     1       7.009  -1.163  23.951  0.00  0.00    +0.181 A 
ATOM     32  O   UNL     1       7.137  -2.248  23.066  0.00  0.00    -0.451 OA
ATOM     33  C   UNL     1       6.421  -3.380  23.225  0.00  0.00    +0.147 A 
ATOM     34  C   UNL     1       5.311  -3.442  24.053  0.00  0.00    +0.109 A 
ATOM     35  C   UNL     1       4.545  -4.620  24.093  0.00  0.00    +0.135 A 
ATOM     36  C   UNL     1       4.909  -5.735  23.336  0.00  0.00    +0.091 A 
ATOM     37  C   UNL     1       6.055  -5.676  22.538  0.00  0.00    +0.124 A 
ATOM     38  C   UNL     1       5.017  -2.246  24.861  0.00  0.00    +0.238 A 
ATOM     39  O   UNL     1       4.016  -2.253  25.569  0.00  0.00    -0.283 OA
ATOM     40  C   UNL     1       6.810  -4.509  22.482  0.00  0.00    +0.092 A 
ATOM     41  C   UNL     1       5.984  -1.076  24.847  0.00  0.00    +0.214 A 
BRANCH  31  43
ATOM     42  C   UNL     1       9.172  -0.176  24.798  0.00  0.00    +0.015 A 
ATOM     43  C   UNL     1       8.197  -0.252  23.764  0.00  0.00    +0.025 A 
ATOM     44  C   UNL     1       8.425   0.560  22.648  0.00  0.00    +0.060 A 
ATOM     45  C   UNL     1       9.514   1.431  22.606  0.00  0.00    +0.159 A 
ATOM     46  C   UNL     1      10.386   1.554  23.677  0.00  0.00    +0.158 A 
ATOM     47  C   UNL     1      10.240   0.728  24.774  0.00  0.00    +0.050 A 
BRANCH  46  48
ATOM     48  O   UNL     1      11.355   2.512  23.617  0.00  0.00    -0.503 OA
ATOM     49  H   UNL     1      11.015   3.306  24.066  0.00  0.00    +0.292 HD
ENDBRANCH  46  48
BRANCH  45  50
ATOM     50  O   UNL     1       9.704   2.197  21.489  0.00  0.00    -0.503 OA
ATOM     51  H   UNL     1       9.639   3.120  21.811  0.00  0.00    +0.292 HD
ENDBRANCH  45  50
ENDBRANCH  31  43
BRANCH  37  52
ATOM     52  O   UNL     1       6.452  -6.738  21.789  0.00  0.00    -0.507 OA
ATOM     53  H   UNL     1       5.663  -7.222  21.482  0.00  0.00    +0.292 HD
ENDBRANCH  37  52
BRANCH  35  54
ATOM     54  O   UNL     1       3.432  -4.761  24.852  0.00  0.00    -0.506 OA
ATOM     55  H   UNL     1       3.697  -4.709  25.806  0.00  0.00    +0.292 HD
ENDBRANCH  35  54
ENDBRANCH  30  41
ENDBRANCH   1  30
TORSDOF 18
ENDMDL
MODEL 4
REMARK VINA RESULT:      -7.4      2.418      6.650
REMARK  Name = 
REMARK  18 active torsions:
REMARK  status: ('A' for Active; 'I' for Inactive)
REMARK    1  A    between atoms: C_3  and  O_44
REMARK    2  A    between atoms: C_4  and  O_43
REMARK    3  A    between atoms: C_6  and  C_7
REMARK    4  A    between atoms: C_8  and  O_20
REMARK    5  A    between atoms: C_12  and  O_19
REMARK    6  A    between atoms: C_14  and  O_18
REMARK    7  A    between atoms: O_20  and  C_21
REMARK    8  A    between atoms: C_22  and  O_42
REMARK    9  A    between atoms: C_23  and  O_41
REMARK   10  A    between atoms: C_24  and  O_40
REMARK   11  A    between atoms: C_25  and  C_27
REMARK   12  A    between atoms: C_27  and  O_28
REMARK   13  A    between atoms: O_28  and  C_29
REMARK   14  A    between atoms: C_30  and  O_39
REMARK   15  A    between atoms: C_31  and  O_38
REMARK   16  A    between atoms: C_32  and  O_37
REMARK   17  A    between atoms: C_33  and  C_35
REMARK   18  A    between atoms: C_35  and  O_36
REMARK                            x       y       z     vdW  Elec       q    Type
REMARK                         _______ _______ _______ _____ _____    ______ ____
ROOT
ATOM      1  C   UNL     1       5.855   0.085  27.398  0.00  0.00    +0.340 C 
ATOM      2  O   UNL     1       6.065  -1.335  27.517  0.00  0.00    -0.331 OA
ATOM      3  C   UNL     1       5.126  -2.225  26.871  0.00  0.00    +0.179 C 
ATOM      4  C   UNL     1       3.674  -1.716  26.629  0.00  0.00    +0.177 C 
ATOM      5  C   UNL     1       3.490  -0.201  26.747  0.00  0.00    +0.180 C 
ATOM      6  C   UNL     1       4.406   0.326  27.852  0.00  0.00    +0.214 C 
ENDROOT
BRANCH   6   7
ATOM      7  O   UNL     1       4.112   1.662  28.238  0.00  0.00    -0.383 OA
ATOM      8  H   UNL     1       4.865   2.044  28.710  0.00  0.00    +0.210 HD
ENDBRANCH   6   7
BRANCH   5   9
ATOM      9  O   UNL     1       2.115   0.073  27.056  0.00  0.00    -0.386 OA
ATOM     10  H   UNL     1       1.576  -0.310  26.340  0.00  0.00    +0.210 HD
ENDBRANCH   5   9
BRANCH   4  11
ATOM     11  O   UNL     1       2.719  -2.354  27.506  0.00  0.00    -0.386 OA
ATOM     12  H   UNL     1       2.506  -1.729  28.226  0.00  0.00    +0.210 HD
ENDBRANCH   4  11
BRANCH   3  13
ATOM     13  C   UNL     1       5.113  -3.508  27.733  0.00  0.00    +0.197 C 
BRANCH  13  14
ATOM     14  O   UNL     1       4.462  -4.581  27.045  0.00  0.00    -0.346 OA
BRANCH  14  15
ATOM     15  C   UNL     1       5.409  -5.479  26.449  0.00  0.00    +0.282 C 
ATOM     16  O   UNL     1       5.682  -5.115  25.091  0.00  0.00    -0.341 OA
ATOM     17  C   UNL     1       4.482  -5.063  24.291  0.00  0.00    +0.178 C 
ATOM     18  C   UNL     1       3.884  -6.472  24.214  0.00  0.00    +0.177 C 
ATOM     19  C   UNL     1       3.585  -6.995  25.630  0.00  0.00    +0.179 C 
ATOM     20  C   UNL     1       4.848  -6.918  26.507  0.00  0.00    +0.201 C 
BRANCH  20  21
ATOM     21  O   UNL     1       4.571  -7.321  27.854  0.00  0.00    -0.384 OA
ATOM     22  H   UNL     1       5.410  -7.638  28.232  0.00  0.00    +0.210 HD
ENDBRANCH  20  21
BRANCH  19  23
ATOM     23  O   UNL     1       3.103  -8.342  25.543  0.00  0.00    -0.386 OA
ATOM     24  H   UNL     1       3.335  -8.657  24.654  0.00  0.00    +0.210 HD
ENDBRANCH  19  23
BRANCH  18  25
ATOM     25  O   UNL     1       4.807  -7.379  23.580  0.00  0.00    -0.386 OA
ATOM     26  H   UNL     1       4.425  -7.631  22.716  0.00  0.00    +0.210 HD
ENDBRANCH  18  25
BRANCH  17  27
ATOM     27  C   UNL     1       4.840  -4.490  22.913  0.00  0.00    +0.190 C 
BRANCH  27  28
ATOM     28  O   UNL     1       5.922  -5.209  22.314  0.00  0.00    -0.392 OA
ATOM     29  H   UNL     1       6.744  -4.707  22.446  0.00  0.00    +0.210 HD
ENDBRANCH  27  28
ENDBRANCH  17  27
ENDBRANCH  14  15
ENDBRANCH  13  14
ENDBRANCH   3  13
BRANCH   1  30
ATOM     30  O   UNL     1       6.207   0.512  26.065  0.00  0.00    -0.453 OA
BRANCH  30  41
ATOM     31  C   UNL     1       8.481   0.319  25.149  0.00  0.00    +0.181 A 
ATOM     32  O   UNL     1       9.599   0.966  24.593  0.00  0.00    -0.451 OA
ATOM     33  C   UNL     1       9.616   2.298  24.381  0.00  0.00    +0.147 A 
ATOM     34  C   UNL     1       8.693   3.149  24.967  0.00  0.00    +0.109 A 
ATOM     35  C   UNL     1       8.829   4.538  24.793  0.00  0.00    +0.135 A 
ATOM     36  C   UNL     1       9.859   5.063  24.012  0.00  0.00    +0.091 A 
ATOM     37  C   UNL     1      10.759   4.191  23.391  0.00  0.00    +0.124 A 
ATOM     38  C   UNL     1       7.603   2.523  25.735  0.00  0.00    +0.238 A 
ATOM     39  O   UNL     1       6.797   3.252  26.303  0.00  0.00    -0.283 OA
ATOM     40  C   UNL     1      10.640   2.817  23.569  0.00  0.00    +0.092 A 
ATOM     41  C   UNL     1       7.469   1.011  25.748  0.00  0.00    +0.214 A 
BRANCH  31  43
ATOM     42  C   UNL     1       8.540  -1.617  23.532  0.00  0.00    +0.015 A 
ATOM     43  C   UNL     1       8.601  -1.160  24.879  0.00  0.00    +0.025 A 
ATOM     44  C   UNL     1       8.751  -2.151  25.855  0.00  0.00    +0.060 A 
ATOM     45  C   UNL     1       8.770  -3.502  25.507  0.00  0.00    +0.159 A 
ATOM     46  C   UNL     1       8.604  -3.916  24.194  0.00  0.00    +0.158 A 
ATOM     47  C   UNL     1       8.517  -2.974  23.188  0.00  0.00    +0.050 A 
BRANCH  46  48
ATOM     48  O   UNL     1       8.510  -5.253  23.943  0.00  0.00    -0.503 OA
ATOM     49  H   UNL     1       9.124  -5.462  23.219  0.00  0.00    +0.292 HD
ENDBRANCH  46  48
BRANCH  45  50
ATOM     50  O   UNL     1       8.931  -4.435  26.494  0.00  0.00    -0.503 OA
ATOM     51  H   UNL     1       9.799  -4.845  26.305  0.00  0.00    +0.292 HD
ENDBRANCH  45  50
ENDBRANCH  31  43
BRANCH  37  52
ATOM     52  O   UNL     1      11.774   4.656  22.615  0.00  0.00    -0.507 OA
ATOM     53  H   UNL     1      12.358   5.214  23.160  0.00  0.00    +0.292 HD
ENDBRANCH  37  52
BRANCH  35  54
ATOM     54  O   UNL     1       7.990   5.445  25.348  0.00  0.00    -0.506 OA
ATOM     55  H   UNL     1       7.816   5.176  26.286  0.00  0.00    +0.292 HD
ENDBRANCH  35  54
ENDBRANCH  30  41
ENDBRANCH   1  30
TORSDOF 18
ENDMDL
MODEL 5
REMARK VINA RESULT:      -7.3      2.359      8.344
REMARK  Name = 
REMARK  18 active torsions:
REMARK  status: ('A' for Active; 'I' for Inactive)
REMARK    1  A    between atoms: C_3  and  O_44
REMARK    2  A    between atoms: C_4  and  O_43
REMARK    3  A    between atoms: C_6  and  C_7
REMARK    4  A    between atoms: C_8  and  O_20
REMARK    5  A    between atoms: C_12  and  O_19
REMARK    6  A    between atoms: C_14  and  O_18
REMARK    7  A    between atoms: O_20  and  C_21
REMARK    8  A    between atoms: C_22  and  O_42
REMARK    9  A    between atoms: C_23  and  O_41
REMARK   10  A    between atoms: C_24  and  O_40
REMARK   11  A    between atoms: C_25  and  C_27
REMARK   12  A    between atoms: C_27  and  O_28
REMARK   13  A    between atoms: O_28  and  C_29
REMARK   14  A    between atoms: C_30  and  O_39
REMARK   15  A    between atoms: C_31  and  O_38
REMARK   16  A    between atoms: C_32  and  O_37
REMARK   17  A    between atoms: C_33  and  C_35
REMARK   18  A    between atoms: C_35  and  O_36
REMARK                            x       y       z     vdW  Elec       q    Type
REMARK                         _______ _______ _______ _____ _____    ______ ____
ROOT
ATOM      1  C   UNL     1       5.247   0.027  25.238  0.00  0.00    +0.340 C 
ATOM      2  O   UNL     1       6.557   0.416  24.784  0.00  0.00    -0.331 OA
ATOM      3  C   UNL     1       7.568   0.716  25.775  0.00  0.00    +0.179 C 
ATOM      4  C   UNL     1       7.101   1.208  27.176  0.00  0.00    +0.177 C 
ATOM      5  C   UNL     1       5.625   0.958  27.494  0.00  0.00    +0.180 C 
ATOM      6  C   UNL     1       4.806   1.130  26.214  0.00  0.00    +0.214 C 
ENDROOT
BRANCH   6   7
ATOM      7  O   UNL     1       3.406   1.203  26.446  0.00  0.00    -0.383 OA
ATOM      8  H   UNL     1       3.233   1.540  27.335  0.00  0.00    +0.210 HD
ENDBRANCH   6   7
BRANCH   5   9
ATOM      9  O   UNL     1       5.204   1.899  28.494  0.00  0.00    -0.386 OA
ATOM     10  H   UNL     1       4.621   1.422  29.112  0.00  0.00    +0.210 HD
ENDBRANCH   5   9
BRANCH   4  11
ATOM     11  O   UNL     1       7.374   2.612  27.381  0.00  0.00    -0.386 OA
ATOM     12  H   UNL     1       6.626   3.121  27.012  0.00  0.00    +0.210 HD
ENDBRANCH   4  11
BRANCH   3  13
ATOM     13  C   UNL     1       8.495   1.761  25.115  0.00  0.00    +0.197 C 
BRANCH  13  14
ATOM     14  O   UNL     1       7.737   2.833  24.546  0.00  0.00    -0.346 OA
BRANCH  14  15
ATOM     15  C   UNL     1       8.058   3.032  23.161  0.00  0.00    +0.282 C 
ATOM     16  O   UNL     1       8.967   4.126  22.995  0.00  0.00    -0.341 OA
ATOM     17  C   UNL     1       8.455   5.350  23.562  0.00  0.00    +0.178 C 
ATOM     18  C   UNL     1       7.194   5.757  22.789  0.00  0.00    +0.177 C 
ATOM     19  C   UNL     1       6.148   4.630  22.859  0.00  0.00    +0.179 C 
ATOM     20  C   UNL     1       6.756   3.303  22.373  0.00  0.00    +0.201 C 
BRANCH  20  21
ATOM     21  O   UNL     1       5.824   2.223  22.509  0.00  0.00    -0.384 OA
ATOM     22  H   UNL     1       5.199   2.476  23.210  0.00  0.00    +0.210 HD
ENDBRANCH  20  21
BRANCH  19  23
ATOM     23  O   UNL     1       5.011   4.994  22.066  0.00  0.00    -0.386 OA
ATOM     24  H   UNL     1       4.553   4.166  21.851  0.00  0.00    +0.210 HD
ENDBRANCH  19  23
BRANCH  18  25
ATOM     25  O   UNL     1       7.507   6.000  21.404  0.00  0.00    -0.386 OA
ATOM     26  H   UNL     1       8.453   5.789  21.275  0.00  0.00    +0.210 HD
ENDBRANCH  18  25
BRANCH  17  27
ATOM     27  C   UNL     1       9.559   6.413  23.505  0.00  0.00    +0.190 C 
BRANCH  27  28
ATOM     28  O   UNL     1      10.785   5.865  23.012  0.00  0.00    -0.392 OA
ATOM     29  H   UNL     1      11.136   5.239  23.667  0.00  0.00    +0.210 HD
ENDBRANCH  27  28
ENDBRANCH  17  27
ENDBRANCH  14  15
ENDBRANCH  13  14
ENDBRANCH   3  13
BRANCH   1  30
ATOM     30  O   UNL     1       5.296  -1.322  25.748  0.00  0.00    -0.453 OA
BRANCH  30  41
ATOM     31  C   UNL     1       5.699  -3.173  24.181  0.00  0.00    +0.181 A 
ATOM     32  O   UNL     1       5.299  -4.432  23.697  0.00  0.00    -0.451 OA
ATOM     33  C   UNL     1       4.235  -5.083  24.209  0.00  0.00    +0.147 A 
ATOM     34  C   UNL     1       3.293  -4.448  25.002  0.00  0.00    +0.109 A 
ATOM     35  C   UNL     1       2.150  -5.155  25.416  0.00  0.00    +0.135 A 
ATOM     36  C   UNL     1       1.972  -6.494  25.066  0.00  0.00    +0.091 A 
ATOM     37  C   UNL     1       2.950  -7.137  24.301  0.00  0.00    +0.124 A 
ATOM     38  C   UNL     1       3.571  -3.051  25.376  0.00  0.00    +0.238 A 
ATOM     39  O   UNL     1       2.735  -2.447  26.039  0.00  0.00    -0.283 OA
ATOM     40  C   UNL     1       4.077  -6.440  23.876  0.00  0.00    +0.092 A 
ATOM     41  C   UNL     1       4.898  -2.422  24.991  0.00  0.00    +0.214 A 
BRANCH  31  43
ATOM     42  C   UNL     1       8.191  -3.411  24.497  0.00  0.00    +0.015 A 
ATOM     43  C   UNL     1       7.110  -2.910  23.718  0.00  0.00    +0.025 A 
ATOM     44  C   UNL     1       7.464  -2.184  22.576  0.00  0.00    +0.060 A 
ATOM     45  C   UNL     1       8.803  -1.925  22.278  0.00  0.00    +0.159 A 
ATOM     46  C   UNL     1       9.826  -2.340  23.116  0.00  0.00    +0.158 A 
ATOM     47  C   UNL     1       9.531  -3.115  24.221  0.00  0.00    +0.050 A 
BRANCH  46  48
ATOM     48  O   UNL     1      11.099  -1.947  22.828  0.00  0.00    -0.503 OA
ATOM     49  H   UNL     1      11.143  -1.759  21.874  0.00  0.00    +0.292 HD
ENDBRANCH  46  48
BRANCH  45  50
ATOM     50  O   UNL     1       9.102  -1.220  21.145  0.00  0.00    -0.503 OA
ATOM     51  H   UNL     1       8.232  -0.950  20.787  0.00  0.00    +0.292 HD
ENDBRANCH  45  50
ENDBRANCH  31  43
BRANCH  37  52
ATOM     52  O   UNL     1       2.824  -8.441  23.940  0.00  0.00    -0.507 OA
ATOM     53  H   UNL     1       3.702  -8.864  23.971  0.00  0.00    +0.292 HD
ENDBRANCH  37  52
BRANCH  35  54
ATOM     54  O   UNL     1       1.167  -4.608  26.171  0.00  0.00    -0.506 OA
ATOM     55  H   UNL     1       0.354  -4.525  25.611  0.00  0.00    +0.292 HD
ENDBRANCH  35  54
ENDBRANCH  30  41
ENDBRANCH   1  30
TORSDOF 18
ENDMDL
MODEL 6
REMARK VINA RESULT:      -7.3      2.881      6.849
REMARK  Name = 
REMARK  18 active torsions:
REMARK  status: ('A' for Active; 'I' for Inactive)
REMARK    1  A    between atoms: C_3  and  O_44
REMARK    2  A    between atoms: C_4  and  O_43
REMARK    3  A    between atoms: C_6  and  C_7
REMARK    4  A    between atoms: C_8  and  O_20
REMARK    5  A    between atoms: C_12  and  O_19
REMARK    6  A    between atoms: C_14  and  O_18
REMARK    7  A    between atoms: O_20  and  C_21
REMARK    8  A    between atoms: C_22  and  O_42
REMARK    9  A    between atoms: C_23  and  O_41
REMARK   10  A    between atoms: C_24  and  O_40
REMARK   11  A    between atoms: C_25  and  C_27
REMARK   12  A    between atoms: C_27  and  O_28
REMARK   13  A    between atoms: O_28  and  C_29
REMARK   14  A    between atoms: C_30  and  O_39
REMARK   15  A    between atoms: C_31  and  O_38
REMARK   16  A    between atoms: C_32  and  O_37
REMARK   17  A    between atoms: C_33  and  C_35
REMARK   18  A    between atoms: C_35  and  O_36
REMARK                            x       y       z     vdW  Elec       q    Type
REMARK                         _______ _______ _______ _____ _____    ______ ____
ROOT
ATOM      1  C   UNL     1       6.407  -0.580  27.003  0.00  0.00    +0.340 C 
ATOM      2  O   UNL     1       5.650  -1.599  27.682  0.00  0.00    -0.331 OA
ATOM      3  C   UNL     1       4.368  -1.241  28.248  0.00  0.00    +0.179 C 
ATOM      4  C   UNL     1       4.131   0.243  28.657  0.00  0.00    +0.177 C 
ATOM      5  C   UNL     1       5.128   1.245  28.069  0.00  0.00    +0.180 C 
ATOM      6  C   UNL     1       6.507   0.589  27.998  0.00  0.00    +0.214 C 
ENDROOT
BRANCH   6   7
ATOM      7  O   UNL     1       7.557   1.511  27.737  0.00  0.00    -0.383 OA
ATOM      8  H   UNL     1       7.821   1.460  26.809  0.00  0.00    +0.210 HD
ENDBRANCH   6   7
BRANCH   5   9
ATOM      9  O   UNL     1       5.162   2.407  28.912  0.00  0.00    -0.386 OA
ATOM     10  H   UNL     1       4.729   2.168  29.752  0.00  0.00    +0.210 HD
ENDBRANCH   5   9
BRANCH   4  11
ATOM     11  O   UNL     1       4.111   0.417  30.091  0.00  0.00    -0.386 OA
ATOM     12  H   UNL     1       4.399   1.330  30.288  0.00  0.00    +0.210 HD
ENDBRANCH   4  11
BRANCH   3  13
ATOM     13  C   UNL     1       4.178  -2.175  29.465  0.00  0.00    +0.197 C 
BRANCH  13  14
ATOM     14  O   UNL     1       3.744  -3.474  29.051  0.00  0.00    -0.346 OA
BRANCH  14  15
ATOM     15  C   UNL     1       4.485  -4.514  29.706  0.00  0.00    +0.282 C 
ATOM     16  O   UNL     1       5.707  -4.792  29.012  0.00  0.00    -0.341 OA
ATOM     17  C   UNL     1       5.480  -5.144  27.631  0.00  0.00    +0.178 C 
ATOM     18  C   UNL     1       4.687  -6.455  27.585  0.00  0.00    +0.177 C 
ATOM     19  C   UNL     1       3.358  -6.294  28.343  0.00  0.00    +0.179 C 
ATOM     20  C   UNL     1       3.615  -5.790  29.775  0.00  0.00    +0.201 C 
BRANCH  20  21
ATOM     21  O   UNL     1       2.386  -5.552  30.471  0.00  0.00    -0.384 OA
ATOM     22  H   UNL     1       1.667  -5.835  29.881  0.00  0.00    +0.210 HD
ENDBRANCH  20  21
BRANCH  19  23
ATOM     23  O   UNL     1       2.669  -7.550  28.358  0.00  0.00    -0.386 OA
ATOM     24  H   UNL     1       2.115  -7.567  27.561  0.00  0.00    +0.210 HD
ENDBRANCH  19  23
BRANCH  18  25
ATOM     25  O   UNL     1       5.435  -7.520  28.203  0.00  0.00    -0.386 OA
ATOM     26  H   UNL     1       6.355  -7.461  27.878  0.00  0.00    +0.210 HD
ENDBRANCH  18  25
BRANCH  17  27
ATOM     27  C   UNL     1       6.838  -5.242  26.924  0.00  0.00    +0.190 C 
BRANCH  27  28
ATOM     28  O   UNL     1       7.777  -5.992  27.699  0.00  0.00    -0.392 OA
ATOM     29  H   UNL     1       7.296  -6.481  28.388  0.00  0.00    +0.210 HD
ENDBRANCH  27  28
ENDBRANCH  17  27
ENDBRANCH  14  15
ENDBRANCH  13  14
ENDBRANCH   3  13
BRANCH   1  30
ATOM     30  O   UNL     1       5.801  -0.304  25.723  0.00  0.00    -0.453 OA
BRANCH  30  41
ATOM     31  C   UNL     1       7.008  -1.236  23.794  0.00  0.00    +0.181 A 
ATOM     32  O   UNL     1       7.195  -2.320  22.917  0.00  0.00    -0.451 OA
ATOM     33  C   UNL     1       6.485  -3.460  23.038  0.00  0.00    +0.147 A 
ATOM     34  C   UNL     1       5.333  -3.535  23.804  0.00  0.00    +0.109 A 
ATOM     35  C   UNL     1       4.580  -4.722  23.803  0.00  0.00    +0.135 A 
ATOM     36  C   UNL     1       4.997  -5.832  23.067  0.00  0.00    +0.091 A 
ATOM     37  C   UNL     1       6.184  -5.759  22.331  0.00  0.00    +0.124 A 
ATOM     38  C   UNL     1       4.982  -2.343  24.595  0.00  0.00    +0.238 A 
ATOM     39  O   UNL     1       3.944  -2.362  25.247  0.00  0.00    -0.283 OA
ATOM     40  C   UNL     1       6.927  -4.584  22.317  0.00  0.00    +0.092 A 
ATOM     41  C   UNL     1       5.934  -1.162  24.633  0.00  0.00    +0.214 A 
BRANCH  31  43
ATOM     42  C   UNL     1       9.116  -0.233  24.751  0.00  0.00    +0.015 A 
ATOM     43  C   UNL     1       8.193  -0.311  23.670  0.00  0.00    +0.025 A 
ATOM     44  C   UNL     1       8.466   0.511  22.573  0.00  0.00    +0.060 A 
ATOM     45  C   UNL     1       9.546   1.394  22.590  0.00  0.00    +0.159 A 
ATOM     46  C   UNL     1      10.364   1.519  23.702  0.00  0.00    +0.158 A 
ATOM     47  C   UNL     1      10.174   0.683  24.785  0.00  0.00    +0.050 A 
BRANCH  46  48
ATOM     48  O   UNL     1      11.324   2.487  23.696  0.00  0.00    -0.503 OA
ATOM     49  H   UNL     1      11.482   2.753  24.618  0.00  0.00    +0.292 HD
ENDBRANCH  46  48
BRANCH  45  50
ATOM     50  O   UNL     1       9.781   2.171  21.489  0.00  0.00    -0.503 OA
ATOM     51  H   UNL     1       9.731   3.090  21.822  0.00  0.00    +0.292 HD
ENDBRANCH  45  50
ENDBRANCH  31  43
BRANCH  37  52
ATOM     52  O   UNL     1       6.634  -6.817  21.605  0.00  0.00    -0.507 OA
ATOM     53  H   UNL     1       6.327  -6.721  20.685  0.00  0.00    +0.292 HD
ENDBRANCH  37  52
BRANCH  35  54
ATOM     54  O   UNL     1       3.430  -4.877  24.501  0.00  0.00    -0.506 OA
ATOM     55  H   UNL     1       2.683  -4.520  23.955  0.00  0.00    +0.292 HD
ENDBRANCH  35  54
ENDBRANCH  30  41
ENDBRANCH   1  30
TORSDOF 18
ENDMDL
MODEL 7
REMARK VINA RESULT:      -7.2      1.966      7.931
REMARK  Name = 
REMARK  18 active torsions:
REMARK  status: ('A' for Active; 'I' for Inactive)
REMARK    1  A    between atoms: C_3  and  O_44
REMARK    2  A    between atoms: C_4  and  O_43
REMARK    3  A    between atoms: C_6  and  C_7
REMARK    4  A    between atoms: C_8  and  O_20
REMARK    5  A    between atoms: C_12  and  O_19
REMARK    6  A    between atoms: C_14  and  O_18
REMARK    7  A    between atoms: O_20  and  C_21
REMARK    8  A    between atoms: C_22  and  O_42
REMARK    9  A    between atoms: C_23  and  O_41
REMARK   10  A    between atoms: C_24  and  O_40
REMARK   11  A    between atoms: C_25  and  C_27
REMARK   12  A    between atoms: C_27  and  O_28
REMARK   13  A    between atoms: O_28  and  C_29
REMARK   14  A    between atoms: C_30  and  O_39
REMARK   15  A    between atoms: C_31  and  O_38
REMARK   16  A    between atoms: C_32  and  O_37
REMARK   17  A    between atoms: C_33  and  C_35
REMARK   18  A    between atoms: C_35  and  O_36
REMARK                            x       y       z     vdW  Elec       q    Type
REMARK                         _______ _______ _______ _____ _____    ______ ____
ROOT
ATOM      1  C   UNL     1       8.716  -1.061  24.496  0.00  0.00    +0.340 C 
ATOM      2  O   UNL     1       8.792   0.349  24.778  0.00  0.00    -0.331 OA
ATOM      3  C   UNL     1       8.501   1.281  23.711  0.00  0.00    +0.179 C 
ATOM      4  C   UNL     1       8.727   0.814  22.243  0.00  0.00    +0.177 C 
ATOM      5  C   UNL     1       8.865  -0.699  22.057  0.00  0.00    +0.180 C 
ATOM      6  C   UNL     1       9.606  -1.281  23.261  0.00  0.00    +0.214 C 
ENDROOT
BRANCH   6   7
ATOM      7  O   UNL     1      10.038  -2.621  23.063  0.00  0.00    -0.383 OA
ATOM      8  H   UNL     1       9.297  -3.230  23.186  0.00  0.00    +0.210 HD
ENDBRANCH   6   7
BRANCH   5   9
ATOM      9  O   UNL     1       9.594  -0.949  20.845  0.00  0.00    -0.386 OA
ATOM     10  H   UNL     1      10.066  -0.127  20.617  0.00  0.00    +0.210 HD
ENDBRANCH   5   9
BRANCH   4  11
ATOM     11  O   UNL     1       9.877   1.449  21.640  0.00  0.00    -0.386 OA
ATOM     12  H   UNL     1       9.578   1.902  20.827  0.00  0.00    +0.210 HD
ENDBRANCH   4  11
BRANCH   3  13
ATOM     13  C   UNL     1       9.348   2.537  24.017  0.00  0.00    +0.197 C 
BRANCH  13  14
ATOM     14  O   UNL     1       8.889   3.661  23.260  0.00  0.00    -0.346 OA
BRANCH  14  15
ATOM     15  C   UNL     1       8.315   4.669  24.106  0.00  0.00    +0.282 C 
ATOM     16  O   UNL     1       6.999   4.297  24.533  0.00  0.00    -0.341 OA
ATOM     17  C   UNL     1       6.121   4.030  23.419  0.00  0.00    +0.178 C 
ATOM     18  C   UNL     1       5.931   5.328  22.625  0.00  0.00    +0.177 C 
ATOM     19  C   UNL     1       7.294   5.855  22.145  0.00  0.00    +0.179 C 
ATOM     20  C   UNL     1       8.260   6.007  23.334  0.00  0.00    +0.201 C 
BRANCH  20  21
ATOM     21  O   UNL     1       9.562   6.417  22.898  0.00  0.00    -0.384 OA
ATOM     22  H   UNL     1       9.769   5.899  22.101  0.00  0.00    +0.210 HD
ENDBRANCH  20  21
BRANCH  19  23
ATOM     23  O   UNL     1       7.105   7.108  21.475  0.00  0.00    -0.386 OA
ATOM     24  H   UNL     1       7.839   7.195  20.846  0.00  0.00    +0.210 HD
ENDBRANCH  19  23
BRANCH  18  25
ATOM     25  O   UNL     1       5.318   6.339  23.448  0.00  0.00    -0.386 OA
ATOM     26  H   UNL     1       5.093   5.925  24.305  0.00  0.00    +0.210 HD
ENDBRANCH  18  25
BRANCH  17  27
ATOM     27  C   UNL     1       4.803   3.464  23.963  0.00  0.00    +0.190 C 
BRANCH  27  28
ATOM     28  O   UNL     1       4.696   2.059  23.715  0.00  0.00    -0.392 OA
ATOM     29  H   UNL     1       4.009   1.911  23.044  0.00  0.00    +0.210 HD
ENDBRANCH  27  28
ENDBRANCH  17  27
ENDBRANCH  14  15
ENDBRANCH  13  14
ENDBRANCH   3  13
BRANCH   1  30
ATOM     30  O   UNL     1       7.332  -1.455  24.388  0.00  0.00    -0.453 OA
BRANCH  30  41
ATOM     31  C   UNL     1       6.121  -2.521  26.243  0.00  0.00    +0.181 A 
ATOM     32  O   UNL     1       5.376  -3.623  26.702  0.00  0.00    -0.451 OA
ATOM     33  C   UNL     1       5.086  -4.667  25.898  0.00  0.00    +0.147 A 
ATOM     34  C   UNL     1       5.744  -4.879  24.698  0.00  0.00    +0.109 A 
ATOM     35  C   UNL     1       5.471  -6.043  23.958  0.00  0.00    +0.135 A 
ATOM     36  C   UNL     1       4.524  -6.966  24.403  0.00  0.00    +0.091 A 
ATOM     37  C   UNL     1       3.835  -6.721  25.594  0.00  0.00    +0.124 A 
ATOM     38  C   UNL     1       6.692  -3.838  24.265  0.00  0.00    +0.238 A 
ATOM     39  O   UNL     1       7.324  -4.018  23.230  0.00  0.00    -0.283 OA
ATOM     40  C   UNL     1       4.110  -5.578  26.339  0.00  0.00    +0.092 A 
ATOM     41  C   UNL     1       6.813  -2.555  25.068  0.00  0.00    +0.214 A 
BRANCH  31  43
ATOM     42  C   UNL     1       4.702  -1.296  27.932  0.00  0.00    +0.015 A 
ATOM     43  C   UNL     1       5.924  -1.378  27.207  0.00  0.00    +0.025 A 
ATOM     44  C   UNL     1       6.845  -0.353  27.445  0.00  0.00    +0.060 A 
ATOM     45  C   UNL     1       6.534   0.707  28.296  0.00  0.00    +0.159 A 
ATOM     46  C   UNL     1       5.293   0.808  28.906  0.00  0.00    +0.158 A 
ATOM     47  C   UNL     1       4.373  -0.211  28.753  0.00  0.00    +0.050 A 
BRANCH  46  48
ATOM     48  O   UNL     1       5.014   1.932  29.626  0.00  0.00    -0.503 OA
ATOM     49  H   UNL     1       4.117   2.223  29.385  0.00  0.00    +0.292 HD
ENDBRANCH  46  48
BRANCH  45  50
ATOM     50  O   UNL     1       7.471   1.681  28.508  0.00  0.00    -0.503 OA
ATOM     51  H   UNL     1       8.103   1.577  27.768  0.00  0.00    +0.292 HD
ENDBRANCH  45  50
ENDBRANCH  31  43
BRANCH  37  52
ATOM     52  O   UNL     1       2.900  -7.588  26.064  0.00  0.00    -0.507 OA
ATOM     53  H   UNL     1       3.349  -8.318  26.527  0.00  0.00    +0.292 HD
ENDBRANCH  37  52
BRANCH  35  54
ATOM     54  O   UNL     1       6.083  -6.345  22.788  0.00  0.00    -0.506 OA
ATOM     55  H   UNL     1       5.473  -6.915  22.254  0.00  0.00    +0.292 HD
ENDBRANCH  35  54
ENDBRANCH  30  41
ENDBRANCH   1  30
TORSDOF 18
ENDMDL
MODEL 8
REMARK VINA RESULT:      -7.2      2.955      4.604
REMARK  Name = 
REMARK  18 active torsions:
REMARK  status: ('A' for Active; 'I' for Inactive)
REMARK    1  A    between atoms: C_3  and  O_44
REMARK    2  A    between atoms: C_4  and  O_43
REMARK    3  A    between atoms: C_6  and  C_7
REMARK    4  A    between atoms: C_8  and  O_20
REMARK    5  A    between atoms: C_12  and  O_19
REMARK    6  A    between atoms: C_14  and  O_18
REMARK    7  A    between atoms: O_20  and  C_21
REMARK    8  A    between atoms: C_22  and  O_42
REMARK    9  A    between atoms: C_23  and  O_41
REMARK   10  A    between atoms: C_24  and  O_40
REMARK   11  A    between atoms: C_25  and  C_27
REMARK   12  A    between atoms: C_27  and  O_28
REMARK   13  A    between atoms: O_28  and  C_29
REMARK   14  A    between atoms: C_30  and  O_39
REMARK   15  A    between atoms: C_31  and  O_38
REMARK   16  A    between atoms: C_32  and  O_37
REMARK   17  A    between atoms: C_33  and  C_35
REMARK   18  A    between atoms: C_35  and  O_36
REMARK                            x       y       z     vdW  Elec       q    Type
REMARK                         _______ _______ _______ _____ _____    ______ ____
ROOT
ATOM      1  C   UNL     1       8.235   1.979  23.273  0.00  0.00    +0.340 C 
ATOM      2  O   UNL     1       7.753   0.768  22.661  0.00  0.00    -0.331 OA
ATOM      3  C   UNL     1       7.863  -0.468  23.404  0.00  0.00    +0.179 C 
ATOM      4  C   UNL     1       8.984  -0.584  24.479  0.00  0.00    +0.177 C 
ATOM      5  C   UNL     1       9.607   0.744  24.913  0.00  0.00    +0.180 C 
ATOM      6  C   UNL     1       9.680   1.676  23.703  0.00  0.00    +0.214 C 
ENDROOT
BRANCH   6   7
ATOM      7  O   UNL     1      10.494   2.821  23.922  0.00  0.00    -0.383 OA
ATOM      8  H   UNL     1      11.000   3.025  23.124  0.00  0.00    +0.210 HD
ENDBRANCH   6   7
BRANCH   5   9
ATOM      9  O   UNL     1      10.921   0.487  25.433  0.00  0.00    -0.386 OA
ATOM     10  H   UNL     1      11.353   1.351  25.565  0.00  0.00    +0.210 HD
ENDBRANCH   5   9
BRANCH   4  11
ATOM     11  O   UNL     1      10.049  -1.468  24.063  0.00  0.00    -0.386 OA
ATOM     12  H   UNL     1      10.428  -1.113  23.235  0.00  0.00    +0.210 HD
ENDBRANCH   4  11
BRANCH   3  13
ATOM     13  C   UNL     1       8.017  -1.577  22.339  0.00  0.00    +0.197 C 
BRANCH  13  14
ATOM     14  O   UNL     1       7.676  -2.857  22.879  0.00  0.00    -0.346 OA
BRANCH  14  15
ATOM     15  C   UNL     1       6.383  -2.841  23.503  0.00  0.00    +0.282 C 
ATOM     16  O   UNL     1       6.447  -3.362  24.836  0.00  0.00    -0.341 OA
ATOM     17  C   UNL     1       6.994  -4.696  24.873  0.00  0.00    +0.178 C 
ATOM     18  C   UNL     1       6.043  -5.636  24.123  0.00  0.00    +0.177 C 
ATOM     19  C   UNL     1       5.858  -5.150  22.674  0.00  0.00    +0.179 C 
ATOM     20  C   UNL     1       5.400  -3.680  22.656  0.00  0.00    +0.201 C 
BRANCH  20  21
ATOM     21  O   UNL     1       5.303  -3.182  21.316  0.00  0.00    -0.384 OA
ATOM     22  H   UNL     1       5.902  -3.721  20.770  0.00  0.00    +0.210 HD
ENDBRANCH  20  21
BRANCH  19  23
ATOM     23  O   UNL     1       4.905  -5.991  22.014  0.00  0.00    -0.386 OA
ATOM     24  H   UNL     1       5.073  -6.894  22.329  0.00  0.00    +0.210 HD
ENDBRANCH  19  23
BRANCH  18  25
ATOM     25  O   UNL     1       4.751  -5.662  24.761  0.00  0.00    -0.386 OA
ATOM     26  H   UNL     1       4.880  -5.991  25.672  0.00  0.00    +0.210 HD
ENDBRANCH  18  25
BRANCH  17  27
ATOM     27  C   UNL     1       7.198  -5.099  26.339  0.00  0.00    +0.190 C 
BRANCH  27  28
ATOM     28  O   UNL     1       8.405  -5.845  26.513  0.00  0.00    -0.392 OA
ATOM     29  H   UNL     1       8.200  -6.793  26.450  0.00  0.00    +0.210 HD
ENDBRANCH  27  28
ENDBRANCH  17  27
ENDBRANCH  14  15
ENDBRANCH  13  14
ENDBRANCH   3  13
BRANCH   1  30
ATOM     30  O   UNL     1       7.314   2.395  24.304  0.00  0.00    -0.453 OA
BRANCH  30  41
ATOM     31  C   UNL     1       6.723   4.770  24.072  0.00  0.00    +0.181 A 
ATOM     32  O   UNL     1       5.815   5.730  23.588  0.00  0.00    -0.451 OA
ATOM     33  C   UNL     1       4.705   5.376  22.909  0.00  0.00    +0.147 A 
ATOM     34  C   UNL     1       4.221   4.078  22.910  0.00  0.00    +0.109 A 
ATOM     35  C   UNL     1       3.001   3.796  22.270  0.00  0.00    +0.135 A 
ATOM     36  C   UNL     1       2.293   4.800  21.609  0.00  0.00    +0.091 A 
ATOM     37  C   UNL     1       2.812   6.098  21.578  0.00  0.00    +0.124 A 
ATOM     38  C   UNL     1       5.047   3.061  23.583  0.00  0.00    +0.238 A 
ATOM     39  O   UNL     1       4.624   1.911  23.640  0.00  0.00    -0.283 OA
ATOM     40  C   UNL     1       4.012   6.387  22.220  0.00  0.00    +0.092 A 
ATOM     41  C   UNL     1       6.413   3.443  24.123  0.00  0.00    +0.214 A 
BRANCH  31  43
ATOM     42  C   UNL     1       8.943   5.730  23.352  0.00  0.00    +0.015 A 
ATOM     43  C   UNL     1       8.021   5.465  24.403  0.00  0.00    +0.025 A 
ATOM     44  C   UNL     1       8.420   5.866  25.682  0.00  0.00    +0.060 A 
ATOM     45  C   UNL     1       9.679   6.428  25.897  0.00  0.00    +0.159 A 
ATOM     46  C   UNL     1      10.593   6.576  24.865  0.00  0.00    +0.158 A 
ATOM     47  C   UNL     1      10.222   6.254  23.574  0.00  0.00    +0.050 A 
BRANCH  46  48
ATOM     48  O   UNL     1      11.846   7.018  25.168  0.00  0.00    -0.503 OA
ATOM     49  H   UNL     1      11.939   7.006  26.137  0.00  0.00    +0.292 HD
ENDBRANCH  46  48
BRANCH  45  50
ATOM     50  O   UNL     1      10.021   6.815  27.162  0.00  0.00    -0.503 OA
ATOM     51  H   UNL     1       9.252   7.332  27.478  0.00  0.00    +0.292 HD
ENDBRANCH  45  50
ENDBRANCH  31  43
BRANCH  37  52
ATOM     52  O   UNL     1       2.161   7.107  20.941  0.00  0.00    -0.507 OA
ATOM     53  H   UNL     1       2.392   7.952  21.369  0.00  0.00    +0.292 HD
ENDBRANCH  37  52
BRANCH  35  54
ATOM     54  O   UNL     1       2.441   2.563  22.243  0.00  0.00    -0.506 OA
ATOM     55  H   UNL     1       3.128   1.915  21.942  0.00  0.00    +0.292 HD
ENDBRANCH  35  54
ENDBRANCH  30  41
ENDBRANCH   1  30
TORSDOF 18
ENDMDL
MODEL 9
REMARK VINA RESULT:      -7.2      2.154      8.730
REMARK  Name = 
REMARK  18 active torsions:
REMARK  status: ('A' for Active; 'I' for Inactive)
REMARK    1  A    between atoms: C_3  and  O_44
REMARK    2  A    between atoms: C_4  and  O_43
REMARK    3  A    between atoms: C_6  and  C_7
REMARK    4  A    between atoms: C_8  and  O_20
REMARK    5  A    between atoms: C_12  and  O_19
REMARK    6  A    between atoms: C_14  and  O_18
REMARK    7  A    between atoms: O_20  and  C_21
REMARK    8  A    between atoms: C_22  and  O_42
REMARK    9  A    between atoms: C_23  and  O_41
REMARK   10  A    between atoms: C_24  and  O_40
REMARK   11  A    between atoms: C_25  and  C_27
REMARK   12  A    between atoms: C_27  and  O_28
REMARK   13  A    between atoms: O_28  and  C_29
REMARK   14  A    between atoms: C_30  and  O_39
REMARK   15  A    between atoms: C_31  and  O_38
REMARK   16  A    between atoms: C_32  and  O_37
REMARK   17  A    between atoms: C_33  and  C_35
REMARK   18  A    between atoms: C_35  and  O_36
REMARK                            x       y       z     vdW  Elec       q    Type
REMARK                         _______ _______ _______ _____ _____    ______ ____
ROOT
ATOM      1  C   UNL     1       4.515  -1.622  26.754  0.00  0.00    +0.340 C 
ATOM      2  O   UNL     1       4.704  -0.577  25.782  0.00  0.00    -0.331 OA
ATOM      3  C   UNL     1       5.108   0.732  26.248  0.00  0.00    +0.179 C 
ATOM      4  C   UNL     1       4.735   1.142  27.703  0.00  0.00    +0.177 C 
ATOM      5  C   UNL     1       4.322  -0.013  28.618  0.00  0.00    +0.180 C 
ATOM      6  C   UNL     1       3.545  -1.043  27.797  0.00  0.00    +0.214 C 
ENDROOT
BRANCH   6   7
ATOM      7  O   UNL     1       2.873  -2.009  28.595  0.00  0.00    -0.383 OA
ATOM      8  H   UNL     1       2.340  -2.589  28.034  0.00  0.00    +0.210 HD
ENDBRANCH   6   7
BRANCH   5   9
ATOM      9  O   UNL     1       3.506   0.509  29.678  0.00  0.00    -0.386 OA
ATOM     10  H   UNL     1       2.682  -0.012  29.692  0.00  0.00    +0.210 HD
ENDBRANCH   5   9
BRANCH   4  11
ATOM     11  O   UNL     1       3.690   2.140  27.738  0.00  0.00    -0.386 OA
ATOM     12  H   UNL     1       4.015   2.897  28.264  0.00  0.00    +0.210 HD
ENDBRANCH   4  11
BRANCH   3  13
ATOM     13  C   UNL     1       4.512   1.733  25.233  0.00  0.00    +0.197 C 
BRANCH  13  14
ATOM     14  O   UNL     1       5.547   2.423  24.526  0.00  0.00    -0.346 OA
BRANCH  14  15
ATOM     15  C   UNL     1       6.828   1.808  24.730  0.00  0.00    +0.282 C 
ATOM     16  O   UNL     1       7.758   2.734  25.305  0.00  0.00    -0.341 OA
ATOM     17  C   UNL     1       7.906   3.925  24.505  0.00  0.00    +0.178 C 
ATOM     18  C   UNL     1       8.516   3.533  23.154  0.00  0.00    +0.177 C 
ATOM     19  C   UNL     1       7.619   2.498  22.452  0.00  0.00    +0.179 C 
ATOM     20  C   UNL     1       7.365   1.294  23.376  0.00  0.00    +0.201 C 
BRANCH  20  21
ATOM     21  O   UNL     1       6.464   0.357  22.774  0.00  0.00    -0.384 OA
ATOM     22  H   UNL     1       6.275   0.682  21.876  0.00  0.00    +0.210 HD
ENDBRANCH  20  21
BRANCH  19  23
ATOM     23  O   UNL     1       8.244   2.085  21.231  0.00  0.00    -0.386 OA
ATOM     24  H   UNL     1       7.592   1.542  20.760  0.00  0.00    +0.210 HD
ENDBRANCH  19  23
BRANCH  18  25
ATOM     25  O   UNL     1       9.821   2.951  23.338  0.00  0.00    -0.386 OA
ATOM     26  H   UNL     1      10.129   2.637  22.465  0.00  0.00    +0.210 HD
ENDBRANCH  18  25
BRANCH  17  27
ATOM     27  C   UNL     1       8.767   4.929  25.281  0.00  0.00    +0.190 C 
BRANCH  27  28
ATOM     28  O   UNL     1       9.674   5.617  24.416  0.00  0.00    -0.392 OA
ATOM     29  H   UNL     1       9.752   6.540  24.712  0.00  0.00    +0.210 HD
ENDBRANCH  27  28
ENDBRANCH  17  27
ENDBRANCH  14  15
ENDBRANCH  13  14
ENDBRANCH   3  13
BRANCH   1  30
ATOM     30  O   UNL     1       5.801  -2.073  27.230  0.00  0.00    -0.453 OA
BRANCH  30  41
ATOM     31  C   UNL     1       6.817  -3.358  25.396  0.00  0.00    +0.181 A 
ATOM     32  O   UNL     1       7.788  -3.418  24.380  0.00  0.00    -0.451 OA
ATOM     33  C   UNL     1       8.636  -2.395  24.148  0.00  0.00    +0.147 A 
ATOM     34  C   UNL     1       8.826  -1.372  25.063  0.00  0.00    +0.109 A 
ATOM     35  C   UNL     1       9.802  -0.392  24.809  0.00  0.00    +0.135 A 
ATOM     36  C   UNL     1      10.555  -0.422  23.634  0.00  0.00    +0.091 A 
ATOM     37  C   UNL     1      10.325  -1.435  22.699  0.00  0.00    +0.124 A 
ATOM     38  C   UNL     1       7.961  -1.376  26.255  0.00  0.00    +0.238 A 
ATOM     39  O   UNL     1       8.135  -0.510  27.105  0.00  0.00    -0.283 OA
ATOM     40  C   UNL     1       9.370  -2.415  22.949  0.00  0.00    +0.092 A 
ATOM     41  C   UNL     1       6.845  -2.400  26.367  0.00  0.00    +0.214 A 
BRANCH  31  43
ATOM     42  C   UNL     1       5.774  -5.579  25.984  0.00  0.00    +0.015 A 
ATOM     43  C   UNL     1       5.790  -4.433  25.140  0.00  0.00    +0.025 A 
ATOM     44  C   UNL     1       4.842  -4.417  24.112  0.00  0.00    +0.060 A 
ATOM     45  C   UNL     1       3.988  -5.501  23.908  0.00  0.00    +0.159 A 
ATOM     46  C   UNL     1       4.071  -6.646  24.686  0.00  0.00    +0.158 A 
ATOM     47  C   UNL     1       4.946  -6.684  25.753  0.00  0.00    +0.050 A 
BRANCH  46  48
ATOM     48  O   UNL     1       3.290  -7.713  24.353  0.00  0.00    -0.503 OA
ATOM     49  H   UNL     1       2.692  -7.888  25.100  0.00  0.00    +0.292 HD
ENDBRANCH  46  48
BRANCH  45  50
ATOM     50  O   UNL     1       3.069  -5.437  22.897  0.00  0.00    -0.503 OA
ATOM     51  H   UNL     1       3.177  -6.280  22.413  0.00  0.00    +0.292 HD
ENDBRANCH  45  50
ENDBRANCH  31  43
BRANCH  37  52
ATOM     52  O   UNL     1      11.029  -1.501  21.538  0.00  0.00    -0.507 OA
ATOM     53  H   UNL     1      10.574  -2.109  20.927  0.00  0.00    +0.292 HD
ENDBRANCH  37  52
BRANCH  35  54
ATOM     54  O   UNL     1      10.073   0.628  25.657  0.00  0.00    -0.506 OA
ATOM     55  H   UNL     1      10.675   1.266  25.195  0.00  0.00    +0.292 HD
ENDBRANCH  35  54
ENDBRANCH  30  41
ENDBRANCH   1  30
TORSDOF 18
ENDMDL
