MODEL 1
REMARK VINA RESULT:      -6.9      0.000      0.000
REMARK  Name = 
REMARK  11 active torsions:
REMARK  status: ('A' for Active; 'I' for Inactive)
REMARK    1  A    between atoms: C_3  and  O_35
REMARK    2  A    between atoms: C_4  and  O_34
REMARK    3  A    between atoms: C_6  and  C_7
REMARK    4  A    between atoms: C_8  and  O_20
REMARK    5  A    between atoms: C_12  and  O_19
REMARK    6  A    between atoms: C_14  and  O_18
REMARK    7  A    between atoms: O_20  and  C_21
REMARK    8  A    between atoms: C_23  and  O_33
REMARK    9  A    between atoms: C_25  and  O_32
REMARK   10  A    between atoms: C_27  and  C_30
REMARK   11  A    between atoms: C_30  and  O_31
REMARK                            x       y       z     vdW  Elec       q    Type
REMARK                         _______ _______ _______ _____ _____    ______ ____
ROOT
ATOM      1  C   UNL     1       6.964  -1.680  24.971  0.00  0.00    +0.181 A 
ATOM      2  O   UNL     1       5.693  -2.185  24.752  0.00  0.00    -0.451 OA
ATOM      3  C   UNL     1       5.534  -3.341  24.049  0.00  0.00    +0.147 A 
ATOM      4  C   UNL     1       6.600  -4.053  23.526  0.00  0.00    +0.109 A 
ATOM      5  C   UNL     1       6.354  -5.240  22.825  0.00  0.00    +0.135 A 
ATOM      6  C   UNL     1       5.050  -5.707  22.655  0.00  0.00    +0.091 A 
ATOM      7  C   UNL     1       3.992  -4.974  23.181  0.00  0.00    +0.124 A 
ATOM      8  C   UNL     1       7.954  -3.523  23.726  0.00  0.00    +0.238 A 
ATOM      9  O   UNL     1       8.908  -4.118  23.239  0.00  0.00    -0.283 OA
ATOM     10  C   UNL     1       4.224  -3.793  23.875  0.00  0.00    +0.092 A 
ATOM     11  C   UNL     1       8.117  -2.241  24.507  0.00  0.00    +0.214 A 
ENDROOT
BRANCH   1  13
ATOM     12  C   UNL     1       6.095   0.619  25.195  0.00  0.00    +0.015 A 
ATOM     13  C   UNL     1       6.837  -0.437  25.750  0.00  0.00    +0.025 A 
ATOM     14  C   UNL     1       7.367  -0.295  27.039  0.00  0.00    +0.060 A 
ATOM     15  C   UNL     1       7.209   0.917  27.707  0.00  0.00    +0.159 A 
ATOM     16  C   UNL     1       6.576   1.997  27.098  0.00  0.00    +0.158 A 
ATOM     17  C   UNL     1       5.995   1.850  25.849  0.00  0.00    +0.050 A 
BRANCH  15  18
ATOM     18  O   UNL     1       7.674   1.046  28.984  0.00  0.00    -0.503 OA
ATOM     19  H   UNL     1       8.570   1.430  28.886  0.00  0.00    +0.292 HD
ENDBRANCH  15  18
BRANCH  16  20
ATOM     20  O   UNL     1       6.545   3.189  27.765  0.00  0.00    -0.503 OA
ATOM     21  H   UNL     1       6.824   3.024  28.684  0.00  0.00    +0.292 HD
ENDBRANCH  16  20
ENDBRANCH   1  13
BRANCH   5  22
ATOM     22  O   UNL     1       7.352  -6.000  22.274  0.00  0.00    -0.506 OA
ATOM     23  H   UNL     1       8.149  -5.914  22.846  0.00  0.00    +0.292 HD
ENDBRANCH   5  22
BRANCH   7  24
ATOM     24  O   UNL     1       2.699  -5.378  23.043  0.00  0.00    -0.507 OA
ATOM     25  H   UNL     1       2.620  -6.296  23.359  0.00  0.00    +0.292 HD
ENDBRANCH   7  24
BRANCH  11  26
ATOM     26  O   UNL     1       9.429  -1.842  24.658  0.00  0.00    -0.453 OA
BRANCH  26  27
ATOM     27  C   UNL     1       9.950  -0.731  23.950  0.00  0.00    +0.340 C 
ATOM     28  O   UNL     1       9.634   0.540  24.558  0.00  0.00    -0.331 OA
ATOM     29  C   UNL     1       9.538   1.512  23.480  0.00  0.00    +0.179 C 
ATOM     30  C   UNL     1       9.901   0.774  22.188  0.00  0.00    +0.180 C 
ATOM     31  C   UNL     1       9.399  -0.630  22.519  0.00  0.00    +0.214 C 
BRANCH  30  32
ATOM     32  O   UNL     1       9.328   1.365  21.031  0.00  0.00    -0.386 OA
ATOM     33  H   UNL     1       9.312   0.711  20.311  0.00  0.00    +0.210 HD
ENDBRANCH  30  32
BRANCH  31  34
ATOM     34  O   UNL     1       9.890  -1.622  21.625  0.00  0.00    -0.383 OA
ATOM     35  H   UNL     1      10.862  -1.587  21.607  0.00  0.00    +0.210 HD
ENDBRANCH  31  34
BRANCH  29  36
ATOM     36  C   UNL     1      10.457   2.691  23.793  0.00  0.00    +0.190 C 
BRANCH  36  37
ATOM     37  O   UNL     1      10.867   3.332  22.587  0.00  0.00    -0.392 OA
ATOM     38  H   UNL     1      11.234   4.193  22.888  0.00  0.00    +0.210 HD
ENDBRANCH  36  37
ENDBRANCH  29  36
ENDBRANCH  26  27
ENDBRANCH  11  26
TORSDOF 11
ENDMDL
MODEL 2
REMARK VINA RESULT:      -6.9      2.648      6.285
REMARK  Name = 
REMARK  11 active torsions:
REMARK  status: ('A' for Active; 'I' for Inactive)
REMARK    1  A    between atoms: C_3  and  O_35
REMARK    2  A    between atoms: C_4  and  O_34
REMARK    3  A    between atoms: C_6  and  C_7
REMARK    4  A    between atoms: C_8  and  O_20
REMARK    5  A    between atoms: C_12  and  O_19
REMARK    6  A    between atoms: C_14  and  O_18
REMARK    7  A    between atoms: O_20  and  C_21
REMARK    8  A    between atoms: C_23  and  O_33
REMARK    9  A    between atoms: C_25  and  O_32
REMARK   10  A    between atoms: C_27  and  C_30
REMARK   11  A    between atoms: C_30  and  O_31
REMARK                            x       y       z     vdW  Elec       q    Type
REMARK                         _______ _______ _______ _____ _____    ______ ____
ROOT
ATOM      1  C   UNL     1       7.149  -1.359  25.711  0.00  0.00    +0.181 A 
ATOM      2  O   UNL     1       7.169  -0.215  24.930  0.00  0.00    -0.451 OA
ATOM      3  C   UNL     1       8.036  -0.123  23.883  0.00  0.00    +0.147 A 
ATOM      4  C   UNL     1       8.923  -1.133  23.553  0.00  0.00    +0.109 A 
ATOM      5  C   UNL     1       9.775  -0.966  22.454  0.00  0.00    +0.135 A 
ATOM      6  C   UNL     1       9.732   0.204  21.694  0.00  0.00    +0.091 A 
ATOM      7  C   UNL     1       8.839   1.210  22.046  0.00  0.00    +0.124 A 
ATOM      8  C   UNL     1       8.936  -2.344  24.382  0.00  0.00    +0.238 A 
ATOM      9  O   UNL     1       9.740  -3.234  24.129  0.00  0.00    -0.283 OA
ATOM     10  C   UNL     1       7.992   1.056  23.136  0.00  0.00    +0.092 A 
ATOM     11  C   UNL     1       7.970  -2.435  25.539  0.00  0.00    +0.214 A 
ENDROOT
BRANCH   1  13
ATOM     12  C   UNL     1       6.207  -0.050  27.578  0.00  0.00    +0.015 A 
ATOM     13  C   UNL     1       6.126  -1.185  26.755  0.00  0.00    +0.025 A 
ATOM     14  C   UNL     1       5.049  -2.068  26.912  0.00  0.00    +0.060 A 
ATOM     15  C   UNL     1       4.127  -1.836  27.930  0.00  0.00    +0.159 A 
ATOM     16  C   UNL     1       4.285  -0.774  28.817  0.00  0.00    +0.158 A 
ATOM     17  C   UNL     1       5.310   0.139  28.634  0.00  0.00    +0.050 A 
BRANCH  15  18
ATOM     18  O   UNL     1       3.045  -2.659  28.056  0.00  0.00    -0.503 OA
ATOM     19  H   UNL     1       2.713  -2.776  27.142  0.00  0.00    +0.292 HD
ENDBRANCH  15  18
BRANCH  16  20
ATOM     20  O   UNL     1       3.405  -0.662  29.856  0.00  0.00    -0.503 OA
ATOM     21  H   UNL     1       3.561   0.198  30.286  0.00  0.00    +0.292 HD
ENDBRANCH  16  20
ENDBRANCH   1  13
BRANCH   5  22
ATOM     22  O   UNL     1      10.682  -1.915  22.065  0.00  0.00    -0.506 OA
ATOM     23  H   UNL     1      10.593  -2.687  22.669  0.00  0.00    +0.292 HD
ENDBRANCH   5  22
BRANCH   7  24
ATOM     24  O   UNL     1       8.756   2.374  21.344  0.00  0.00    -0.507 OA
ATOM     25  H   UNL     1       9.457   2.977  21.647  0.00  0.00    +0.292 HD
ENDBRANCH   7  24
BRANCH  11  26
ATOM     26  O   UNL     1       8.047  -3.621  26.239  0.00  0.00    -0.453 OA
BRANCH  26  27
ATOM     27  C   UNL     1       7.320  -4.768  25.836  0.00  0.00    +0.340 C 
ATOM     28  O   UNL     1       6.286  -4.483  24.868  0.00  0.00    -0.331 OA
ATOM     29  C   UNL     1       5.223  -5.452  25.090  0.00  0.00    +0.179 C 
ATOM     30  C   UNL     1       5.710  -6.396  26.192  0.00  0.00    +0.180 C 
ATOM     31  C   UNL     1       6.589  -5.447  27.004  0.00  0.00    +0.214 C 
BRANCH  30  32
ATOM     32  O   UNL     1       4.648  -7.002  26.913  0.00  0.00    -0.386 OA
ATOM     33  H   UNL     1       4.653  -7.961  26.747  0.00  0.00    +0.210 HD
ENDBRANCH  30  32
BRANCH  31  34
ATOM     34  O   UNL     1       7.440  -6.123  27.921  0.00  0.00    -0.383 OA
ATOM     35  H   UNL     1       8.064  -6.684  27.428  0.00  0.00    +0.210 HD
ENDBRANCH  31  34
BRANCH  29  36
ATOM     36  C   UNL     1       4.911  -6.155  23.771  0.00  0.00    +0.190 C 
BRANCH  36  37
ATOM     37  O   UNL     1       4.458  -7.485  24.016  0.00  0.00    -0.392 OA
ATOM     38  H   UNL     1       4.138  -7.793  23.139  0.00  0.00    +0.210 HD
ENDBRANCH  36  37
ENDBRANCH  29  36
ENDBRANCH  26  27
ENDBRANCH  11  26
TORSDOF 11
ENDMDL
MODEL 3
REMARK VINA RESULT:      -6.9      1.870      2.697
REMARK  Name = 
REMARK  11 active torsions:
REMARK  status: ('A' for Active; 'I' for Inactive)
REMARK    1  A    between atoms: C_3  and  O_35
REMARK    2  A    between atoms: C_4  and  O_34
REMARK    3  A    between atoms: C_6  and  C_7
REMARK    4  A    between atoms: C_8  and  O_20
REMARK    5  A    between atoms: C_12  and  O_19
REMARK    6  A    between atoms: C_14  and  O_18
REMARK    7  A    between atoms: O_20  and  C_21
REMARK    8  A    between atoms: C_23  and  O_33
REMARK    9  A    between atoms: C_25  and  O_32
REMARK   10  A    between atoms: C_27  and  C_30
REMARK   11  A    between atoms: C_30  and  O_31
REMARK                            x       y       z     vdW  Elec       q    Type
REMARK                         _______ _______ _______ _____ _____    ______ ____
ROOT
ATOM      1  C   UNL     1       6.712  -0.593  24.186  0.00  0.00    +0.181 A 
ATOM      2  O   UNL     1       5.925  -1.515  23.515  0.00  0.00    -0.451 OA
ATOM      3  C   UNL     1       6.345  -2.805  23.392  0.00  0.00    +0.147 A 
ATOM      4  C   UNL     1       7.548  -3.254  23.911  0.00  0.00    +0.109 A 
ATOM      5  C   UNL     1       7.903  -4.600  23.753  0.00  0.00    +0.135 A 
ATOM      6  C   UNL     1       7.055  -5.484  23.083  0.00  0.00    +0.091 A 
ATOM      7  C   UNL     1       5.855  -5.011  22.563  0.00  0.00    +0.124 A 
ATOM      8  C   UNL     1       8.409  -2.289  24.605  0.00  0.00    +0.238 A 
ATOM      9  O   UNL     1       9.494  -2.658  25.038  0.00  0.00    -0.283 OA
ATOM     10  C   UNL     1       5.495  -3.679  22.711  0.00  0.00    +0.092 A 
ATOM     11  C   UNL     1       7.932  -0.862  24.735  0.00  0.00    +0.214 A 
ENDROOT
BRANCH   1  13
ATOM     12  C   UNL     1       5.346   1.113  25.330  0.00  0.00    +0.015 A 
ATOM     13  C   UNL     1       6.019   0.705  24.166  0.00  0.00    +0.025 A 
ATOM     14  C   UNL     1       6.062   1.569  23.064  0.00  0.00    +0.060 A 
ATOM     15  C   UNL     1       5.372   2.778  23.123  0.00  0.00    +0.159 A 
ATOM     16  C   UNL     1       4.609   3.117  24.237  0.00  0.00    +0.158 A 
ATOM     17  C   UNL     1       4.608   2.300  25.355  0.00  0.00    +0.050 A 
BRANCH  15  18
ATOM     18  O   UNL     1       5.454   3.649  22.075  0.00  0.00    -0.503 OA
ATOM     19  H   UNL     1       6.144   3.273  21.491  0.00  0.00    +0.292 HD
ENDBRANCH  15  18
BRANCH  16  20
ATOM     20  O   UNL     1       3.873   4.267  24.191  0.00  0.00    -0.503 OA
ATOM     21  H   UNL     1       4.447   4.999  24.484  0.00  0.00    +0.292 HD
ENDBRANCH  16  20
ENDBRANCH   1  13
BRANCH   5  22
ATOM     22  O   UNL     1       9.074  -5.121  24.232  0.00  0.00    -0.506 OA
ATOM     23  H   UNL     1       9.751  -5.054  23.520  0.00  0.00    +0.292 HD
ENDBRANCH   5  22
BRANCH   7  24
ATOM     24  O   UNL     1       4.991  -5.827  21.897  0.00  0.00    -0.507 OA
ATOM     25  H   UNL     1       4.789  -5.432  21.030  0.00  0.00    +0.292 HD
ENDBRANCH   7  24
BRANCH  11  26
ATOM     26  O   UNL     1       8.802  -0.042  25.422  0.00  0.00    -0.453 OA
BRANCH  26  27
ATOM     27  C   UNL     1       9.547   0.966  24.762  0.00  0.00    +0.340 C 
ATOM     28  O   UNL     1       8.917   2.265  24.800  0.00  0.00    -0.331 OA
ATOM     29  C   UNL     1       9.307   2.958  23.581  0.00  0.00    +0.179 C 
ATOM     30  C   UNL     1      10.281   2.036  22.842  0.00  0.00    +0.180 C 
ATOM     31  C   UNL     1       9.748   0.670  23.268  0.00  0.00    +0.214 C 
BRANCH  30  32
ATOM     32  O   UNL     1      10.308   2.265  21.441  0.00  0.00    -0.386 OA
ATOM     33  H   UNL     1       9.718   3.009  21.227  0.00  0.00    +0.210 HD
ENDBRANCH  30  32
BRANCH  31  34
ATOM     34  O   UNL     1      10.654  -0.392  22.993  0.00  0.00    -0.383 OA
ATOM     35  H   UNL     1      10.948  -0.790  23.831  0.00  0.00    +0.210 HD
ENDBRANCH  31  34
BRANCH  29  36
ATOM     36  C   UNL     1       9.904   4.313  23.952  0.00  0.00    +0.190 C 
BRANCH  36  37
ATOM     37  O   UNL     1      11.073   4.567  23.175  0.00  0.00    -0.392 OA
ATOM     38  H   UNL     1      10.725   4.954  22.342  0.00  0.00    +0.210 HD
ENDBRANCH  36  37
ENDBRANCH  29  36
ENDBRANCH  26  27
ENDBRANCH  11  26
TORSDOF 11
ENDMDL
MODEL 4
REMARK VINA RESULT:      -6.8      2.550      7.297
REMARK  Name = 
REMARK  11 active torsions:
REMARK  status: ('A' for Active; 'I' for Inactive)
REMARK    1  A    between atoms: C_3  and  O_35
REMARK    2  A    between atoms: C_4  and  O_34
REMARK    3  A    between atoms: C_6  and  C_7
REMARK    4  A    between atoms: C_8  and  O_20
REMARK    5  A    between atoms: C_12  and  O_19
REMARK    6  A    between atoms: C_14  and  O_18
REMARK    7  A    between atoms: O_20  and  C_21
REMARK    8  A    between atoms: C_23  and  O_33
REMARK    9  A    between atoms: C_25  and  O_32
REMARK   10  A    between atoms: C_27  and  C_30
REMARK   11  A    between atoms: C_30  and  O_31
REMARK                            x       y       z     vdW  Elec       q    Type
REMARK                         _______ _______ _______ _____ _____    ______ ____
ROOT
ATOM      1  C   UNL     1       7.162  -1.726  23.533  0.00  0.00    +0.181 A 
ATOM      2  O   UNL     1       6.736  -0.638  22.789  0.00  0.00    -0.451 OA
ATOM      3  C   UNL     1       7.312   0.582  22.981  0.00  0.00    +0.147 A 
ATOM      4  C   UNL     1       8.320   0.798  23.905  0.00  0.00    +0.109 A 
ATOM      5  C   UNL     1       8.868   2.081  24.034  0.00  0.00    +0.135 A 
ATOM      6  C   UNL     1       8.409   3.133  23.240  0.00  0.00    +0.091 A 
ATOM      7  C   UNL     1       7.390   2.897  22.323  0.00  0.00    +0.124 A 
ATOM      8  C   UNL     1       8.769  -0.336  24.721  0.00  0.00    +0.238 A 
ATOM      9  O   UNL     1       9.634  -0.157  25.570  0.00  0.00    -0.283 OA
ATOM     10  C   UNL     1       6.837   1.630  22.189  0.00  0.00    +0.092 A 
ATOM     11  C   UNL     1       8.125  -1.683  24.498  0.00  0.00    +0.214 A 
ENDROOT
BRANCH   1  13
ATOM     12  C   UNL     1       5.099  -3.071  23.676  0.00  0.00    +0.015 A 
ATOM     13  C   UNL     1       6.377  -2.901  23.120  0.00  0.00    +0.025 A 
ATOM     14  C   UNL     1       6.826  -3.809  22.151  0.00  0.00    +0.060 A 
ATOM     15  C   UNL     1       6.025  -4.899  21.821  0.00  0.00    +0.159 A 
ATOM     16  C   UNL     1       4.813  -5.124  22.469  0.00  0.00    +0.158 A 
ATOM     17  C   UNL     1       4.330  -4.202  23.383  0.00  0.00    +0.050 A 
BRANCH  15  18
ATOM     18  O   UNL     1       6.430  -5.758  20.841  0.00  0.00    -0.503 OA
ATOM     19  H   UNL     1       7.240  -6.178  21.196  0.00  0.00    +0.292 HD
ENDBRANCH  15  18
BRANCH  16  20
ATOM     20  O   UNL     1       4.124  -6.266  22.175  0.00  0.00    -0.503 OA
ATOM     21  H   UNL     1       4.618  -7.017  22.549  0.00  0.00    +0.292 HD
ENDBRANCH  16  20
ENDBRANCH   1  13
BRANCH   5  22
ATOM     22  O   UNL     1       9.864   2.378  24.926  0.00  0.00    -0.506 OA
ATOM     23  H   UNL     1      10.680   2.578  24.413  0.00  0.00    +0.292 HD
ENDBRANCH   5  22
BRANCH   7  24
ATOM     24  O   UNL     1       6.900   3.885  21.524  0.00  0.00    -0.507 OA
ATOM     25  H   UNL     1       7.278   4.736  21.807  0.00  0.00    +0.292 HD
ENDBRANCH   7  24
BRANCH  11  26
ATOM     26  O   UNL     1       8.634  -2.685  25.298  0.00  0.00    -0.453 OA
BRANCH  26  27
ATOM     27  C   UNL     1       7.823  -3.756  25.748  0.00  0.00    +0.340 C 
ATOM     28  O   UNL     1       6.711  -3.334  26.566  0.00  0.00    -0.331 OA
ATOM     29  C   UNL     1       6.444  -4.412  27.506  0.00  0.00    +0.179 C 
ATOM     30  C   UNL     1       7.405  -5.551  27.153  0.00  0.00    +0.180 C 
ATOM     31  C   UNL     1       8.596  -4.757  26.622  0.00  0.00    +0.214 C 
BRANCH  30  32
ATOM     32  O   UNL     1       7.687  -6.400  28.255  0.00  0.00    -0.386 OA
ATOM     33  H   UNL     1       6.874  -6.866  28.518  0.00  0.00    +0.210 HD
ENDBRANCH  30  32
BRANCH  31  34
ATOM     34  O   UNL     1       9.531  -5.561  25.913  0.00  0.00    -0.383 OA
ATOM     35  H   UNL     1       9.177  -6.463  25.824  0.00  0.00    +0.210 HD
ENDBRANCH  31  34
BRANCH  29  36
ATOM     36  C   UNL     1       4.971  -4.798  27.410  0.00  0.00    +0.190 C 
BRANCH  36  37
ATOM     37  O   UNL     1       4.841  -6.203  27.199  0.00  0.00    -0.392 OA
ATOM     38  H   UNL     1       4.852  -6.299  26.221  0.00  0.00    +0.210 HD
ENDBRANCH  36  37
ENDBRANCH  29  36
ENDBRANCH  26  27
ENDBRANCH  11  26
TORSDOF 11
ENDMDL
MODEL 5
REMARK VINA RESULT:      -6.7      1.847      2.591
REMARK  Name = 
REMARK  11 active torsions:
REMARK  status: ('A' for Active; 'I' for Inactive)
REMARK    1  A    between atoms: C_3  and  O_35
REMARK    2  A    between atoms: C_4  and  O_34
REMARK    3  A    between atoms: C_6  and  C_7
REMARK    4  A    between atoms: C_8  and  O_20
REMARK    5  A    between atoms: C_12  and  O_19
REMARK    6  A    between atoms: C_14  and  O_18
REMARK    7  A    between atoms: O_20  and  C_21
REMARK    8  A    between atoms: C_23  and  O_33
REMARK    9  A    between atoms: C_25  and  O_32
REMARK   10  A    between atoms: C_27  and  C_30
REMARK   11  A    between atoms: C_30  and  O_31
REMARK                            x       y       z     vdW  Elec       q    Type
REMARK                         _______ _______ _______ _____ _____    ______ ____
ROOT
ATOM      1  C   UNL     1       5.667  -2.520  25.207  0.00  0.00    +0.181 A 
ATOM      2  O   UNL     1       5.120  -3.497  26.023  0.00  0.00    -0.451 OA
ATOM      3  C   UNL     1       4.575  -4.616  25.470  0.00  0.00    +0.147 A 
ATOM      4  C   UNL     1       4.534  -4.832  24.102  0.00  0.00    +0.109 A 
ATOM      5  C   UNL     1       3.966  -6.015  23.612  0.00  0.00    +0.135 A 
ATOM      6  C   UNL     1       3.449  -6.971  24.488  0.00  0.00    +0.091 A 
ATOM      7  C   UNL     1       3.494  -6.732  25.858  0.00  0.00    +0.124 A 
ATOM      8  C   UNL     1       5.086  -3.799  23.219  0.00  0.00    +0.238 A 
ATOM      9  O   UNL     1       5.025  -3.954  22.005  0.00  0.00    -0.283 OA
ATOM     10  C   UNL     1       4.051  -5.561  26.354  0.00  0.00    +0.092 A 
ATOM     11  C   UNL     1       5.688  -2.564  23.844  0.00  0.00    +0.214 A 
ENDROOT
BRANCH   1  13
ATOM     12  C   UNL     1       5.281  -0.440  26.477  0.00  0.00    +0.015 A 
ATOM     13  C   UNL     1       6.179  -1.438  26.065  0.00  0.00    +0.025 A 
ATOM     14  C   UNL     1       7.498  -1.406  26.535  0.00  0.00    +0.060 A 
ATOM     15  C   UNL     1       7.906  -0.343  27.338  0.00  0.00    +0.159 A 
ATOM     16  C   UNL     1       7.039   0.705  27.639  0.00  0.00    +0.158 A 
ATOM     17  C   UNL     1       5.716   0.654  27.231  0.00  0.00    +0.050 A 
BRANCH  15  18
ATOM     18  O   UNL     1       9.173  -0.330  27.845  0.00  0.00    -0.503 OA
ATOM     19  H   UNL     1       9.334   0.604  28.090  0.00  0.00    +0.292 HD
ENDBRANCH  15  18
BRANCH  16  20
ATOM     20  O   UNL     1       7.528   1.768  28.343  0.00  0.00    -0.503 OA
ATOM     21  H   UNL     1       8.135   2.259  27.759  0.00  0.00    +0.292 HD
ENDBRANCH  16  20
ENDBRANCH   1  13
BRANCH   5  22
ATOM     22  O   UNL     1       3.883  -6.303  22.276  0.00  0.00    -0.506 OA
ATOM     23  H   UNL     1       3.355  -5.593  21.845  0.00  0.00    +0.292 HD
ENDBRANCH   5  22
BRANCH   7  24
ATOM     24  O   UNL     1       3.001  -7.626  26.759  0.00  0.00    -0.507 OA
ATOM     25  H   UNL     1       2.530  -8.331  26.280  0.00  0.00    +0.292 HD
ENDBRANCH   7  24
BRANCH  11  26
ATOM     26  O   UNL     1       6.199  -1.666  22.929  0.00  0.00    -0.453 OA
BRANCH  26  27
ATOM     27  C   UNL     1       7.521  -1.169  23.039  0.00  0.00    +0.340 C 
ATOM     28  O   UNL     1       7.766   0.001  22.228  0.00  0.00    -0.331 OA
ATOM     29  C   UNL     1       9.169  -0.038  21.845  0.00  0.00    +0.179 C 
ATOM     30  C   UNL     1       9.783  -1.254  22.544  0.00  0.00    +0.180 C 
ATOM     31  C   UNL     1       8.577  -2.189  22.586  0.00  0.00    +0.214 C 
BRANCH  30  32
ATOM     32  O   UNL     1      10.922  -1.766  21.868  0.00  0.00    -0.386 OA
ATOM     33  H   UNL     1      11.686  -1.191  22.045  0.00  0.00    +0.210 HD
ENDBRANCH  30  32
BRANCH  31  34
ATOM     34  O   UNL     1       8.754  -3.289  23.472  0.00  0.00    -0.383 OA
ATOM     35  H   UNL     1       9.557  -3.146  24.004  0.00  0.00    +0.210 HD
ENDBRANCH  31  34
BRANCH  29  36
ATOM     36  C   UNL     1       9.823   1.287  22.229  0.00  0.00    +0.190 C 
BRANCH  36  37
ATOM     37  O   UNL     1       9.298   2.346  21.431  0.00  0.00    -0.392 OA
ATOM     38  H   UNL     1      10.095   2.769  21.042  0.00  0.00    +0.210 HD
ENDBRANCH  36  37
ENDBRANCH  29  36
ENDBRANCH  26  27
ENDBRANCH  11  26
TORSDOF 11
ENDMDL
MODEL 6
REMARK VINA RESULT:      -6.5      2.246      6.772
REMARK  Name = 
REMARK  11 active torsions:
REMARK  status: ('A' for Active; 'I' for Inactive)
REMARK    1  A    between atoms: C_3  and  O_35
REMARK    2  A    between atoms: C_4  and  O_34
REMARK    3  A    between atoms: C_6  and  C_7
REMARK    4  A    between atoms: C_8  and  O_20
REMARK    5  A    between atoms: C_12  and  O_19
REMARK    6  A    between atoms: C_14  and  O_18
REMARK    7  A    between atoms: O_20  and  C_21
REMARK    8  A    between atoms: C_23  and  O_33
REMARK    9  A    between atoms: C_25  and  O_32
REMARK   10  A    between atoms: C_27  and  C_30
REMARK   11  A    between atoms: C_30  and  O_31
REMARK                            x       y       z     vdW  Elec       q    Type
REMARK                         _______ _______ _______ _____ _____    ______ ____
ROOT
ATOM      1  C   UNL     1       7.884  -2.092  24.617  0.00  0.00    +0.181 A 
ATOM      2  O   UNL     1       8.016  -0.867  25.250  0.00  0.00    -0.451 OA
ATOM      3  C   UNL     1       8.267   0.253  24.516  0.00  0.00    +0.147 A 
ATOM      4  C   UNL     1       8.406   0.231  23.138  0.00  0.00    +0.109 A 
ATOM      5  C   UNL     1       8.653   1.428  22.455  0.00  0.00    +0.135 A 
ATOM      6  C   UNL     1       8.755   2.635  23.150  0.00  0.00    +0.091 A 
ATOM      7  C   UNL     1       8.620   2.635  24.534  0.00  0.00    +0.124 A 
ATOM      8  C   UNL     1       8.294  -1.060  22.450  0.00  0.00    +0.238 A 
ATOM      9  O   UNL     1       8.450  -1.106  21.235  0.00  0.00    -0.283 OA
ATOM     10  C   UNL     1       8.379   1.453  25.222  0.00  0.00    +0.092 A 
ATOM     11  C   UNL     1       8.014  -2.294  23.274  0.00  0.00    +0.214 A 
ENDROOT
BRANCH   1  13
ATOM     12  C   UNL     1       8.562  -4.137  25.819  0.00  0.00    +0.015 A 
ATOM     13  C   UNL     1       7.617  -3.113  25.642  0.00  0.00    +0.025 A 
ATOM     14  C   UNL     1       6.498  -3.064  26.486  0.00  0.00    +0.060 A 
ATOM     15  C   UNL     1       6.315  -4.074  27.427  0.00  0.00    +0.159 A 
ATOM     16  C   UNL     1       7.196  -5.150  27.510  0.00  0.00    +0.158 A 
ATOM     17  C   UNL     1       8.337  -5.178  26.725  0.00  0.00    +0.050 A 
BRANCH  15  18
ATOM     18  O   UNL     1       5.259  -4.006  28.289  0.00  0.00    -0.503 OA
ATOM     19  H   UNL     1       4.507  -3.704  27.739  0.00  0.00    +0.292 HD
ENDBRANCH  15  18
BRANCH  16  20
ATOM     20  O   UNL     1       6.905  -6.160  28.382  0.00  0.00    -0.503 OA
ATOM     21  H   UNL     1       7.055  -5.827  29.285  0.00  0.00    +0.292 HD
ENDBRANCH  16  20
ENDBRANCH   1  13
BRANCH   5  22
ATOM     22  O   UNL     1       8.805   1.491  21.096  0.00  0.00    -0.506 OA
ATOM     23  H   UNL     1       9.768   1.443  20.896  0.00  0.00    +0.292 HD
ENDBRANCH   5  22
BRANCH   7  24
ATOM     24  O   UNL     1       8.715   3.780  25.265  0.00  0.00    -0.507 OA
ATOM     25  H   UNL     1       9.655   3.985  25.409  0.00  0.00    +0.292 HD
ENDBRANCH   7  24
BRANCH  11  26
ATOM     26  O   UNL     1       7.904  -3.450  22.530  0.00  0.00    -0.453 OA
BRANCH  26  27
ATOM     27  C   UNL     1       6.684  -4.164  22.447  0.00  0.00    +0.340 C 
ATOM     28  O   UNL     1       5.656  -3.653  23.323  0.00  0.00    -0.331 OA
ATOM     29  C   UNL     1       4.823  -4.784  23.702  0.00  0.00    +0.179 C 
ATOM     30  C   UNL     1       5.353  -5.998  22.934  0.00  0.00    +0.180 C 
ATOM     31  C   UNL     1       6.835  -5.642  22.839  0.00  0.00    +0.214 C 
BRANCH  30  32
ATOM     32  O   UNL     1       5.066  -7.230  23.578  0.00  0.00    -0.386 OA
ATOM     33  H   UNL     1       4.550  -7.058  24.384  0.00  0.00    +0.210 HD
ENDBRANCH  30  32
BRANCH  31  34
ATOM     34  O   UNL     1       7.540  -6.436  21.892  0.00  0.00    -0.383 OA
ATOM     35  H   UNL     1       7.586  -7.354  22.212  0.00  0.00    +0.210 HD
ENDBRANCH  31  34
BRANCH  29  36
ATOM     36  C   UNL     1       3.366  -4.449  23.393  0.00  0.00    +0.190 C 
BRANCH  36  37
ATOM     37  O   UNL     1       2.726  -5.560  22.767  0.00  0.00    -0.392 OA
ATOM     38  H   UNL     1       3.402  -6.273  22.799  0.00  0.00    +0.210 HD
ENDBRANCH  36  37
ENDBRANCH  29  36
ENDBRANCH  26  27
ENDBRANCH  11  26
TORSDOF 11
ENDMDL
MODEL 7
REMARK VINA RESULT:      -6.4      1.667      4.701
REMARK  Name = 
REMARK  11 active torsions:
REMARK  status: ('A' for Active; 'I' for Inactive)
REMARK    1  A    between atoms: C_3  and  O_35
REMARK    2  A    between atoms: C_4  and  O_34
REMARK    3  A    between atoms: C_6  and  C_7
REMARK    4  A    between atoms: C_8  and  O_20
REMARK    5  A    between atoms: C_12  and  O_19
REMARK    6  A    between atoms: C_14  and  O_18
REMARK    7  A    between atoms: O_20  and  C_21
REMARK    8  A    between atoms: C_23  and  O_33
REMARK    9  A    between atoms: C_25  and  O_32
REMARK   10  A    between atoms: C_27  and  C_30
REMARK   11  A    between atoms: C_30  and  O_31
REMARK                            x       y       z     vdW  Elec       q    Type
REMARK                         _______ _______ _______ _____ _____    ______ ____
ROOT
ATOM      1  C   UNL     1       8.038  -1.761  24.132  0.00  0.00    +0.181 A 
ATOM      2  O   UNL     1       7.808  -2.393  22.921  0.00  0.00    -0.451 OA
ATOM      3  C   UNL     1       7.089  -3.550  22.886  0.00  0.00    +0.147 A 
ATOM      4  C   UNL     1       6.568  -4.144  24.024  0.00  0.00    +0.109 A 
ATOM      5  C   UNL     1       5.829  -5.328  23.902  0.00  0.00    +0.135 A 
ATOM      6  C   UNL     1       5.615  -5.905  22.649  0.00  0.00    +0.091 A 
ATOM      7  C   UNL     1       6.153  -5.298  21.520  0.00  0.00    +0.124 A 
ATOM      8  C   UNL     1       6.821  -3.504  25.319  0.00  0.00    +0.238 A 
ATOM      9  O   UNL     1       6.400  -4.033  26.341  0.00  0.00    -0.283 OA
ATOM     10  C   UNL     1       6.890  -4.126  21.630  0.00  0.00    +0.092 A 
ATOM     11  C   UNL     1       7.618  -2.222  25.345  0.00  0.00    +0.214 A 
ENDROOT
BRANCH   1  13
ATOM     12  C   UNL     1       9.912  -0.270  24.726  0.00  0.00    +0.015 A 
ATOM     13  C   UNL     1       8.831  -0.548  23.874  0.00  0.00    +0.025 A 
ATOM     14  C   UNL     1       8.589   0.295  22.780  0.00  0.00    +0.060 A 
ATOM     15  C   UNL     1       9.381   1.428  22.610  0.00  0.00    +0.159 A 
ATOM     16  C   UNL     1      10.373   1.758  23.530  0.00  0.00    +0.158 A 
ATOM     17  C   UNL     1      10.661   0.902  24.580  0.00  0.00    +0.050 A 
BRANCH  15  18
ATOM     18  O   UNL     1       9.189   2.224  21.518  0.00  0.00    -0.503 OA
ATOM     19  H   UNL     1       9.773   1.846  20.828  0.00  0.00    +0.292 HD
ENDBRANCH  15  18
BRANCH  16  20
ATOM     20  O   UNL     1      11.044   2.936  23.364  0.00  0.00    -0.503 OA
ATOM     21  H   UNL     1      11.380   3.213  24.236  0.00  0.00    +0.292 HD
ENDBRANCH  16  20
ENDBRANCH   1  13
BRANCH   5  22
ATOM     22  O   UNL     1       5.284  -5.978  24.976  0.00  0.00    -0.506 OA
ATOM     23  H   UNL     1       4.326  -6.114  24.795  0.00  0.00    +0.292 HD
ENDBRANCH   5  22
BRANCH   7  24
ATOM     24  O   UNL     1       5.979  -5.818  20.273  0.00  0.00    -0.507 OA
ATOM     25  H   UNL     1       6.746  -6.376  20.055  0.00  0.00    +0.292 HD
ENDBRANCH   7  24
BRANCH  11  26
ATOM     26  O   UNL     1       7.780  -1.689  26.608  0.00  0.00    -0.453 OA
BRANCH  26  27
ATOM     27  C   UNL     1       6.879  -0.727  27.126  0.00  0.00    +0.340 C 
ATOM     28  O   UNL     1       5.875  -0.307  26.177  0.00  0.00    -0.331 OA
ATOM     29  C   UNL     1       5.542   1.073  26.497  0.00  0.00    +0.179 C 
ATOM     30  C   UNL     1       6.340   1.438  27.751  0.00  0.00    +0.180 C 
ATOM     31  C   UNL     1       7.581   0.570  27.555  0.00  0.00    +0.214 C 
BRANCH  30  32
ATOM     32  O   UNL     1       6.588   2.832  27.865  0.00  0.00    -0.386 OA
ATOM     33  H   UNL     1       5.775   3.280  28.155  0.00  0.00    +0.210 HD
ENDBRANCH  30  32
BRANCH  31  34
ATOM     34  O   UNL     1       8.372   0.453  28.733  0.00  0.00    -0.383 OA
ATOM     35  H   UNL     1       8.718  -0.453  28.798  0.00  0.00    +0.210 HD
ENDBRANCH  31  34
BRANCH  29  36
ATOM     36  C   UNL     1       4.030   1.189  26.674  0.00  0.00    +0.190 C 
BRANCH  36  37
ATOM     37  O   UNL     1       3.464   1.941  25.603  0.00  0.00    -0.392 OA
ATOM     38  H   UNL     1       2.610   2.266  25.966  0.00  0.00    +0.210 HD
ENDBRANCH  36  37
ENDBRANCH  29  36
ENDBRANCH  26  27
ENDBRANCH  11  26
TORSDOF 11
ENDMDL
MODEL 8
REMARK VINA RESULT:      -6.4      2.799      7.620
REMARK  Name = 
REMARK  11 active torsions:
REMARK  status: ('A' for Active; 'I' for Inactive)
REMARK    1  A    between atoms: C_3  and  O_35
REMARK    2  A    between atoms: C_4  and  O_34
REMARK    3  A    between atoms: C_6  and  C_7
REMARK    4  A    between atoms: C_8  and  O_20
REMARK    5  A    between atoms: C_12  and  O_19
REMARK    6  A    between atoms: C_14  and  O_18
REMARK    7  A    between atoms: O_20  and  C_21
REMARK    8  A    between atoms: C_23  and  O_33
REMARK    9  A    between atoms: C_25  and  O_32
REMARK   10  A    between atoms: C_27  and  C_30
REMARK   11  A    between atoms: C_30  and  O_31
REMARK                            x       y       z     vdW  Elec       q    Type
REMARK                         _______ _______ _______ _____ _____    ______ ____
ROOT
ATOM      1  C   UNL     1       6.404  -2.536  24.634  0.00  0.00    +0.181 A 
ATOM      2  O   UNL     1       6.714  -1.787  23.511  0.00  0.00    -0.451 OA
ATOM      3  C   UNL     1       7.747  -0.900  23.551  0.00  0.00    +0.147 A 
ATOM      4  C   UNL     1       8.519  -0.699  24.683  0.00  0.00    +0.109 A 
ATOM      5  C   UNL     1       9.572   0.224  24.640  0.00  0.00    +0.135 A 
ATOM      6  C   UNL     1       9.847   0.934  23.469  0.00  0.00    +0.091 A 
ATOM      7  C   UNL     1       9.055   0.723  22.346  0.00  0.00    +0.124 A 
ATOM      8  C   UNL     1       8.193  -1.464  25.891  0.00  0.00    +0.238 A 
ATOM      9  O   UNL     1       8.840  -1.274  26.914  0.00  0.00    -0.283 OA
ATOM     10  C   UNL     1       8.006  -0.187  22.379  0.00  0.00    +0.092 A 
ATOM     11  C   UNL     1       7.046  -2.445  25.834  0.00  0.00    +0.214 A 
ENDROOT
BRANCH   1  13
ATOM     12  C   UNL     1       4.013  -3.094  24.878  0.00  0.00    +0.015 A 
ATOM     13  C   UNL     1       5.259  -3.402  24.308  0.00  0.00    +0.025 A 
ATOM     14  C   UNL     1       5.352  -4.470  23.406  0.00  0.00    +0.060 A 
ATOM     15  C   UNL     1       4.222  -5.246  23.156  0.00  0.00    +0.159 A 
ATOM     16  C   UNL     1       3.022  -5.005  23.821  0.00  0.00    +0.158 A 
ATOM     17  C   UNL     1       2.902  -3.916  24.668  0.00  0.00    +0.050 A 
BRANCH  15  18
ATOM     18  O   UNL     1       4.289  -6.254  22.238  0.00  0.00    -0.503 OA
ATOM     19  H   UNL     1       4.256  -5.802  21.369  0.00  0.00    +0.292 HD
ENDBRANCH  15  18
BRANCH  16  20
ATOM     20  O   UNL     1       1.982  -5.864  23.610  0.00  0.00    -0.503 OA
ATOM     21  H   UNL     1       2.252  -6.744  23.930  0.00  0.00    +0.292 HD
ENDBRANCH  16  20
ENDBRANCH   1  13
BRANCH   5  22
ATOM     22  O   UNL     1      10.379   0.483  25.715  0.00  0.00    -0.506 OA
ATOM     23  H   UNL     1      11.287   0.658  25.378  0.00  0.00    +0.292 HD
ENDBRANCH   5  22
BRANCH   7  24
ATOM     24  O   UNL     1       9.273   1.390  21.178  0.00  0.00    -0.507 OA
ATOM     25  H   UNL     1      10.140   1.126  20.822  0.00  0.00    +0.292 HD
ENDBRANCH   7  24
BRANCH  11  26
ATOM     26  O   UNL     1       6.837  -3.129  27.014  0.00  0.00    -0.453 OA
BRANCH  26  27
ATOM     27  C   UNL     1       6.127  -4.354  27.043  0.00  0.00    +0.340 C 
ATOM     28  O   UNL     1       4.862  -4.272  27.735  0.00  0.00    -0.331 OA
ATOM     29  C   UNL     1       4.617  -5.580  28.324  0.00  0.00    +0.179 C 
ATOM     30  C   UNL     1       5.765  -6.487  27.875  0.00  0.00    +0.180 C 
ATOM     31  C   UNL     1       6.898  -5.469  27.766  0.00  0.00    +0.214 C 
BRANCH  30  32
ATOM     32  O   UNL     1       6.004  -7.564  28.768  0.00  0.00    -0.386 OA
ATOM     33  H   UNL     1       6.734  -7.329  29.367  0.00  0.00    +0.210 HD
ENDBRANCH  30  32
BRANCH  31  34
ATOM     34  O   UNL     1       8.026  -5.965  27.054  0.00  0.00    -0.383 OA
ATOM     35  H   UNL     1       7.845  -5.929  26.099  0.00  0.00    +0.210 HD
ENDBRANCH  31  34
BRANCH  29  36
ATOM     36  C   UNL     1       3.239  -6.069  27.886  0.00  0.00    +0.190 C 
BRANCH  36  37
ATOM     37  O   UNL     1       3.368  -7.185  27.007  0.00  0.00    -0.392 OA
ATOM     38  H   UNL     1       3.845  -7.856  27.543  0.00  0.00    +0.210 HD
ENDBRANCH  36  37
ENDBRANCH  29  36
ENDBRANCH  26  27
ENDBRANCH  11  26
TORSDOF 11
ENDMDL
MODEL 9
REMARK VINA RESULT:      -6.3      1.758      4.829
REMARK  Name = 
REMARK  11 active torsions:
REMARK  status: ('A' for Active; 'I' for Inactive)
REMARK    1  A    between atoms: C_3  and  O_35
REMARK    2  A    between atoms: C_4  and  O_34
REMARK    3  A    between atoms: C_6  and  C_7
REMARK    4  A    between atoms: C_8  and  O_20
REMARK    5  A    between atoms: C_12  and  O_19
REMARK    6  A    between atoms: C_14  and  O_18
REMARK    7  A    between atoms: O_20  and  C_21
REMARK    8  A    between atoms: C_23  and  O_33
REMARK    9  A    between atoms: C_25  and  O_32
REMARK   10  A    between atoms: C_27  and  C_30
REMARK   11  A    between atoms: C_30  and  O_31
REMARK                            x       y       z     vdW  Elec       q    Type
REMARK                         _______ _______ _______ _____ _____    ______ ____
ROOT
ATOM      1  C   UNL     1       8.009  -1.760  24.140  0.00  0.00    +0.181 A 
ATOM      2  O   UNL     1       7.804  -2.435  22.948  0.00  0.00    -0.451 OA
ATOM      3  C   UNL     1       7.106  -3.605  22.942  0.00  0.00    +0.147 A 
ATOM      4  C   UNL     1       6.582  -4.171  24.092  0.00  0.00    +0.109 A 
ATOM      5  C   UNL     1       5.865  -5.371  24.001  0.00  0.00    +0.135 A 
ATOM      6  C   UNL     1       5.676  -5.993  22.765  0.00  0.00    +0.091 A 
ATOM      7  C   UNL     1       6.217  -5.413  21.623  0.00  0.00    +0.124 A 
ATOM      8  C   UNL     1       6.807  -3.484  25.369  0.00  0.00    +0.238 A 
ATOM      9  O   UNL     1       6.383  -3.988  26.403  0.00  0.00    -0.283 OA
ATOM     10  C   UNL     1       6.932  -4.225  21.703  0.00  0.00    +0.092 A 
ATOM     11  C   UNL     1       7.582  -2.188  25.362  0.00  0.00    +0.214 A 
ENDROOT
BRANCH   1  13
ATOM     12  C   UNL     1       9.896  -0.258  24.659  0.00  0.00    +0.015 A 
ATOM     13  C   UNL     1       8.783  -0.542  23.851  0.00  0.00    +0.025 A 
ATOM     14  C   UNL     1       8.493   0.300  22.768  0.00  0.00    +0.060 A 
ATOM     15  C   UNL     1       9.271   1.438  22.568  0.00  0.00    +0.159 A 
ATOM     16  C   UNL     1      10.297   1.773  23.448  0.00  0.00    +0.158 A 
ATOM     17  C   UNL     1      10.632   0.918  24.485  0.00  0.00    +0.050 A 
BRANCH  15  18
ATOM     18  O   UNL     1       9.031   2.233  21.485  0.00  0.00    -0.503 OA
ATOM     19  H   UNL     1       9.088   3.148  21.830  0.00  0.00    +0.292 HD
ENDBRANCH  15  18
BRANCH  16  20
ATOM     20  O   UNL     1      10.954   2.955  23.256  0.00  0.00    -0.503 OA
ATOM     21  H   UNL     1      11.623   2.815  22.562  0.00  0.00    +0.292 HD
ENDBRANCH  16  20
ENDBRANCH   1  13
BRANCH   5  22
ATOM     22  O   UNL     1       5.318  -5.996  25.089  0.00  0.00    -0.506 OA
ATOM     23  H   UNL     1       5.081  -6.914  24.825  0.00  0.00    +0.292 HD
ENDBRANCH   5  22
BRANCH   7  24
ATOM     24  O   UNL     1       6.068  -5.976  20.392  0.00  0.00    -0.507 OA
ATOM     25  H   UNL     1       5.162  -6.325  20.312  0.00  0.00    +0.292 HD
ENDBRANCH   7  24
BRANCH  11  26
ATOM     26  O   UNL     1       7.719  -1.612  26.609  0.00  0.00    -0.453 OA
BRANCH  26  27
ATOM     27  C   UNL     1       7.012  -0.437  26.962  0.00  0.00    +0.340 C 
ATOM     28  O   UNL     1       7.675   0.351  27.976  0.00  0.00    -0.331 OA
ATOM     29  C   UNL     1       6.632   1.021  28.738  0.00  0.00    +0.179 C 
ATOM     30  C   UNL     1       5.301   0.662  28.073  0.00  0.00    +0.180 C 
ATOM     31  C   UNL     1       5.621  -0.734  27.543  0.00  0.00    +0.214 C 
BRANCH  30  32
ATOM     32  O   UNL     1       4.199   0.731  28.966  0.00  0.00    -0.386 OA
ATOM     33  H   UNL     1       4.163  -0.083  29.496  0.00  0.00    +0.210 HD
ENDBRANCH  30  32
BRANCH  31  34
ATOM     34  O   UNL     1       4.671  -1.201  26.593  0.00  0.00    -0.383 OA
ATOM     35  H   UNL     1       4.451  -2.129  26.788  0.00  0.00    +0.210 HD
ENDBRANCH  31  34
BRANCH  29  36
ATOM     36  C   UNL     1       6.923   2.519  28.763  0.00  0.00    +0.190 C 
BRANCH  36  37
ATOM     37  O   UNL     1       7.943   2.809  29.718  0.00  0.00    -0.392 OA
ATOM     38  H   UNL     1       8.114   3.769  29.599  0.00  0.00    +0.210 HD
ENDBRANCH  36  37
ENDBRANCH  29  36
ENDBRANCH  26  27
ENDBRANCH  11  26
TORSDOF 11
ENDMDL
