MODEL 1
REMARK VINA RESULT:      -7.5      0.000      0.000
REMARK  Name = 
REMARK  17 active torsions:
REMARK  status: ('A' for Active; 'I' for Inactive)
REMARK    1  A    between atoms: C_1  and  C_2
REMARK    2  A    between atoms: C_3  and  O_49
REMARK    3  A    between atoms: C_5  and  O_48
REMARK    4  A    between atoms: C_6  and  O_33
REMARK    5  A    between atoms: C_8  and  O_11
REMARK    6  A    between atoms: O_11  and  C_12
REMARK    7  A    between atoms: C_13  and  C_25
REMARK    8  A    between atoms: C_17  and  O_24
REMARK    9  A    between atoms: C_19  and  O_23
REMARK   10  A    between atoms: C_27  and  O_32
REMARK   11  A    between atoms: C_28  and  O_31
REMARK   12  A    between atoms: O_33  and  C_34
REMARK   13  A    between atoms: C_36  and  O_47
REMARK   14  A    between atoms: C_37  and  O_46
REMARK   15  A    between atoms: C_39  and  O_45
REMARK   16  A    between atoms: C_41  and  C_43
REMARK   17  A    between atoms: C_43  and  O_44
REMARK                            x       y       z     vdW  Elec       q    Type
REMARK                         _______ _______ _______ _____ _____    ______ ____
ROOT
ATOM      1  C   UNL     1      10.546  -1.847  23.054  0.00  0.00    +0.041 C 
ATOM      2  C   UNL     1       9.946  -0.687  23.838  0.00  0.00    +0.150 C 
ATOM      3  O   UNL     1       8.541  -0.850  24.028  0.00  0.00    -0.334 OA
ATOM      4  C   UNL     1       7.629  -0.647  22.935  0.00  0.00    +0.340 C 
ATOM      5  C   UNL     1       7.929   0.776  22.305  0.00  0.00    +0.221 C 
ATOM      6  C   UNL     1       9.454   0.901  21.964  0.00  0.00    +0.180 C 
ATOM      7  C   UNL     1      10.319   0.659  23.216  0.00  0.00    +0.174 C 
ENDROOT
BRANCH   7   8
ATOM      8  O   UNL     1      10.154   1.719  24.174  0.00  0.00    -0.387 OA
ATOM      9  H   UNL     1       9.411   2.279  23.863  0.00  0.00    +0.210 HD
ENDBRANCH   7   8
BRANCH   6  10
ATOM     10  O   UNL     1       9.760   2.227  21.469  0.00  0.00    -0.386 OA
ATOM     11  H   UNL     1       9.252   2.838  22.051  0.00  0.00    +0.210 HD
ENDBRANCH   6  10
BRANCH   5  12
ATOM     12  O   UNL     1       7.779   1.898  23.194  0.00  0.00    -0.337 OA
BRANCH  12  13
ATOM     13  C   UNL     1       6.690   2.787  23.016  0.00  0.00    +0.282 C 
ATOM     14  O   UNL     1       7.031   4.069  22.496  0.00  0.00    -0.341 OA
ATOM     15  C   UNL     1       8.022   4.775  23.247  0.00  0.00    +0.178 C 
ATOM     16  C   UNL     1       7.684   4.943  24.742  0.00  0.00    +0.177 C 
ATOM     17  C   UNL     1       6.917   3.774  25.374  0.00  0.00    +0.179 C 
ATOM     18  C   UNL     1       6.014   3.002  24.393  0.00  0.00    +0.201 C 
BRANCH  18  19
ATOM     19  O   UNL     1       5.607   1.767  25.006  0.00  0.00    -0.384 OA
ATOM     20  H   UNL     1       6.418   1.396  25.416  0.00  0.00    +0.210 HD
ENDBRANCH  18  19
BRANCH  17  21
ATOM     21  O   UNL     1       7.809   2.853  26.038  0.00  0.00    -0.386 OA
ATOM     22  H   UNL     1       8.266   2.377  25.313  0.00  0.00    +0.210 HD
ENDBRANCH  17  21
BRANCH  16  23
ATOM     23  O   UNL     1       8.863   5.235  25.502  0.00  0.00    -0.386 OA
ATOM     24  H   UNL     1       8.654   5.108  26.448  0.00  0.00    +0.210 HD
ENDBRANCH  16  23
BRANCH  15  25
ATOM     25  C   UNL     1       8.212   6.141  22.560  0.00  0.00    +0.190 C 
BRANCH  25  26
ATOM     26  O   UNL     1       7.467   6.237  21.348  0.00  0.00    -0.392 OA
ATOM     27  H   UNL     1       6.567   6.517  21.605  0.00  0.00    +0.210 HD
ENDBRANCH  25  26
ENDBRANCH  15  25
ENDBRANCH  12  13
ENDBRANCH   5  12
BRANCH   4  28
ATOM     28  O   UNL     1       6.294  -0.830  23.514  0.00  0.00    -0.453 OA
BRANCH  28  29
ATOM     29  C   UNL     1       5.873  -2.038  24.101  0.00  0.00    +0.214 A 
ATOM     30  C   UNL     1       5.537  -3.156  23.149  0.00  0.00    +0.238 A 
ATOM     31  O   UNL     1       5.619  -2.969  21.934  0.00  0.00    -0.283 OA
ATOM     32  C   UNL     1       5.064  -4.456  23.706  0.00  0.00    +0.109 A 
ATOM     33  C   UNL     1       4.644  -4.461  25.025  0.00  0.00    +0.147 A 
ATOM     34  C   UNL     1       4.087  -5.606  25.612  0.00  0.00    +0.092 A 
ATOM     35  C   UNL     1       3.995  -6.782  24.873  0.00  0.00    +0.124 A 
ATOM     36  C   UNL     1       4.446  -6.816  23.562  0.00  0.00    +0.091 A 
ATOM     37  O   UNL     1       4.751  -3.353  25.820  0.00  0.00    -0.451 OA
ATOM     38  C   UNL     1       4.973  -5.652  22.977  0.00  0.00    +0.135 A 
ATOM     39  C   UNL     1       5.416  -2.199  25.394  0.00  0.00    +0.181 A 
BRANCH  39  40
ATOM     40  C   UNL     1       5.516  -1.257  26.581  0.00  0.00    +0.025 A 
ATOM     41  C   UNL     1       4.388  -0.713  27.179  0.00  0.00    +0.015 A 
ATOM     42  C   UNL     1       4.456   0.301  28.157  0.00  0.00    +0.050 A 
ATOM     43  C   UNL     1       5.684   0.808  28.534  0.00  0.00    +0.158 A 
ATOM     44  C   UNL     1       6.842   0.276  27.982  0.00  0.00    +0.159 A 
ATOM     45  C   UNL     1       6.776  -0.728  27.016  0.00  0.00    +0.060 A 
BRANCH  44  46
ATOM     46  O   UNL     1       8.030   0.822  28.408  0.00  0.00    -0.503 OA
ATOM     47  H   UNL     1       8.758   0.288  28.050  0.00  0.00    +0.292 HD
ENDBRANCH  44  46
BRANCH  43  48
ATOM     48  O   UNL     1       5.741   1.822  29.441  0.00  0.00    -0.503 OA
ATOM     49  H   UNL     1       6.658   2.167  29.383  0.00  0.00    +0.292 HD
ENDBRANCH  43  48
ENDBRANCH  39  40
BRANCH  38  50
ATOM     50  O   UNL     1       5.420  -5.732  21.690  0.00  0.00    -0.506 OA
ATOM     51  H   UNL     1       4.735  -6.121  21.126  0.00  0.00    +0.292 HD
ENDBRANCH  38  50
BRANCH  35  52
ATOM     52  O   UNL     1       3.475  -7.933  25.390  0.00  0.00    -0.507 OA
ATOM     53  H   UNL     1       2.976  -8.410  24.705  0.00  0.00    +0.292 HD
ENDBRANCH  35  52
ENDBRANCH  28  29
ENDBRANCH   4  28
TORSDOF 16
ENDMDL
MODEL 2
REMARK VINA RESULT:      -7.1      2.576      7.911
REMARK  Name = 
REMARK  17 active torsions:
REMARK  status: ('A' for Active; 'I' for Inactive)
REMARK    1  A    between atoms: C_1  and  C_2
REMARK    2  A    between atoms: C_3  and  O_49
REMARK    3  A    between atoms: C_5  and  O_48
REMARK    4  A    between atoms: C_6  and  O_33
REMARK    5  A    between atoms: C_8  and  O_11
REMARK    6  A    between atoms: O_11  and  C_12
REMARK    7  A    between atoms: C_13  and  C_25
REMARK    8  A    between atoms: C_17  and  O_24
REMARK    9  A    between atoms: C_19  and  O_23
REMARK   10  A    between atoms: C_27  and  O_32
REMARK   11  A    between atoms: C_28  and  O_31
REMARK   12  A    between atoms: O_33  and  C_34
REMARK   13  A    between atoms: C_36  and  O_47
REMARK   14  A    between atoms: C_37  and  O_46
REMARK   15  A    between atoms: C_39  and  O_45
REMARK   16  A    between atoms: C_41  and  C_43
REMARK   17  A    between atoms: C_43  and  O_44
REMARK                            x       y       z     vdW  Elec       q    Type
REMARK                         _______ _______ _______ _____ _____    ______ ____
ROOT
ATOM      1  C   UNL     1      10.134   1.471  21.795  0.00  0.00    +0.041 C 
ATOM      2  C   UNL     1       8.878   0.681  22.140  0.00  0.00    +0.150 C 
ATOM      3  O   UNL     1       8.141   1.297  23.195  0.00  0.00    -0.334 OA
ATOM      4  C   UNL     1       8.616   1.229  24.551  0.00  0.00    +0.340 C 
ATOM      5  C   UNL     1       8.890  -0.292  24.898  0.00  0.00    +0.221 C 
ATOM      6  C   UNL     1       9.819  -0.932  23.810  0.00  0.00    +0.180 C 
ATOM      7  C   UNL     1       9.201  -0.790  22.407  0.00  0.00    +0.174 C 
ENDROOT
BRANCH   7   8
ATOM      8  O   UNL     1       8.016  -1.595  22.278  0.00  0.00    -0.387 OA
ATOM      9  H   UNL     1       7.303  -1.012  21.940  0.00  0.00    +0.210 HD
ENDBRANCH   7   8
BRANCH   6  10
ATOM     10  O   UNL     1      10.010  -2.345  24.066  0.00  0.00    -0.386 OA
ATOM     11  H   UNL     1      10.620  -2.382  24.837  0.00  0.00    +0.210 HD
ENDBRANCH   6  10
BRANCH   5  12
ATOM     12  O   UNL     1       7.754  -1.171  24.804  0.00  0.00    -0.337 OA
BRANCH  12  13
ATOM     13  C   UNL     1       7.310  -1.863  25.959  0.00  0.00    +0.282 C 
ATOM     14  O   UNL     1       8.002  -3.075  26.245  0.00  0.00    -0.341 OA
ATOM     15  C   UNL     1       8.012  -4.024  25.175  0.00  0.00    +0.178 C 
ATOM     16  C   UNL     1       6.615  -4.388  24.636  0.00  0.00    +0.177 C 
ATOM     17  C   UNL     1       5.590  -3.246  24.651  0.00  0.00    +0.179 C 
ATOM     18  C   UNL     1       5.812  -2.207  25.768  0.00  0.00    +0.201 C 
BRANCH  18  19
ATOM     19  O   UNL     1       5.010  -1.047  25.493  0.00  0.00    -0.384 OA
ATOM     20  H   UNL     1       4.610  -0.793  26.352  0.00  0.00    +0.210 HD
ENDBRANCH  18  19
BRANCH  17  21
ATOM     21  O   UNL     1       5.524  -2.577  23.374  0.00  0.00    -0.386 OA
ATOM     22  H   UNL     1       4.803  -3.030  22.888  0.00  0.00    +0.210 HD
ENDBRANCH  17  21
BRANCH  16  23
ATOM     23  O   UNL     1       6.705  -4.959  23.325  0.00  0.00    -0.386 OA
ATOM     24  H   UNL     1       7.215  -5.789  23.390  0.00  0.00    +0.210 HD
ENDBRANCH  16  23
BRANCH  15  25
ATOM     25  C   UNL     1       8.755  -5.270  25.692  0.00  0.00    +0.190 C 
BRANCH  25  26
ATOM     26  O   UNL     1      10.039  -5.417  25.088  0.00  0.00    -0.392 OA
ATOM     27  H   UNL     1       9.981  -6.210  24.520  0.00  0.00    +0.210 HD
ENDBRANCH  25  26
ENDBRANCH  15  25
ENDBRANCH  12  13
ENDBRANCH   5  12
BRANCH   4  28
ATOM     28  O   UNL     1       7.583   1.898  25.350  0.00  0.00    -0.453 OA
BRANCH  28  29
ATOM     29  C   UNL     1       6.830   2.987  24.869  0.00  0.00    +0.214 A 
ATOM     30  C   UNL     1       5.411   2.684  24.463  0.00  0.00    +0.238 A 
ATOM     31  O   UNL     1       4.986   1.530  24.544  0.00  0.00    -0.283 OA
ATOM     32  C   UNL     1       4.566   3.789  23.927  0.00  0.00    +0.109 A 
ATOM     33  C   UNL     1       5.218   4.941  23.520  0.00  0.00    +0.147 A 
ATOM     34  C   UNL     1       4.528   5.996  22.908  0.00  0.00    +0.092 A 
ATOM     35  C   UNL     1       3.148   5.912  22.745  0.00  0.00    +0.124 A 
ATOM     36  C   UNL     1       2.464   4.787  23.180  0.00  0.00    +0.091 A 
ATOM     37  O   UNL     1       6.565   5.107  23.695  0.00  0.00    -0.451 OA
ATOM     38  C   UNL     1       3.174   3.724  23.764  0.00  0.00    +0.135 A 
ATOM     39  C   UNL     1       7.335   4.189  24.417  0.00  0.00    +0.181 A 
BRANCH  39  40
ATOM     40  C   UNL     1       8.726   4.778  24.579  0.00  0.00    +0.025 A 
ATOM     41  C   UNL     1       8.983   5.810  25.471  0.00  0.00    +0.015 A 
ATOM     42  C   UNL     1      10.215   6.496  25.511  0.00  0.00    +0.050 A 
ATOM     43  C   UNL     1      11.214   6.161  24.619  0.00  0.00    +0.158 A 
ATOM     44  C   UNL     1      11.012   5.117  23.725  0.00  0.00    +0.159 A 
ATOM     45  C   UNL     1       9.795   4.437  23.686  0.00  0.00    +0.060 A 
BRANCH  44  46
ATOM     46  O   UNL     1      12.051   4.832  22.871  0.00  0.00    -0.503 OA
ATOM     47  H   UNL     1      11.898   5.304  22.036  0.00  0.00    +0.292 HD
ENDBRANCH  44  46
BRANCH  43  48
ATOM     48  O   UNL     1      12.383   6.860  24.627  0.00  0.00    -0.503 OA
ATOM     49  H   UNL     1      13.044   6.250  25.019  0.00  0.00    +0.292 HD
ENDBRANCH  43  48
ENDBRANCH  39  40
BRANCH  38  50
ATOM     50  O   UNL     1       2.461   2.642  24.193  0.00  0.00    -0.506 OA
ATOM     51  H   UNL     1       3.026   2.067  24.732  0.00  0.00    +0.292 HD
ENDBRANCH  38  50
BRANCH  35  52
ATOM     52  O   UNL     1       2.417   6.910  22.169  0.00  0.00    -0.507 OA
ATOM     53  H   UNL     1       1.577   6.554  21.829  0.00  0.00    +0.292 HD
ENDBRANCH  35  52
ENDBRANCH  28  29
ENDBRANCH   4  28
TORSDOF 16
ENDMDL
MODEL 3
REMARK VINA RESULT:      -7.0      2.236      8.344
REMARK  Name = 
REMARK  17 active torsions:
REMARK  status: ('A' for Active; 'I' for Inactive)
REMARK    1  A    between atoms: C_1  and  C_2
REMARK    2  A    between atoms: C_3  and  O_49
REMARK    3  A    between atoms: C_5  and  O_48
REMARK    4  A    between atoms: C_6  and  O_33
REMARK    5  A    between atoms: C_8  and  O_11
REMARK    6  A    between atoms: O_11  and  C_12
REMARK    7  A    between atoms: C_13  and  C_25
REMARK    8  A    between atoms: C_17  and  O_24
REMARK    9  A    between atoms: C_19  and  O_23
REMARK   10  A    between atoms: C_27  and  O_32
REMARK   11  A    between atoms: C_28  and  O_31
REMARK   12  A    between atoms: O_33  and  C_34
REMARK   13  A    between atoms: C_36  and  O_47
REMARK   14  A    between atoms: C_37  and  O_46
REMARK   15  A    between atoms: C_39  and  O_45
REMARK   16  A    between atoms: C_41  and  C_43
REMARK   17  A    between atoms: C_43  and  O_44
REMARK                            x       y       z     vdW  Elec       q    Type
REMARK                         _______ _______ _______ _____ _____    ______ ____
ROOT
ATOM      1  C   UNL     1       9.885  -2.450  23.947  0.00  0.00    +0.041 C 
ATOM      2  C   UNL     1       8.599  -3.128  23.488  0.00  0.00    +0.150 C 
ATOM      3  O   UNL     1       7.456  -2.309  23.733  0.00  0.00    -0.334 OA
ATOM      4  C   UNL     1       6.951  -2.145  25.070  0.00  0.00    +0.340 C 
ATOM      5  C   UNL     1       6.729  -3.586  25.690  0.00  0.00    +0.221 C 
ATOM      6  C   UNL     1       8.036  -4.439  25.547  0.00  0.00    +0.180 C 
ATOM      7  C   UNL     1       8.472  -4.535  24.073  0.00  0.00    +0.174 C 
ENDROOT
BRANCH   7   8
ATOM      8  O   UNL     1       7.538  -5.315  23.305  0.00  0.00    -0.387 OA
ATOM      9  H   UNL     1       7.334  -6.121  23.827  0.00  0.00    +0.210 HD
ENDBRANCH   7   8
BRANCH   6  10
ATOM     10  O   UNL     1       7.822  -5.788  26.031  0.00  0.00    -0.386 OA
ATOM     11  H   UNL     1       8.594  -6.301  25.696  0.00  0.00    +0.210 HD
ENDBRANCH   6  10
BRANCH   5  12
ATOM     12  O   UNL     1       5.800  -4.433  24.988  0.00  0.00    -0.337 OA
BRANCH  12  13
ATOM     13  C   UNL     1       4.474  -3.984  24.772  0.00  0.00    +0.282 C 
ATOM     14  O   UNL     1       3.496  -4.527  25.655  0.00  0.00    -0.341 OA
ATOM     15  C   UNL     1       3.447  -5.956  25.687  0.00  0.00    +0.178 C 
ATOM     16  C   UNL     1       3.261  -6.616  24.306  0.00  0.00    +0.177 C 
ATOM     17  C   UNL     1       3.937  -5.887  23.137  0.00  0.00    +0.179 C 
ATOM     18  C   UNL     1       4.067  -4.364  23.326  0.00  0.00    +0.201 C 
BRANCH  18  19
ATOM     19  O   UNL     1       4.978  -3.846  22.343  0.00  0.00    -0.384 OA
ATOM     20  H   UNL     1       5.636  -3.317  22.845  0.00  0.00    +0.210 HD
ENDBRANCH  18  19
BRANCH  17  21
ATOM     21  O   UNL     1       5.234  -6.451  22.842  0.00  0.00    -0.386 OA
ATOM     22  H   UNL     1       5.776  -6.267  23.637  0.00  0.00    +0.210 HD
ENDBRANCH  17  21
BRANCH  16  23
ATOM     23  O   UNL     1       3.664  -7.990  24.338  0.00  0.00    -0.386 OA
ATOM     24  H   UNL     1       2.885  -8.541  24.132  0.00  0.00    +0.210 HD
ENDBRANCH  16  23
BRANCH  15  25
ATOM     25  C   UNL     1       2.308  -6.341  26.650  0.00  0.00    +0.190 C 
BRANCH  25  26
ATOM     26  O   UNL     1       2.406  -7.698  27.078  0.00  0.00    -0.392 OA
ATOM     27  H   UNL     1       1.492  -8.043  27.094  0.00  0.00    +0.210 HD
ENDBRANCH  25  26
ENDBRANCH  15  25
ENDBRANCH  12  13
ENDBRANCH   5  12
BRANCH   4  28
ATOM     28  O   UNL     1       5.752  -1.313  24.923  0.00  0.00    -0.453 OA
BRANCH  28  29
ATOM     29  C   UNL     1       5.604  -0.065  25.560  0.00  0.00    +0.214 A 
ATOM     30  C   UNL     1       4.382   0.096  26.426  0.00  0.00    +0.238 A 
ATOM     31  O   UNL     1       3.575  -0.831  26.522  0.00  0.00    -0.283 OA
ATOM     32  C   UNL     1       4.155   1.400  27.112  0.00  0.00    +0.109 A 
ATOM     33  C   UNL     1       4.885   2.486  26.660  0.00  0.00    +0.147 A 
ATOM     34  C   UNL     1       4.672   3.775  27.168  0.00  0.00    +0.092 A 
ATOM     35  C   UNL     1       3.740   3.968  28.185  0.00  0.00    +0.124 A 
ATOM     36  C   UNL     1       3.024   2.891  28.685  0.00  0.00    +0.091 A 
ATOM     37  O   UNL     1       5.848   2.356  25.697  0.00  0.00    -0.451 OA
ATOM     38  C   UNL     1       3.227   1.609  28.144  0.00  0.00    +0.135 A 
ATOM     39  C   UNL     1       6.249   1.106  25.217  0.00  0.00    +0.181 A 
BRANCH  39  40
ATOM     40  C   UNL     1       7.455   1.320  24.319  0.00  0.00    +0.025 A 
ATOM     41  C   UNL     1       8.640   1.857  24.802  0.00  0.00    +0.015 A 
ATOM     42  C   UNL     1       9.707   2.235  23.960  0.00  0.00    +0.050 A 
ATOM     43  C   UNL     1       9.581   2.097  22.592  0.00  0.00    +0.158 A 
ATOM     44  C   UNL     1       8.424   1.538  22.064  0.00  0.00    +0.159 A 
ATOM     45  C   UNL     1       7.369   1.163  22.895  0.00  0.00    +0.060 A 
BRANCH  44  46
ATOM     46  O   UNL     1       8.369   1.424  20.695  0.00  0.00    -0.503 OA
ATOM     47  H   UNL     1       8.250   2.311  20.318  0.00  0.00    +0.292 HD
ENDBRANCH  44  46
BRANCH  43  48
ATOM     48  O   UNL     1      10.593   2.511  21.780  0.00  0.00    -0.503 OA
ATOM     49  H   UNL     1      10.908   3.355  22.171  0.00  0.00    +0.292 HD
ENDBRANCH  43  48
ENDBRANCH  39  40
BRANCH  38  50
ATOM     50  O   UNL     1       2.513   0.574  28.675  0.00  0.00    -0.506 OA
ATOM     51  H   UNL     1       2.874  -0.270  28.364  0.00  0.00    +0.292 HD
ENDBRANCH  38  50
BRANCH  35  52
ATOM     52  O   UNL     1       3.496   5.194  28.730  0.00  0.00    -0.507 OA
ATOM     53  H   UNL     1       2.632   5.194  29.179  0.00  0.00    +0.292 HD
ENDBRANCH  35  52
ENDBRANCH  28  29
ENDBRANCH   4  28
TORSDOF 16
ENDMDL
MODEL 4
REMARK VINA RESULT:      -6.9      2.338      4.245
REMARK  Name = 
REMARK  17 active torsions:
REMARK  status: ('A' for Active; 'I' for Inactive)
REMARK    1  A    between atoms: C_1  and  C_2
REMARK    2  A    between atoms: C_3  and  O_49
REMARK    3  A    between atoms: C_5  and  O_48
REMARK    4  A    between atoms: C_6  and  O_33
REMARK    5  A    between atoms: C_8  and  O_11
REMARK    6  A    between atoms: O_11  and  C_12
REMARK    7  A    between atoms: C_13  and  C_25
REMARK    8  A    between atoms: C_17  and  O_24
REMARK    9  A    between atoms: C_19  and  O_23
REMARK   10  A    between atoms: C_27  and  O_32
REMARK   11  A    between atoms: C_28  and  O_31
REMARK   12  A    between atoms: O_33  and  C_34
REMARK   13  A    between atoms: C_36  and  O_47
REMARK   14  A    between atoms: C_37  and  O_46
REMARK   15  A    between atoms: C_39  and  O_45
REMARK   16  A    between atoms: C_41  and  C_43
REMARK   17  A    between atoms: C_43  and  O_44
REMARK                            x       y       z     vdW  Elec       q    Type
REMARK                         _______ _______ _______ _____ _____    ______ ____
ROOT
ATOM      1  C   UNL     1      10.095  -1.813  23.068  0.00  0.00    +0.041 C 
ATOM      2  C   UNL     1      10.015  -0.363  23.531  0.00  0.00    +0.150 C 
ATOM      3  O   UNL     1       8.966  -0.170  24.478  0.00  0.00    -0.334 OA
ATOM      4  C   UNL     1       7.592  -0.161  24.053  0.00  0.00    +0.340 C 
ATOM      5  C   UNL     1       7.452   0.883  22.870  0.00  0.00    +0.221 C 
ATOM      6  C   UNL     1       8.515   0.581  21.759  0.00  0.00    +0.180 C 
ATOM      7  C   UNL     1       9.941   0.597  22.343  0.00  0.00    +0.174 C 
ENDROOT
BRANCH   7   8
ATOM      8  O   UNL     1      10.321   1.925  22.746  0.00  0.00    -0.387 OA
ATOM      9  H   UNL     1      10.627   2.397  21.942  0.00  0.00    +0.210 HD
ENDBRANCH   7   8
BRANCH   6  10
ATOM     10  O   UNL     1       8.459   1.578  20.710  0.00  0.00    -0.386 OA
ATOM     11  H   UNL     1       7.852   1.199  20.034  0.00  0.00    +0.210 HD
ENDBRANCH   6  10
BRANCH   5  12
ATOM     12  O   UNL     1       7.804   2.242  23.189  0.00  0.00    -0.337 OA
BRANCH  12  13
ATOM     13  C   UNL     1       6.930   3.018  23.990  0.00  0.00    +0.282 C 
ATOM     14  O   UNL     1       6.307   4.114  23.326  0.00  0.00    -0.341 OA
ATOM     15  C   UNL     1       7.214   5.026  22.700  0.00  0.00    +0.178 C 
ATOM     16  C   UNL     1       8.295   5.593  23.643  0.00  0.00    +0.177 C 
ATOM     17  C   UNL     1       8.790   4.624  24.725  0.00  0.00    +0.179 C 
ATOM     18  C   UNL     1       7.744   3.587  25.178  0.00  0.00    +0.201 C 
BRANCH  18  19
ATOM     19  O   UNL     1       8.403   2.560  25.938  0.00  0.00    -0.384 OA
ATOM     20  H   UNL     1       7.734   2.235  26.578  0.00  0.00    +0.210 HD
ENDBRANCH  18  19
BRANCH  17  21
ATOM     21  O   UNL     1       9.998   3.947  24.317  0.00  0.00    -0.386 OA
ATOM     22  H   UNL     1      10.356   4.490  23.583  0.00  0.00    +0.210 HD
ENDBRANCH  17  21
BRANCH  16  23
ATOM     23  O   UNL     1       9.400   6.114  22.897  0.00  0.00    -0.386 OA
ATOM     24  H   UNL     1       9.078   6.864  22.360  0.00  0.00    +0.210 HD
ENDBRANCH  16  23
BRANCH  15  25
ATOM     25  C   UNL     1       6.360   6.153  22.088  0.00  0.00    +0.190 C 
BRANCH  25  26
ATOM     26  O   UNL     1       7.064   6.866  21.073  0.00  0.00    -0.392 OA
ATOM     27  H   UNL     1       6.442   6.956  20.325  0.00  0.00    +0.210 HD
ENDBRANCH  25  26
ENDBRANCH  15  25
ENDBRANCH  12  13
ENDBRANCH   5  12
BRANCH   4  28
ATOM     28  O   UNL     1       6.820   0.129  25.266  0.00  0.00    -0.453 OA
BRANCH  28  29
ATOM     29  C   UNL     1       5.827  -0.735  25.767  0.00  0.00    +0.214 A 
ATOM     30  C   UNL     1       4.664  -0.077  26.462  0.00  0.00    +0.238 A 
ATOM     31  O   UNL     1       4.639   1.149  26.581  0.00  0.00    -0.283 OA
ATOM     32  C   UNL     1       3.589  -0.936  27.034  0.00  0.00    +0.109 A 
ATOM     33  C   UNL     1       3.875  -2.282  27.192  0.00  0.00    +0.147 A 
ATOM     34  C   UNL     1       2.972  -3.155  27.814  0.00  0.00    +0.092 A 
ATOM     35  C   UNL     1       1.736  -2.676  28.242  0.00  0.00    +0.124 A 
ATOM     36  C   UNL     1       1.407  -1.341  28.059  0.00  0.00    +0.091 A 
ATOM     37  O   UNL     1       5.050  -2.826  26.750  0.00  0.00    -0.451 OA
ATOM     38  C   UNL     1       2.336  -0.471  27.462  0.00  0.00    +0.135 A 
ATOM     39  C   UNL     1       5.966  -2.090  25.992  0.00  0.00    +0.181 A 
BRANCH  39  40
ATOM     40  C   UNL     1       7.044  -3.047  25.512  0.00  0.00    +0.025 A 
ATOM     41  C   UNL     1       6.944  -3.710  24.296  0.00  0.00    +0.015 A 
ATOM     42  C   UNL     1       7.832  -4.735  23.911  0.00  0.00    +0.050 A 
ATOM     43  C   UNL     1       8.837  -5.131  24.771  0.00  0.00    +0.158 A 
ATOM     44  C   UNL     1       8.993  -4.477  25.987  0.00  0.00    +0.159 A 
ATOM     45  C   UNL     1       8.116  -3.462  26.369  0.00  0.00    +0.060 A 
BRANCH  44  46
ATOM     46  O   UNL     1      10.018  -4.916  26.790  0.00  0.00    -0.503 OA
ATOM     47  H   UNL     1      10.499  -5.616  26.319  0.00  0.00    +0.292 HD
ENDBRANCH  44  46
BRANCH  43  48
ATOM     48  O   UNL     1       9.660  -6.156  24.415  0.00  0.00    -0.503 OA
ATOM     49  H   UNL     1      10.134  -6.402  25.239  0.00  0.00    +0.292 HD
ENDBRANCH  43  48
ENDBRANCH  39  40
BRANCH  38  50
ATOM     50  O   UNL     1       1.968   0.831  27.287  0.00  0.00    -0.506 OA
ATOM     51  H   UNL     1       1.079   0.875  26.905  0.00  0.00    +0.292 HD
ENDBRANCH  38  50
BRANCH  35  52
ATOM     52  O   UNL     1       0.809  -3.477  28.842  0.00  0.00    -0.507 OA
ATOM     53  H   UNL     1       0.323  -3.985  28.170  0.00  0.00    +0.292 HD
ENDBRANCH  35  52
ENDBRANCH  28  29
ENDBRANCH   4  28
TORSDOF 16
ENDMDL
MODEL 5
REMARK VINA RESULT:      -6.7      2.435      4.623
REMARK  Name = 
REMARK  17 active torsions:
REMARK  status: ('A' for Active; 'I' for Inactive)
REMARK    1  A    between atoms: C_1  and  C_2
REMARK    2  A    between atoms: C_3  and  O_49
REMARK    3  A    between atoms: C_5  and  O_48
REMARK    4  A    between atoms: C_6  and  O_33
REMARK    5  A    between atoms: C_8  and  O_11
REMARK    6  A    between atoms: O_11  and  C_12
REMARK    7  A    between atoms: C_13  and  C_25
REMARK    8  A    between atoms: C_17  and  O_24
REMARK    9  A    between atoms: C_19  and  O_23
REMARK   10  A    between atoms: C_27  and  O_32
REMARK   11  A    between atoms: C_28  and  O_31
REMARK   12  A    between atoms: O_33  and  C_34
REMARK   13  A    between atoms: C_36  and  O_47
REMARK   14  A    between atoms: C_37  and  O_46
REMARK   15  A    between atoms: C_39  and  O_45
REMARK   16  A    between atoms: C_41  and  C_43
REMARK   17  A    between atoms: C_43  and  O_44
REMARK                            x       y       z     vdW  Elec       q    Type
REMARK                         _______ _______ _______ _____ _____    ______ ____
ROOT
ATOM      1  C   UNL     1       2.711   2.459  27.757  0.00  0.00    +0.041 C 
ATOM      2  C   UNL     1       3.296   2.737  26.378  0.00  0.00    +0.150 C 
ATOM      3  O   UNL     1       3.686   1.533  25.718  0.00  0.00    -0.334 OA
ATOM      4  C   UNL     1       4.869   0.827  26.131  0.00  0.00    +0.340 C 
ATOM      5  C   UNL     1       6.074   1.855  26.140  0.00  0.00    +0.221 C 
ATOM      6  C   UNL     1       5.696   3.119  26.986  0.00  0.00    +0.180 C 
ATOM      7  C   UNL     1       4.413   3.779  26.445  0.00  0.00    +0.174 C 
ENDROOT
BRANCH   7   8
ATOM      8  O   UNL     1       4.636   4.361  25.149  0.00  0.00    -0.387 OA
ATOM      9  H   UNL     1       4.727   5.330  25.277  0.00  0.00    +0.210 HD
ENDBRANCH   7   8
BRANCH   6  10
ATOM     10  O   UNL     1       6.754   4.107  26.933  0.00  0.00    -0.386 OA
ATOM     11  H   UNL     1       7.582   3.598  27.092  0.00  0.00    +0.210 HD
ENDBRANCH   6  10
BRANCH   5  12
ATOM     12  O   UNL     1       6.374   2.481  24.879  0.00  0.00    -0.337 OA
BRANCH  12  13
ATOM     13  C   UNL     1       7.548   2.108  24.178  0.00  0.00    +0.282 C 
ATOM     14  O   UNL     1       8.585   3.084  24.164  0.00  0.00    -0.341 OA
ATOM     15  C   UNL     1       8.193   4.365  23.662  0.00  0.00    +0.178 C 
ATOM     16  C   UNL     1       7.557   4.328  22.258  0.00  0.00    +0.177 C 
ATOM     17  C   UNL     1       6.711   3.083  21.957  0.00  0.00    +0.179 C 
ATOM     18  C   UNL     1       7.158   1.814  22.708  0.00  0.00    +0.201 C 
BRANCH  18  19
ATOM     19  O   UNL     1       6.126   0.819  22.599  0.00  0.00    -0.384 OA
ATOM     20  H   UNL     1       6.374   0.265  21.828  0.00  0.00    +0.210 HD
ENDBRANCH  18  19
BRANCH  17  21
ATOM     21  O   UNL     1       5.309   3.324  22.204  0.00  0.00    -0.386 OA
ATOM     22  H   UNL     1       4.991   2.518  22.663  0.00  0.00    +0.210 HD
ENDBRANCH  17  21
BRANCH  16  23
ATOM     23  O   UNL     1       6.799   5.517  22.010  0.00  0.00    -0.386 OA
ATOM     24  H   UNL     1       6.810   5.690  21.049  0.00  0.00    +0.210 HD
ENDBRANCH  16  23
BRANCH  15  25
ATOM     25  C   UNL     1       9.451   5.254  23.682  0.00  0.00    +0.190 C 
BRANCH  25  26
ATOM     26  O   UNL     1       9.279   6.441  22.910  0.00  0.00    -0.392 OA
ATOM     27  H   UNL     1       8.319   6.624  22.905  0.00  0.00    +0.210 HD
ENDBRANCH  25  26
ENDBRANCH  15  25
ENDBRANCH  12  13
ENDBRANCH   5  12
BRANCH   4  28
ATOM     28  O   UNL     1       4.986  -0.297  25.197  0.00  0.00    -0.453 OA
BRANCH  28  29
ATOM     29  C   UNL     1       5.295  -1.608  25.610  0.00  0.00    +0.214 A 
ATOM     30  C   UNL     1       4.160  -2.400  26.206  0.00  0.00    +0.238 A 
ATOM     31  O   UNL     1       3.049  -1.881  26.324  0.00  0.00    -0.283 OA
ATOM     32  C   UNL     1       4.426  -3.787  26.683  0.00  0.00    +0.109 A 
ATOM     33  C   UNL     1       5.751  -4.150  26.861  0.00  0.00    +0.147 A 
ATOM     34  C   UNL     1       6.104  -5.393  27.403  0.00  0.00    +0.092 A 
ATOM     35  C   UNL     1       5.107  -6.310  27.726  0.00  0.00    +0.124 A 
ATOM     36  C   UNL     1       3.774  -5.989  27.519  0.00  0.00    +0.091 A 
ATOM     37  O   UNL     1       6.779  -3.314  26.520  0.00  0.00    -0.451 OA
ATOM     38  C   UNL     1       3.434  -4.726  27.005  0.00  0.00    +0.135 A 
ATOM     39  C   UNL     1       6.559  -2.110  25.844  0.00  0.00    +0.181 A 
BRANCH  39  40
ATOM     40  C   UNL     1       7.914  -1.544  25.454  0.00  0.00    +0.025 A 
ATOM     41  C   UNL     1       8.638  -0.726  26.310  0.00  0.00    +0.015 A 
ATOM     42  C   UNL     1       9.803  -0.041  25.908  0.00  0.00    +0.050 A 
ATOM     43  C   UNL     1      10.250  -0.154  24.606  0.00  0.00    +0.158 A 
ATOM     44  C   UNL     1       9.573  -0.984  23.721  0.00  0.00    +0.159 A 
ATOM     45  C   UNL     1       8.421  -1.662  24.117  0.00  0.00    +0.060 A 
BRANCH  44  46
ATOM     46  O   UNL     1      10.076  -1.056  22.443  0.00  0.00    -0.503 OA
ATOM     47  H   UNL     1      10.456  -0.192  22.215  0.00  0.00    +0.292 HD
ENDBRANCH  44  46
BRANCH  43  48
ATOM     48  O   UNL     1      11.346   0.549  24.209  0.00  0.00    -0.503 OA
ATOM     49  H   UNL     1      12.068   0.258  24.806  0.00  0.00    +0.292 HD
ENDBRANCH  43  48
ENDBRANCH  39  40
BRANCH  38  50
ATOM     50  O   UNL     1       2.112  -4.455  26.802  0.00  0.00    -0.506 OA
ATOM     51  H   UNL     1       1.634  -4.491  27.644  0.00  0.00    +0.292 HD
ENDBRANCH  38  50
BRANCH  35  52
ATOM     52  O   UNL     1       5.385  -7.541  28.244  0.00  0.00    -0.507 OA
ATOM     53  H   UNL     1       5.422  -8.202  27.531  0.00  0.00    +0.292 HD
ENDBRANCH  35  52
ENDBRANCH  28  29
ENDBRANCH   4  28
TORSDOF 16
ENDMDL
MODEL 6
REMARK VINA RESULT:      -6.6      1.784      4.678
REMARK  Name = 
REMARK  17 active torsions:
REMARK  status: ('A' for Active; 'I' for Inactive)
REMARK    1  A    between atoms: C_1  and  C_2
REMARK    2  A    between atoms: C_3  and  O_49
REMARK    3  A    between atoms: C_5  and  O_48
REMARK    4  A    between atoms: C_6  and  O_33
REMARK    5  A    between atoms: C_8  and  O_11
REMARK    6  A    between atoms: O_11  and  C_12
REMARK    7  A    between atoms: C_13  and  C_25
REMARK    8  A    between atoms: C_17  and  O_24
REMARK    9  A    between atoms: C_19  and  O_23
REMARK   10  A    between atoms: C_27  and  O_32
REMARK   11  A    between atoms: C_28  and  O_31
REMARK   12  A    between atoms: O_33  and  C_34
REMARK   13  A    between atoms: C_36  and  O_47
REMARK   14  A    between atoms: C_37  and  O_46
REMARK   15  A    between atoms: C_39  and  O_45
REMARK   16  A    between atoms: C_41  and  C_43
REMARK   17  A    between atoms: C_43  and  O_44
REMARK                            x       y       z     vdW  Elec       q    Type
REMARK                         _______ _______ _______ _____ _____    ______ ____
ROOT
ATOM      1  C   UNL     1       4.308  -0.488  29.411  0.00  0.00    +0.041 C 
ATOM      2  C   UNL     1       4.336   0.776  28.561  0.00  0.00    +0.150 C 
ATOM      3  O   UNL     1       4.441   0.475  27.171  0.00  0.00    -0.334 OA
ATOM      4  C   UNL     1       5.686   0.015  26.617  0.00  0.00    +0.340 C 
ATOM      5  C   UNL     1       6.817   1.043  27.035  0.00  0.00    +0.221 C 
ATOM      6  C   UNL     1       6.794   1.266  28.586  0.00  0.00    +0.180 C 
ATOM      7  C   UNL     1       5.408   1.752  29.050  0.00  0.00    +0.174 C 
ENDROOT
BRANCH   7   8
ATOM      8  O   UNL     1       5.135   3.080  28.568  0.00  0.00    -0.387 OA
ATOM      9  H   UNL     1       5.913   3.636  28.791  0.00  0.00    +0.210 HD
ENDBRANCH   7   8
BRANCH   6  10
ATOM     10  O   UNL     1       7.764   2.269  28.974  0.00  0.00    -0.386 OA
ATOM     11  H   UNL     1       7.262   3.116  28.983  0.00  0.00    +0.210 HD
ENDBRANCH   6  10
BRANCH   5  12
ATOM     12  O   UNL     1       6.629   2.398  26.585  0.00  0.00    -0.337 OA
BRANCH  12  13
ATOM     13  C   UNL     1       6.966   2.743  25.253  0.00  0.00    +0.282 C 
ATOM     14  O   UNL     1       8.033   3.678  25.117  0.00  0.00    -0.341 OA
ATOM     15  C   UNL     1       7.845   4.906  25.827  0.00  0.00    +0.178 C 
ATOM     16  C   UNL     1       6.528   5.635  25.495  0.00  0.00    +0.177 C 
ATOM     17  C   UNL     1       5.333   4.721  25.194  0.00  0.00    +0.179 C 
ATOM     18  C   UNL     1       5.712   3.358  24.583  0.00  0.00    +0.201 C 
BRANCH  18  19
ATOM     19  O   UNL     1       4.571   2.486  24.642  0.00  0.00    -0.384 OA
ATOM     20  H   UNL     1       4.257   2.399  23.716  0.00  0.00    +0.210 HD
ENDBRANCH  18  19
BRANCH  17  21
ATOM     21  O   UNL     1       4.516   4.516  26.367  0.00  0.00    -0.386 OA
ATOM     22  H   UNL     1       5.008   4.946  27.097  0.00  0.00    +0.210 HD
ENDBRANCH  17  21
BRANCH  16  23
ATOM     23  O   UNL     1       6.192   6.574  26.523  0.00  0.00    -0.386 OA
ATOM     24  H   UNL     1       6.694   7.395  26.361  0.00  0.00    +0.210 HD
ENDBRANCH  16  23
BRANCH  15  25
ATOM     25  C   UNL     1       9.068   5.790  25.517  0.00  0.00    +0.190 C 
BRANCH  25  26
ATOM     26  O   UNL     1       9.854   5.261  24.450  0.00  0.00    -0.392 OA
ATOM     27  H   UNL     1      10.390   6.005  24.115  0.00  0.00    +0.210 HD
ENDBRANCH  25  26
ENDBRANCH  15  25
ENDBRANCH  12  13
ENDBRANCH   5  12
BRANCH   4  28
ATOM     28  O   UNL     1       5.435  -0.120  25.178  0.00  0.00    -0.453 OA
BRANCH  28  29
ATOM     29  C   UNL     1       5.844  -1.243  24.432  0.00  0.00    +0.214 A 
ATOM     30  C   UNL     1       4.955  -2.456  24.520  0.00  0.00    +0.238 A 
ATOM     31  O   UNL     1       3.952  -2.428  25.235  0.00  0.00    -0.283 OA
ATOM     32  C   UNL     1       5.342  -3.685  23.770  0.00  0.00    +0.109 A 
ATOM     33  C   UNL     1       6.647  -3.759  23.311  0.00  0.00    +0.147 A 
ATOM     34  C   UNL     1       7.139  -4.914  22.686  0.00  0.00    +0.092 A 
ATOM     35  C   UNL     1       6.289  -5.996  22.474  0.00  0.00    +0.124 A 
ATOM     36  C   UNL     1       4.967  -5.933  22.887  0.00  0.00    +0.091 A 
ATOM     37  O   UNL     1       7.518  -2.714  23.445  0.00  0.00    -0.451 OA
ATOM     38  C   UNL     1       4.496  -4.781  23.541  0.00  0.00    +0.135 A 
ATOM     39  C   UNL     1       7.107  -1.465  23.922  0.00  0.00    +0.181 A 
BRANCH  39  40
ATOM     40  C   UNL     1       8.267  -0.499  23.753  0.00  0.00    +0.025 A 
ATOM     41  C   UNL     1       9.180  -0.267  24.772  0.00  0.00    +0.015 A 
ATOM     42  C   UNL     1      10.151   0.753  24.711  0.00  0.00    +0.050 A 
ATOM     43  C   UNL     1      10.202   1.585  23.610  0.00  0.00    +0.158 A 
ATOM     44  C   UNL     1       9.327   1.373  22.552  0.00  0.00    +0.159 A 
ATOM     45  C   UNL     1       8.366   0.364  22.612  0.00  0.00    +0.060 A 
BRANCH  44  46
ATOM     46  O   UNL     1       9.437   2.233  21.485  0.00  0.00    -0.503 OA
ATOM     47  H   UNL     1      10.004   1.818  20.815  0.00  0.00    +0.292 HD
ENDBRANCH  44  46
BRANCH  43  48
ATOM     48  O   UNL     1      11.108   2.600  23.577  0.00  0.00    -0.503 OA
ATOM     49  H   UNL     1      11.724   2.419  24.319  0.00  0.00    +0.292 HD
ENDBRANCH  43  48
ENDBRANCH  39  40
BRANCH  38  50
ATOM     50  O   UNL     1       3.185  -4.753  23.918  0.00  0.00    -0.506 OA
ATOM     51  H   UNL     1       2.848  -3.845  23.878  0.00  0.00    +0.292 HD
ENDBRANCH  38  50
BRANCH  35  52
ATOM     52  O   UNL     1       6.703  -7.142  21.860  0.00  0.00    -0.507 OA
ATOM     53  H   UNL     1       7.645  -7.073  21.627  0.00  0.00    +0.292 HD
ENDBRANCH  35  52
ENDBRANCH  28  29
ENDBRANCH   4  28
TORSDOF 16
ENDMDL
MODEL 7
REMARK VINA RESULT:      -6.6      2.282      9.218
REMARK  Name = 
REMARK  17 active torsions:
REMARK  status: ('A' for Active; 'I' for Inactive)
REMARK    1  A    between atoms: C_1  and  C_2
REMARK    2  A    between atoms: C_3  and  O_49
REMARK    3  A    between atoms: C_5  and  O_48
REMARK    4  A    between atoms: C_6  and  O_33
REMARK    5  A    between atoms: C_8  and  O_11
REMARK    6  A    between atoms: O_11  and  C_12
REMARK    7  A    between atoms: C_13  and  C_25
REMARK    8  A    between atoms: C_17  and  O_24
REMARK    9  A    between atoms: C_19  and  O_23
REMARK   10  A    between atoms: C_27  and  O_32
REMARK   11  A    between atoms: C_28  and  O_31
REMARK   12  A    between atoms: O_33  and  C_34
REMARK   13  A    between atoms: C_36  and  O_47
REMARK   14  A    between atoms: C_37  and  O_46
REMARK   15  A    between atoms: C_39  and  O_45
REMARK   16  A    between atoms: C_41  and  C_43
REMARK   17  A    between atoms: C_43  and  O_44
REMARK                            x       y       z     vdW  Elec       q    Type
REMARK                         _______ _______ _______ _____ _____    ______ ____
ROOT
ATOM      1  C   UNL     1       2.231  -0.211  28.539  0.00  0.00    +0.041 C 
ATOM      2  C   UNL     1       3.195  -1.237  29.121  0.00  0.00    +0.150 C 
ATOM      3  O   UNL     1       4.523  -1.050  28.633  0.00  0.00    -0.334 OA
ATOM      4  C   UNL     1       4.862  -1.423  27.286  0.00  0.00    +0.340 C 
ATOM      5  C   UNL     1       4.410  -2.925  27.065  0.00  0.00    +0.221 C 
ATOM      6  C   UNL     1       2.906  -3.098  27.469  0.00  0.00    +0.180 C 
ATOM      7  C   UNL     1       2.675  -2.662  28.928  0.00  0.00    +0.174 C 
ENDROOT
BRANCH   7   8
ATOM      8  O   UNL     1       3.321  -3.562  29.846  0.00  0.00    -0.387 OA
ATOM      9  H   UNL     1       3.535  -3.048  30.654  0.00  0.00    +0.210 HD
ENDBRANCH   7   8
BRANCH   6  10
ATOM     10  O   UNL     1       2.501  -4.484  27.354  0.00  0.00    -0.386 OA
ATOM     11  H   UNL     1       3.341  -4.984  27.238  0.00  0.00    +0.210 HD
ENDBRANCH   6  10
BRANCH   5  12
ATOM     12  O   UNL     1       5.016  -3.897  27.937  0.00  0.00    -0.337 OA
BRANCH  12  13
ATOM     13  C   UNL     1       6.121  -4.654  27.476  0.00  0.00    +0.282 C 
ATOM     14  O   UNL     1       6.040  -5.085  26.120  0.00  0.00    -0.341 OA
ATOM     15  C   UNL     1       4.864  -5.834  25.800  0.00  0.00    +0.178 C 
ATOM     16  C   UNL     1       4.628  -7.060  26.705  0.00  0.00    +0.177 C 
ATOM     17  C   UNL     1       5.067  -6.889  28.165  0.00  0.00    +0.179 C 
ATOM     18  C   UNL     1       6.245  -5.916  28.365  0.00  0.00    +0.201 C 
BRANCH  18  19
ATOM     19  O   UNL     1       6.355  -5.597  29.762  0.00  0.00    -0.384 OA
ATOM     20  H   UNL     1       7.174  -6.043  30.071  0.00  0.00    +0.210 HD
ENDBRANCH  18  19
BRANCH  17  21
ATOM     21  O   UNL     1       3.963  -6.494  29.007  0.00  0.00    -0.386 OA
ATOM     22  H   UNL     1       4.179  -6.854  29.893  0.00  0.00    +0.210 HD
ENDBRANCH  17  21
BRANCH  16  23
ATOM     23  O   UNL     1       3.262  -7.485  26.642  0.00  0.00    -0.386 OA
ATOM     24  H   UNL     1       3.225  -8.428  26.892  0.00  0.00    +0.210 HD
ENDBRANCH  16  23
BRANCH  15  25
ATOM     25  C   UNL     1       4.987  -6.245  24.321  0.00  0.00    +0.190 C 
BRANCH  25  26
ATOM     26  O   UNL     1       4.359  -7.500  24.061  0.00  0.00    -0.392 OA
ATOM     27  H   UNL     1       3.523  -7.493  24.566  0.00  0.00    +0.210 HD
ENDBRANCH  25  26
ENDBRANCH  15  25
ENDBRANCH  12  13
ENDBRANCH   5  12
BRANCH   4  28
ATOM     28  O   UNL     1       6.300  -1.157  27.169  0.00  0.00    -0.453 OA
BRANCH  28  29
ATOM     29  C   UNL     1       6.840  -0.274  26.213  0.00  0.00    +0.214 A 
ATOM     30  C   UNL     1       6.841   1.186  26.584  0.00  0.00    +0.238 A 
ATOM     31  O   UNL     1       6.364   1.542  27.663  0.00  0.00    -0.283 OA
ATOM     32  C   UNL     1       7.380   2.174  25.607  0.00  0.00    +0.109 A 
ATOM     33  C   UNL     1       7.539   1.747  24.300  0.00  0.00    +0.147 A 
ATOM     34  C   UNL     1       7.940   2.626  23.285  0.00  0.00    +0.092 A 
ATOM     35  C   UNL     1       8.236   3.950  23.600  0.00  0.00    +0.124 A 
ATOM     36  C   UNL     1       8.125   4.395  24.908  0.00  0.00    +0.091 A 
ATOM     37  O   UNL     1       7.311   0.448  23.933  0.00  0.00    -0.451 OA
ATOM     38  C   UNL     1       7.691   3.509  25.910  0.00  0.00    +0.135 A 
ATOM     39  C   UNL     1       7.044  -0.549  24.876  0.00  0.00    +0.181 A 
BRANCH  39  40
ATOM     40  C   UNL     1       7.042  -1.884  24.150  0.00  0.00    +0.025 A 
ATOM     41  C   UNL     1       8.007  -2.851  24.396  0.00  0.00    +0.015 A 
ATOM     42  C   UNL     1       8.137  -4.016  23.611  0.00  0.00    +0.050 A 
ATOM     43  C   UNL     1       7.297  -4.213  22.534  0.00  0.00    +0.158 A 
ATOM     44  C   UNL     1       6.298  -3.286  22.266  0.00  0.00    +0.159 A 
ATOM     45  C   UNL     1       6.168  -2.134  23.041  0.00  0.00    +0.060 A 
BRANCH  44  46
ATOM     46  O   UNL     1       5.494  -3.549  21.183  0.00  0.00    -0.503 OA
ATOM     47  H   UNL     1       4.767  -4.124  21.474  0.00  0.00    +0.292 HD
ENDBRANCH  44  46
BRANCH  43  48
ATOM     48  O   UNL     1       7.460  -5.315  21.749  0.00  0.00    -0.503 OA
ATOM     49  H   UNL     1       6.888  -6.003  22.151  0.00  0.00    +0.292 HD
ENDBRANCH  43  48
ENDBRANCH  39  40
BRANCH  38  50
ATOM     50  O   UNL     1       7.609   3.982  27.187  0.00  0.00    -0.506 OA
ATOM     51  H   UNL     1       7.305   3.280  27.781  0.00  0.00    +0.292 HD
ENDBRANCH  38  50
BRANCH  35  52
ATOM     52  O   UNL     1       8.644   4.852  22.661  0.00  0.00    -0.507 OA
ATOM     53  H   UNL     1       8.074   4.795  21.874  0.00  0.00    +0.292 HD
ENDBRANCH  35  52
ENDBRANCH  28  29
ENDBRANCH   4  28
TORSDOF 16
ENDMDL
MODEL 8
REMARK VINA RESULT:      -6.5      2.415      8.406
REMARK  Name = 
REMARK  17 active torsions:
REMARK  status: ('A' for Active; 'I' for Inactive)
REMARK    1  A    between atoms: C_1  and  C_2
REMARK    2  A    between atoms: C_3  and  O_49
REMARK    3  A    between atoms: C_5  and  O_48
REMARK    4  A    between atoms: C_6  and  O_33
REMARK    5  A    between atoms: C_8  and  O_11
REMARK    6  A    between atoms: O_11  and  C_12
REMARK    7  A    between atoms: C_13  and  C_25
REMARK    8  A    between atoms: C_17  and  O_24
REMARK    9  A    between atoms: C_19  and  O_23
REMARK   10  A    between atoms: C_27  and  O_32
REMARK   11  A    between atoms: C_28  and  O_31
REMARK   12  A    between atoms: O_33  and  C_34
REMARK   13  A    between atoms: C_36  and  O_47
REMARK   14  A    between atoms: C_37  and  O_46
REMARK   15  A    between atoms: C_39  and  O_45
REMARK   16  A    between atoms: C_41  and  C_43
REMARK   17  A    between atoms: C_43  and  O_44
REMARK                            x       y       z     vdW  Elec       q    Type
REMARK                         _______ _______ _______ _____ _____    ______ ____
ROOT
ATOM      1  C   UNL     1       8.664  -2.295  22.294  0.00  0.00    +0.041 C 
ATOM      2  C   UNL     1       7.439  -3.049  22.796  0.00  0.00    +0.150 C 
ATOM      3  O   UNL     1       6.471  -2.165  23.361  0.00  0.00    -0.334 OA
ATOM      4  C   UNL     1       6.693  -1.569  24.650  0.00  0.00    +0.340 C 
ATOM      5  C   UNL     1       7.030  -2.729  25.675  0.00  0.00    +0.221 C 
ATOM      6  C   UNL     1       8.194  -3.617  25.117  0.00  0.00    +0.180 C 
ATOM      7  C   UNL     1       7.833  -4.192  23.734  0.00  0.00    +0.174 C 
ENDROOT
BRANCH   7   8
ATOM      8  O   UNL     1       6.766  -5.151  23.833  0.00  0.00    -0.387 OA
ATOM      9  H   UNL     1       7.071  -5.972  23.389  0.00  0.00    +0.210 HD
ENDBRANCH   7   8
BRANCH   6  10
ATOM     10  O   UNL     1       8.456  -4.734  26.001  0.00  0.00    -0.386 OA
ATOM     11  H   UNL     1       9.081  -4.381  26.675  0.00  0.00    +0.210 HD
ENDBRANCH   6  10
BRANCH   5  12
ATOM     12  O   UNL     1       6.011  -3.731  25.844  0.00  0.00    -0.337 OA
BRANCH  12  13
ATOM     13  C   UNL     1       5.092  -3.617  26.917  0.00  0.00    +0.282 C 
ATOM     14  O   UNL     1       5.228  -4.597  27.941  0.00  0.00    -0.341 OA
ATOM     15  C   UNL     1       5.163  -5.951  27.486  0.00  0.00    +0.178 C 
ATOM     16  C   UNL     1       3.898  -6.286  26.671  0.00  0.00    +0.177 C 
ATOM     17  C   UNL     1       3.363  -5.145  25.795  0.00  0.00    +0.179 C 
ATOM     18  C   UNL     1       3.659  -3.734  26.338  0.00  0.00    +0.201 C 
BRANCH  18  19
ATOM     19  O   UNL     1       3.402  -2.771  25.303  0.00  0.00    -0.384 OA
ATOM     20  H   UNL     1       2.644  -3.129  24.792  0.00  0.00    +0.210 HD
ENDBRANCH  18  19
BRANCH  17  21
ATOM     21  O   UNL     1       3.841  -5.252  24.437  0.00  0.00    -0.386 OA
ATOM     22  H   UNL     1       4.294  -6.120  24.396  0.00  0.00    +0.210 HD
ENDBRANCH  17  21
BRANCH  16  23
ATOM     23  O   UNL     1       4.095  -7.468  25.885  0.00  0.00    -0.386 OA
ATOM     24  H   UNL     1       3.779  -7.286  24.979  0.00  0.00    +0.210 HD
ENDBRANCH  16  23
BRANCH  15  25
ATOM     25  C   UNL     1       5.279  -6.847  28.734  0.00  0.00    +0.190 C 
BRANCH  25  26
ATOM     26  O   UNL     1       4.081  -7.581  28.977  0.00  0.00    -0.392 OA
ATOM     27  H   UNL     1       4.330  -8.316  29.571  0.00  0.00    +0.210 HD
ENDBRANCH  25  26
ENDBRANCH  15  25
ENDBRANCH  12  13
ENDBRANCH   5  12
BRANCH   4  28
ATOM     28  O   UNL     1       5.478  -0.795  24.926  0.00  0.00    -0.453 OA
BRANCH  28  29
ATOM     29  C   UNL     1       5.493   0.436  25.610  0.00  0.00    +0.214 A 
ATOM     30  C   UNL     1       4.318   0.705  26.515  0.00  0.00    +0.238 A 
ATOM     31  O   UNL     1       3.411  -0.124  26.600  0.00  0.00    -0.283 OA
ATOM     32  C   UNL     1       4.263   1.999  27.253  0.00  0.00    +0.109 A 
ATOM     33  C   UNL     1       5.105   3.009  26.819  0.00  0.00    +0.147 A 
ATOM     34  C   UNL     1       5.057   4.294  27.377  0.00  0.00    +0.092 A 
ATOM     35  C   UNL     1       4.179   4.555  28.426  0.00  0.00    +0.124 A 
ATOM     36  C   UNL     1       3.353   3.551  28.908  0.00  0.00    +0.091 A 
ATOM     37  O   UNL     1       6.023   2.805  25.826  0.00  0.00    -0.451 OA
ATOM     38  C   UNL     1       3.390   2.276  28.317  0.00  0.00    +0.135 A 
ATOM     39  C   UNL     1       6.262   1.536  25.290  0.00  0.00    +0.181 A 
BRANCH  39  40
ATOM     40  C   UNL     1       7.464   1.641  24.367  0.00  0.00    +0.025 A 
ATOM     41  C   UNL     1       8.673   2.170  24.798  0.00  0.00    +0.015 A 
ATOM     42  C   UNL     1       9.741   2.449  23.920  0.00  0.00    +0.050 A 
ATOM     43  C   UNL     1       9.594   2.217  22.567  0.00  0.00    +0.158 A 
ATOM     44  C   UNL     1       8.412   1.662  22.093  0.00  0.00    +0.159 A 
ATOM     45  C   UNL     1       7.355   1.385  22.960  0.00  0.00    +0.060 A 
BRANCH  44  46
ATOM     46  O   UNL     1       8.336   1.451  20.736  0.00  0.00    -0.503 OA
ATOM     47  H   UNL     1       7.516   0.965  20.548  0.00  0.00    +0.292 HD
ENDBRANCH  44  46
BRANCH  43  48
ATOM     48  O   UNL     1      10.609   2.535  21.717  0.00  0.00    -0.503 OA
ATOM     49  H   UNL     1      11.402   2.092  22.087  0.00  0.00    +0.292 HD
ENDBRANCH  43  48
ENDBRANCH  39  40
BRANCH  38  50
ATOM     50  O   UNL     1       2.573   1.311  28.830  0.00  0.00    -0.506 OA
ATOM     51  H   UNL     1       3.006   0.875  29.579  0.00  0.00    +0.292 HD
ENDBRANCH  38  50
BRANCH  35  52
ATOM     52  O   UNL     1       4.093   5.780  29.021  0.00  0.00    -0.507 OA
ATOM     53  H   UNL     1       4.572   6.441  28.492  0.00  0.00    +0.292 HD
ENDBRANCH  35  52
ENDBRANCH  28  29
ENDBRANCH   4  28
TORSDOF 16
ENDMDL
MODEL 9
REMARK VINA RESULT:      -6.5      2.456      8.842
REMARK  Name = 
REMARK  17 active torsions:
REMARK  status: ('A' for Active; 'I' for Inactive)
REMARK    1  A    between atoms: C_1  and  C_2
REMARK    2  A    between atoms: C_3  and  O_49
REMARK    3  A    between atoms: C_5  and  O_48
REMARK    4  A    between atoms: C_6  and  O_33
REMARK    5  A    between atoms: C_8  and  O_11
REMARK    6  A    between atoms: O_11  and  C_12
REMARK    7  A    between atoms: C_13  and  C_25
REMARK    8  A    between atoms: C_17  and  O_24
REMARK    9  A    between atoms: C_19  and  O_23
REMARK   10  A    between atoms: C_27  and  O_32
REMARK   11  A    between atoms: C_28  and  O_31
REMARK   12  A    between atoms: O_33  and  C_34
REMARK   13  A    between atoms: C_36  and  O_47
REMARK   14  A    between atoms: C_37  and  O_46
REMARK   15  A    between atoms: C_39  and  O_45
REMARK   16  A    between atoms: C_41  and  C_43
REMARK   17  A    between atoms: C_43  and  O_44
REMARK                            x       y       z     vdW  Elec       q    Type
REMARK                         _______ _______ _______ _____ _____    ______ ____
ROOT
ATOM      1  C   UNL     1       4.013   0.470  29.153  0.00  0.00    +0.041 C 
ATOM      2  C   UNL     1       4.546  -0.927  28.859  0.00  0.00    +0.150 C 
ATOM      3  O   UNL     1       5.027  -1.036  27.520  0.00  0.00    -0.334 OA
ATOM      4  C   UNL     1       4.106  -1.103  26.418  0.00  0.00    +0.340 C 
ATOM      5  C   UNL     1       3.068  -2.263  26.718  0.00  0.00    +0.221 C 
ATOM      6  C   UNL     1       2.433  -2.062  28.136  0.00  0.00    +0.180 C 
ATOM      7  C   UNL     1       3.522  -2.003  29.224  0.00  0.00    +0.174 C 
ENDROOT
BRANCH   7   8
ATOM      8  O   UNL     1       4.168  -3.279  29.380  0.00  0.00    -0.387 OA
ATOM      9  H   UNL     1       3.652  -3.932  28.861  0.00  0.00    +0.210 HD
ENDBRANCH   7   8
BRANCH   6  10
ATOM     10  O   UNL     1       1.546  -3.160  28.461  0.00  0.00    -0.386 OA
ATOM     11  H   UNL     1       2.031  -3.968  28.174  0.00  0.00    +0.210 HD
ENDBRANCH   6  10
BRANCH   5  12
ATOM     12  O   UNL     1       3.629  -3.578  26.880  0.00  0.00    -0.337 OA
BRANCH  12  13
ATOM     13  C   UNL     1       4.602  -4.039  25.959  0.00  0.00    +0.282 C 
ATOM     14  O   UNL     1       4.087  -4.724  24.821  0.00  0.00    -0.341 OA
ATOM     15  C   UNL     1       3.245  -5.840  25.124  0.00  0.00    +0.178 C 
ATOM     16  C   UNL     1       3.890  -6.885  26.057  0.00  0.00    +0.177 C 
ATOM     17  C   UNL     1       4.839  -6.315  27.120  0.00  0.00    +0.179 C 
ATOM     18  C   UNL     1       5.549  -5.012  26.706  0.00  0.00    +0.201 C 
BRANCH  18  19
ATOM     19  O   UNL     1       6.147  -4.415  27.869  0.00  0.00    -0.384 OA
ATOM     20  H   UNL     1       6.972  -3.989  27.552  0.00  0.00    +0.210 HD
ENDBRANCH  18  19
BRANCH  17  21
ATOM     21  O   UNL     1       4.164  -6.120  28.381  0.00  0.00    -0.386 OA
ATOM     22  H   UNL     1       3.688  -5.268  28.284  0.00  0.00    +0.210 HD
ENDBRANCH  17  21
BRANCH  16  23
ATOM     23  O   UNL     1       2.890  -7.707  26.670  0.00  0.00    -0.386 OA
ATOM     24  H   UNL     1       2.115  -7.147  26.867  0.00  0.00    +0.210 HD
ENDBRANCH  16  23
BRANCH  15  25
ATOM     25  C   UNL     1       2.836  -6.468  23.779  0.00  0.00    +0.190 C 
BRANCH  25  26
ATOM     26  O   UNL     1       3.081  -7.873  23.748  0.00  0.00    -0.392 OA
ATOM     27  H   UNL     1       3.403  -8.071  22.847  0.00  0.00    +0.210 HD
ENDBRANCH  25  26
ENDBRANCH  15  25
ENDBRANCH  12  13
ENDBRANCH   5  12
BRANCH   4  28
ATOM     28  O   UNL     1       4.946  -1.279  25.230  0.00  0.00    -0.453 OA
BRANCH  28  29
ATOM     29  C   UNL     1       6.143  -0.565  25.026  0.00  0.00    +0.214 A 
ATOM     30  C   UNL     1       5.994   0.877  24.617  0.00  0.00    +0.238 A 
ATOM     31  O   UNL     1       4.868   1.354  24.461  0.00  0.00    -0.283 OA
ATOM     32  C   UNL     1       7.222   1.683  24.366  0.00  0.00    +0.109 A 
ATOM     33  C   UNL     1       8.408   0.989  24.195  0.00  0.00    +0.147 A 
ATOM     34  C   UNL     1       9.599   1.645  23.852  0.00  0.00    +0.092 A 
ATOM     35  C   UNL     1       9.608   3.031  23.727  0.00  0.00    +0.124 A 
ATOM     36  C   UNL     1       8.444   3.756  23.933  0.00  0.00    +0.091 A 
ATOM     37  O   UNL     1       8.477  -0.369  24.350  0.00  0.00    -0.451 OA
ATOM     38  C   UNL     1       7.251   3.081  24.245  0.00  0.00    +0.135 A 
ATOM     39  C   UNL     1       7.394  -1.114  24.827  0.00  0.00    +0.181 A 
BRANCH  39  40
ATOM     40  C   UNL     1       7.877  -2.535  25.061  0.00  0.00    +0.025 A 
ATOM     41  C   UNL     1       8.608  -2.883  26.188  0.00  0.00    +0.015 A 
ATOM     42  C   UNL     1       9.222  -4.142  26.342  0.00  0.00    +0.050 A 
ATOM     43  C   UNL     1       9.127  -5.079  25.331  0.00  0.00    +0.158 A 
ATOM     44  C   UNL     1       8.383  -4.786  24.196  0.00  0.00    +0.159 A 
ATOM     45  C   UNL     1       7.774  -3.541  24.043  0.00  0.00    +0.060 A 
BRANCH  44  46
ATOM     46  O   UNL     1       8.324  -5.766  23.233  0.00  0.00    -0.503 OA
ATOM     47  H   UNL     1       8.925  -6.484  23.490  0.00  0.00    +0.292 HD
ENDBRANCH  44  46
BRANCH  43  48
ATOM     48  O   UNL     1       9.765  -6.275  25.462  0.00  0.00    -0.503 OA
ATOM     49  H   UNL     1      10.407  -6.306  24.721  0.00  0.00    +0.292 HD
ENDBRANCH  43  48
ENDBRANCH  39  40
BRANCH  38  50
ATOM     50  O   UNL     1       6.130   3.832  24.455  0.00  0.00    -0.506 OA
ATOM     51  H   UNL     1       5.724   4.064  23.607  0.00  0.00    +0.292 HD
ENDBRANCH  38  50
BRANCH  35  52
ATOM     52  O   UNL     1      10.736   3.730  23.409  0.00  0.00    -0.507 OA
ATOM     53  H   UNL     1      10.544   4.684  23.394  0.00  0.00    +0.292 HD
ENDBRANCH  35  52
ENDBRANCH  28  29
ENDBRANCH   4  28
TORSDOF 16
ENDMDL
