MODEL 1
REMARK VINA RESULT:      -7.4      0.000      0.000
REMARK  Name = 
REMARK  21 active torsions:
REMARK  status: ('A' for Active; 'I' for Inactive)
REMARK    1  A    between atoms: C_1  and  C_2
REMARK    2  A    between atoms: C_3  and  O_54
REMARK    3  A    between atoms: C_4  and  O_53
REMARK    4  A    between atoms: C_5  and  O_30
REMARK    5  A    between atoms: C_6  and  O_8
REMARK    6  A    between atoms: O_8  and  C_9
REMARK    7  A    between atoms: C_10  and  C_22
REMARK    8  A    between atoms: C_14  and  O_21
REMARK    9  A    between atoms: C_16  and  O_20
REMARK   10  A    between atoms: C_24  and  O_29
REMARK   11  A    between atoms: C_25  and  O_28
REMARK   12  A    between atoms: O_30  and  C_31
REMARK   13  A    between atoms: C_32  and  O_52
REMARK   14  A    between atoms: C_33  and  O_51
REMARK   15  A    between atoms: C_34  and  O_50
REMARK   16  A    between atoms: C_35  and  C_37
REMARK   17  A    between atoms: C_37  and  O_38
REMARK   18  A    between atoms: O_38  and  C_39
REMARK   19  A    between atoms: C_39  and  C_41
REMARK   20  A    between atoms: C_42  and  C_43
REMARK   21  A    between atoms: C_46  and  O_49
REMARK                            x       y       z     vdW  Elec       q    Type
REMARK                         _______ _______ _______ _____ _____    ______ ____
ROOT
ATOM      1  C   UNL     1       7.169  -5.991  22.148  0.00  0.00    +0.041 C 
ATOM      2  C   UNL     1       6.785  -5.363  23.491  0.00  0.00    +0.150 C 
ATOM      3  O   UNL     1       5.391  -5.177  23.742  0.00  0.00    -0.334 OA
ATOM      4  C   UNL     1       4.708  -3.954  23.359  0.00  0.00    +0.340 C 
ATOM      5  C   UNL     1       5.576  -2.599  23.341  0.00  0.00    +0.221 C 
ATOM      6  C   UNL     1       6.964  -2.996  22.801  0.00  0.00    +0.180 C 
ATOM      7  C   UNL     1       7.553  -4.083  23.726  0.00  0.00    +0.174 C 
ENDROOT
BRANCH   6   8
ATOM      8  O   UNL     1       7.878  -1.952  22.518  0.00  0.00    -0.386 OA
ATOM      9  H   UNL     1       8.334  -2.120  21.665  0.00  0.00    +0.210 HD
ENDBRANCH   6   8
BRANCH   7  10
ATOM     10  O   UNL     1       8.949  -4.294  23.577  0.00  0.00    -0.387 OA
ATOM     11  H   UNL     1       9.390  -3.655  24.163  0.00  0.00    +0.210 HD
ENDBRANCH   7  10
BRANCH   5  12
ATOM     12  O   UNL     1       5.629  -1.973  24.653  0.00  0.00    -0.337 OA
BRANCH  12  13
ATOM     13  C   UNL     1       5.816  -0.535  24.695  0.00  0.00    +0.282 C 
ATOM     14  O   UNL     1       7.216  -0.186  24.677  0.00  0.00    -0.339 OA
ATOM     15  C   UNL     1       7.931  -0.869  25.730  0.00  0.00    +0.190 C 
ATOM     16  C   UNL     1       7.485  -0.487  27.135  0.00  0.00    +0.178 C 
ATOM     17  C   UNL     1       5.939  -0.564  27.213  0.00  0.00    +0.179 C 
ATOM     18  C   UNL     1       5.245   0.074  25.995  0.00  0.00    +0.201 C 
BRANCH  17  19
ATOM     19  O   UNL     1       5.470   0.079  28.406  0.00  0.00    -0.386 OA
ATOM     20  H   UNL     1       4.647  -0.378  28.667  0.00  0.00    +0.210 HD
ENDBRANCH  17  19
BRANCH  16  21
ATOM     21  O   UNL     1       7.977   0.781  27.551  0.00  0.00    -0.386 OA
ATOM     22  H   UNL     1       7.869   0.862  28.515  0.00  0.00    +0.210 HD
ENDBRANCH  16  21
BRANCH  18  23
ATOM     23  O   UNL     1       3.827  -0.095  26.074  0.00  0.00    -0.384 OA
ATOM     24  H   UNL     1       3.595   0.029  27.015  0.00  0.00    +0.210 HD
ENDBRANCH  18  23
BRANCH  15  25
ATOM     25  C   UNL     1       9.419  -1.001  25.402  0.00  0.00    +0.266 C 
BRANCH  25  26
ATOM     26  O   UNL     1       9.850  -0.521  24.143  0.00  0.00    -0.459 OA
BRANCH  26  27
ATOM     27  C   UNL     1      10.653   0.558  24.263  0.00  0.00    +0.332 C 
ATOM     28  O   UNL     1      11.768   0.589  24.762  0.00  0.00    -0.246 OA
BRANCH  27  29
ATOM     29  C   UNL     1      10.032   1.742  23.662  0.00  0.00    +0.092 C 
ATOM     30  C   UNL     1       8.963   2.385  24.151  0.00  0.00    +0.015 C 
BRANCH  30  31
ATOM     31  C   UNL     1       8.465   3.602  23.500  0.00  0.00    -0.025 A 
ATOM     32  C   UNL     1       9.052   4.841  23.798  0.00  0.00    +0.011 A 
ATOM     33  C   UNL     1       8.607   6.007  23.182  0.00  0.00    +0.046 A 
ATOM     34  C   UNL     1       7.547   5.946  22.293  0.00  0.00    +0.117 A 
ATOM     35  C   UNL     1       6.919   4.736  22.010  0.00  0.00    +0.046 A 
ATOM     36  C   UNL     1       7.377   3.560  22.620  0.00  0.00    +0.011 A 
BRANCH  34  37
ATOM     37  O   UNL     1       7.152   7.102  21.716  0.00  0.00    -0.507 OA
ATOM     38  H   UNL     1       7.814   7.792  21.887  0.00  0.00    +0.292 HD
ENDBRANCH  34  37
ENDBRANCH  30  31
ENDBRANCH  27  29
ENDBRANCH  26  27
ENDBRANCH  25  26
ENDBRANCH  15  25
ENDBRANCH  12  13
ENDBRANCH   5  12
BRANCH   4  39
ATOM     39  O   UNL     1       3.566  -3.840  24.269  0.00  0.00    -0.453 OA
BRANCH  39  40
ATOM     40  C   UNL     1       2.979  -5.012  24.753  0.00  0.00    +0.214 A 
ATOM     41  C   UNL     1       2.349  -5.948  23.758  0.00  0.00    +0.238 A 
ATOM     42  O   UNL     1       2.188  -5.601  22.591  0.00  0.00    -0.283 OA
ATOM     43  C   UNL     1       1.883  -7.261  24.226  0.00  0.00    +0.109 A 
ATOM     44  C   UNL     1       1.816  -7.452  25.594  0.00  0.00    +0.147 A 
ATOM     45  C   UNL     1       1.328  -8.656  26.125  0.00  0.00    +0.092 A 
ATOM     46  C   UNL     1       0.931  -9.671  25.260  0.00  0.00    +0.124 A 
ATOM     47  C   UNL     1       1.001  -9.501  23.885  0.00  0.00    +0.091 A 
ATOM     48  O   UNL     1       2.195  -6.496  26.487  0.00  0.00    -0.451 OA
ATOM     49  C   UNL     1       1.479  -8.295  23.369  0.00  0.00    +0.135 A 
ATOM     50  C   UNL     1       2.799  -5.303  26.073  0.00  0.00    +0.181 A 
BRANCH  50  51
ATOM     51  C   UNL     1       3.126  -4.460  27.304  0.00  0.00    +0.025 A 
ATOM     52  C   UNL     1       2.521  -3.168  27.417  0.00  0.00    +0.015 A 
ATOM     53  C   UNL     1       2.777  -2.273  28.467  0.00  0.00    +0.050 A 
ATOM     54  C   UNL     1       3.652  -2.652  29.454  0.00  0.00    +0.158 A 
ATOM     55  C   UNL     1       4.235  -3.917  29.426  0.00  0.00    +0.159 A 
ATOM     56  C   UNL     1       3.990  -4.813  28.355  0.00  0.00    +0.060 A 
BRANCH  55  57
ATOM     57  O   UNL     1       5.070  -4.226  30.470  0.00  0.00    -0.503 OA
ATOM     58  H   UNL     1       5.326  -3.392  30.903  0.00  0.00    +0.292 HD
ENDBRANCH  55  57
BRANCH  54  59
ATOM     59  O   UNL     1       3.911  -1.785  30.485  0.00  0.00    -0.503 OA
ATOM     60  H   UNL     1       3.037  -1.445  30.760  0.00  0.00    +0.292 HD
ENDBRANCH  54  59
ENDBRANCH  50  51
BRANCH  49  61
ATOM     61  O   UNL     1       1.558  -8.156  22.009  0.00  0.00    -0.506 OA
ATOM     62  H   UNL     1       0.867  -7.549  21.693  0.00  0.00    +0.292 HD
ENDBRANCH  49  61
BRANCH  46  63
ATOM     63  O   UNL     1       0.469 -10.869  25.717  0.00  0.00    -0.507 OA
ATOM     64  H   UNL     1       1.175 -11.535  25.662  0.00  0.00    +0.292 HD
ENDBRANCH  46  63
ENDBRANCH  39  40
ENDBRANCH   4  39
TORSDOF 20
ENDMDL
MODEL 2
REMARK VINA RESULT:      -6.9      2.659     10.136
REMARK  Name = 
REMARK  21 active torsions:
REMARK  status: ('A' for Active; 'I' for Inactive)
REMARK    1  A    between atoms: C_1  and  C_2
REMARK    2  A    between atoms: C_3  and  O_54
REMARK    3  A    between atoms: C_4  and  O_53
REMARK    4  A    between atoms: C_5  and  O_30
REMARK    5  A    between atoms: C_6  and  O_8
REMARK    6  A    between atoms: O_8  and  C_9
REMARK    7  A    between atoms: C_10  and  C_22
REMARK    8  A    between atoms: C_14  and  O_21
REMARK    9  A    between atoms: C_16  and  O_20
REMARK   10  A    between atoms: C_24  and  O_29
REMARK   11  A    between atoms: C_25  and  O_28
REMARK   12  A    between atoms: O_30  and  C_31
REMARK   13  A    between atoms: C_32  and  O_52
REMARK   14  A    between atoms: C_33  and  O_51
REMARK   15  A    between atoms: C_34  and  O_50
REMARK   16  A    between atoms: C_35  and  C_37
REMARK   17  A    between atoms: C_37  and  O_38
REMARK   18  A    between atoms: O_38  and  C_39
REMARK   19  A    between atoms: C_39  and  C_41
REMARK   20  A    between atoms: C_42  and  C_43
REMARK   21  A    between atoms: C_46  and  O_49
REMARK                            x       y       z     vdW  Elec       q    Type
REMARK                         _______ _______ _______ _____ _____    ______ ____
ROOT
ATOM      1  C   UNL     1      10.158   1.143  21.855  0.00  0.00    +0.041 C 
ATOM      2  C   UNL     1       8.725   1.030  22.385  0.00  0.00    +0.150 C 
ATOM      3  O   UNL     1       8.303   2.024  23.320  0.00  0.00    -0.334 OA
ATOM      4  C   UNL     1       8.486   1.846  24.750  0.00  0.00    +0.340 C 
ATOM      5  C   UNL     1       8.468   0.339  25.314  0.00  0.00    +0.221 C 
ATOM      6  C   UNL     1       9.197  -0.515  24.257  0.00  0.00    +0.180 C 
ATOM      7  C   UNL     1       8.455  -0.360  22.912  0.00  0.00    +0.174 C 
ENDROOT
BRANCH   6   8
ATOM      8  O   UNL     1       9.478  -1.863  24.585  0.00  0.00    -0.386 OA
ATOM      9  H   UNL     1       9.696  -2.372  23.775  0.00  0.00    +0.210 HD
ENDBRANCH   6   8
BRANCH   7  10
ATOM     10  O   UNL     1       8.779  -1.344  21.941  0.00  0.00    -0.387 OA
ATOM     11  H   UNL     1       9.050  -2.138  22.431  0.00  0.00    +0.210 HD
ENDBRANCH   7  10
BRANCH   5  12
ATOM     12  O   UNL     1       7.116  -0.121  25.588  0.00  0.00    -0.337 OA
BRANCH  12  13
ATOM     13  C   UNL     1       6.728  -0.246  26.980  0.00  0.00    +0.282 C 
ATOM     14  O   UNL     1       6.914  -1.594  27.460  0.00  0.00    -0.339 OA
ATOM     15  C   UNL     1       6.235  -2.543  26.606  0.00  0.00    +0.190 C 
ATOM     16  C   UNL     1       4.721  -2.380  26.575  0.00  0.00    +0.178 C 
ATOM     17  C   UNL     1       4.378  -0.889  26.329  0.00  0.00    +0.179 C 
ATOM     18  C   UNL     1       5.229   0.071  27.183  0.00  0.00    +0.201 C 
BRANCH  17  19
ATOM     19  O   UNL     1       2.991  -0.648  26.601  0.00  0.00    -0.386 OA
ATOM     20  H   UNL     1       2.930   0.250  26.981  0.00  0.00    +0.210 HD
ENDBRANCH  17  19
BRANCH  16  21
ATOM     21  O   UNL     1       4.081  -2.889  27.740  0.00  0.00    -0.386 OA
ATOM     22  H   UNL     1       4.158  -2.233  28.455  0.00  0.00    +0.210 HD
ENDBRANCH  16  21
BRANCH  18  23
ATOM     23  O   UNL     1       4.933   1.432  26.860  0.00  0.00    -0.384 OA
ATOM     24  H   UNL     1       4.093   1.639  27.314  0.00  0.00    +0.210 HD
ENDBRANCH  18  23
BRANCH  15  25
ATOM     25  C   UNL     1       6.859  -3.935  26.709  0.00  0.00    +0.266 C 
BRANCH  25  26
ATOM     26  O   UNL     1       6.765  -4.597  27.956  0.00  0.00    -0.459 OA
BRANCH  26  27
ATOM     27  C   UNL     1       6.459  -5.904  27.812  0.00  0.00    +0.332 C 
ATOM     28  O   UNL     1       6.800  -6.821  28.544  0.00  0.00    -0.246 OA
BRANCH  27  29
ATOM     29  C   UNL     1       5.594  -6.113  26.646  0.00  0.00    +0.092 C 
ATOM     30  C   UNL     1       4.343  -6.589  26.690  0.00  0.00    +0.015 C 
BRANCH  30  31
ATOM     31  C   UNL     1       3.545  -6.697  25.463  0.00  0.00    -0.025 A 
ATOM     32  C   UNL     1       3.513  -5.625  24.558  0.00  0.00    +0.011 A 
ATOM     33  C   UNL     1       2.775  -5.709  23.381  0.00  0.00    +0.046 A 
ATOM     34  C   UNL     1       2.036  -6.850  23.119  0.00  0.00    +0.117 A 
ATOM     35  C   UNL     1       2.016  -7.912  24.021  0.00  0.00    +0.046 A 
ATOM     36  C   UNL     1       2.770  -7.832  25.199  0.00  0.00    +0.011 A 
BRANCH  34  37
ATOM     37  O   UNL     1       1.338  -6.889  21.963  0.00  0.00    -0.507 OA
ATOM     38  H   UNL     1       1.201  -5.983  21.638  0.00  0.00    +0.292 HD
ENDBRANCH  34  37
ENDBRANCH  30  31
ENDBRANCH  27  29
ENDBRANCH  26  27
ENDBRANCH  25  26
ENDBRANCH  15  25
ENDBRANCH  12  13
ENDBRANCH   5  12
BRANCH   4  39
ATOM     39  O   UNL     1       7.447   2.660  25.383  0.00  0.00    -0.453 OA
BRANCH  39  40
ATOM     40  C   UNL     1       6.761   3.594  24.602  0.00  0.00    +0.214 A 
ATOM     41  C   UNL     1       5.477   3.159  23.949  0.00  0.00    +0.238 A 
ATOM     42  O   UNL     1       5.149   1.977  23.946  0.00  0.00    -0.283 OA
ATOM     43  C   UNL     1       4.657   4.173  23.270  0.00  0.00    +0.109 A 
ATOM     44  C   UNL     1       5.240   5.408  23.050  0.00  0.00    +0.147 A 
ATOM     45  C   UNL     1       4.545   6.412  22.359  0.00  0.00    +0.092 A 
ATOM     46  C   UNL     1       3.251   6.164  21.912  0.00  0.00    +0.124 A 
ATOM     47  C   UNL     1       2.647   4.935  22.133  0.00  0.00    +0.091 A 
ATOM     48  O   UNL     1       6.500   5.708  23.468  0.00  0.00    -0.451 OA
ATOM     49  C   UNL     1       3.351   3.939  22.815  0.00  0.00    +0.135 A 
ATOM     50  C   UNL     1       7.240   4.825  24.262  0.00  0.00    +0.181 A 
BRANCH  50  51
ATOM     51  C   UNL     1       8.593   5.459  24.581  0.00  0.00    +0.025 A 
ATOM     52  C   UNL     1       9.589   5.479  23.554  0.00  0.00    +0.015 A 
ATOM     53  C   UNL     1      10.887   5.981  23.732  0.00  0.00    +0.050 A 
ATOM     54  C   UNL     1      11.230   6.494  24.958  0.00  0.00    +0.158 A 
ATOM     55  C   UNL     1      10.288   6.549  25.984  0.00  0.00    +0.159 A 
ATOM     56  C   UNL     1       8.983   6.023  25.809  0.00  0.00    +0.060 A 
BRANCH  55  57
ATOM     57  O   UNL     1      10.706   7.108  27.164  0.00  0.00    -0.503 OA
ATOM     58  H   UNL     1      10.599   6.440  27.865  0.00  0.00    +0.292 HD
ENDBRANCH  55  57
BRANCH  54  59
ATOM     59  O   UNL     1      12.497   6.987  25.144  0.00  0.00    -0.503 OA
ATOM     60  H   UNL     1      12.909   6.394  25.802  0.00  0.00    +0.292 HD
ENDBRANCH  54  59
ENDBRANCH  50  51
BRANCH  49  61
ATOM     61  O   UNL     1       2.729   2.741  23.039  0.00  0.00    -0.506 OA
ATOM     62  H   UNL     1       1.772   2.826  22.889  0.00  0.00    +0.292 HD
ENDBRANCH  49  61
BRANCH  46  63
ATOM     63  O   UNL     1       2.521   7.108  21.254  0.00  0.00    -0.507 OA
ATOM     64  H   UNL     1       3.104   7.630  20.677  0.00  0.00    +0.292 HD
ENDBRANCH  46  63
ENDBRANCH  39  40
ENDBRANCH   4  39
TORSDOF 20
ENDMDL
MODEL 3
REMARK VINA RESULT:      -6.9      2.987      9.866
REMARK  Name = 
REMARK  21 active torsions:
REMARK  status: ('A' for Active; 'I' for Inactive)
REMARK    1  A    between atoms: C_1  and  C_2
REMARK    2  A    between atoms: C_3  and  O_54
REMARK    3  A    between atoms: C_4  and  O_53
REMARK    4  A    between atoms: C_5  and  O_30
REMARK    5  A    between atoms: C_6  and  O_8
REMARK    6  A    between atoms: O_8  and  C_9
REMARK    7  A    between atoms: C_10  and  C_22
REMARK    8  A    between atoms: C_14  and  O_21
REMARK    9  A    between atoms: C_16  and  O_20
REMARK   10  A    between atoms: C_24  and  O_29
REMARK   11  A    between atoms: C_25  and  O_28
REMARK   12  A    between atoms: O_30  and  C_31
REMARK   13  A    between atoms: C_32  and  O_52
REMARK   14  A    between atoms: C_33  and  O_51
REMARK   15  A    between atoms: C_34  and  O_50
REMARK   16  A    between atoms: C_35  and  C_37
REMARK   17  A    between atoms: C_37  and  O_38
REMARK   18  A    between atoms: O_38  and  C_39
REMARK   19  A    between atoms: C_39  and  C_41
REMARK   20  A    between atoms: C_42  and  C_43
REMARK   21  A    between atoms: C_46  and  O_49
REMARK                            x       y       z     vdW  Elec       q    Type
REMARK                         _______ _______ _______ _____ _____    ______ ____
ROOT
ATOM      1  C   UNL     1       9.458   0.190  22.091  0.00  0.00    +0.041 C 
ATOM      2  C   UNL     1       8.117   0.434  22.789  0.00  0.00    +0.150 C 
ATOM      3  O   UNL     1       8.005   1.623  23.573  0.00  0.00    -0.334 OA
ATOM      4  C   UNL     1       8.357   1.638  24.982  0.00  0.00    +0.340 C 
ATOM      5  C   UNL     1       8.166   0.268  25.805  0.00  0.00    +0.221 C 
ATOM      6  C   UNL     1       8.583  -0.862  24.841  0.00  0.00    +0.180 C 
ATOM      7  C   UNL     1       7.694  -0.780  23.582  0.00  0.00    +0.174 C 
ENDROOT
BRANCH   6   8
ATOM      8  O   UNL     1       8.677  -2.171  25.372  0.00  0.00    -0.386 OA
ATOM      9  H   UNL     1       9.488  -2.614  25.043  0.00  0.00    +0.210 HD
ENDBRANCH   6   8
BRANCH   7  10
ATOM     10  O   UNL     1       7.707  -1.946  22.772  0.00  0.00    -0.387 OA
ATOM     11  H   UNL     1       8.462  -2.481  23.069  0.00  0.00    +0.210 HD
ENDBRANCH   7  10
BRANCH   5  12
ATOM     12  O   UNL     1       6.809   0.121  26.306  0.00  0.00    -0.337 OA
BRANCH  12  13
ATOM     13  C   UNL     1       6.642  -0.000  27.741  0.00  0.00    +0.282 C 
ATOM     14  O   UNL     1       5.602  -0.945  28.072  0.00  0.00    -0.339 OA
ATOM     15  C   UNL     1       4.369  -0.612  27.395  0.00  0.00    +0.190 C 
ATOM     16  C   UNL     1       3.776   0.729  27.805  0.00  0.00    +0.178 C 
ATOM     17  C   UNL     1       4.886   1.809  27.750  0.00  0.00    +0.179 C 
ATOM     18  C   UNL     1       6.211   1.339  28.379  0.00  0.00    +0.201 C 
BRANCH  17  19
ATOM     19  O   UNL     1       4.450   3.001  28.418  0.00  0.00    -0.386 OA
ATOM     20  H   UNL     1       3.731   2.738  29.024  0.00  0.00    +0.210 HD
ENDBRANCH  17  19
BRANCH  16  21
ATOM     21  O   UNL     1       3.132   0.690  29.073  0.00  0.00    -0.386 OA
ATOM     22  H   UNL     1       3.759   0.990  29.755  0.00  0.00    +0.210 HD
ENDBRANCH  16  21
BRANCH  18  23
ATOM     23  O   UNL     1       7.224   2.339  28.230  0.00  0.00    -0.384 OA
ATOM     24  H   UNL     1       7.206   2.864  29.054  0.00  0.00    +0.210 HD
ENDBRANCH  18  23
BRANCH  15  25
ATOM     25  C   UNL     1       3.468  -1.839  27.238  0.00  0.00    +0.266 C 
BRANCH  25  26
ATOM     26  O   UNL     1       2.714  -1.941  26.046  0.00  0.00    -0.459 OA
BRANCH  26  27
ATOM     27  C   UNL     1       2.913  -3.122  25.423  0.00  0.00    +0.332 C 
ATOM     28  O   UNL     1       2.068  -3.808  24.867  0.00  0.00    -0.246 OA
BRANCH  27  29
ATOM     29  C   UNL     1       4.331  -3.494  25.448  0.00  0.00    +0.092 C 
ATOM     30  C   UNL     1       4.803  -4.742  25.329  0.00  0.00    +0.015 C 
BRANCH  30  31
ATOM     31  C   UNL     1       6.249  -4.991  25.302  0.00  0.00    -0.025 A 
ATOM     32  C   UNL     1       6.962  -5.078  26.507  0.00  0.00    +0.011 A 
ATOM     33  C   UNL     1       8.331  -5.327  26.508  0.00  0.00    +0.046 A 
ATOM     34  C   UNL     1       9.002  -5.456  25.303  0.00  0.00    +0.117 A 
ATOM     35  C   UNL     1       8.325  -5.333  24.092  0.00  0.00    +0.046 A 
ATOM     36  C   UNL     1       6.944  -5.095  24.092  0.00  0.00    +0.011 A 
BRANCH  34  37
ATOM     37  O   UNL     1      10.329  -5.702  25.353  0.00  0.00    -0.507 OA
ATOM     38  H   UNL     1      10.478  -6.659  25.431  0.00  0.00    +0.292 HD
ENDBRANCH  34  37
ENDBRANCH  30  31
ENDBRANCH  27  29
ENDBRANCH  26  27
ENDBRANCH  25  26
ENDBRANCH  15  25
ENDBRANCH  12  13
ENDBRANCH   5  12
BRANCH   4  39
ATOM     39  O   UNL     1       7.570   2.723  25.572  0.00  0.00    -0.453 OA
BRANCH  39  40
ATOM     40  C   UNL     1       6.911   3.611  24.718  0.00  0.00    +0.214 A 
ATOM     41  C   UNL     1       5.520   3.255  24.268  0.00  0.00    +0.238 A 
ATOM     42  O   UNL     1       5.061   2.138  24.487  0.00  0.00    -0.283 OA
ATOM     43  C   UNL     1       4.749   4.254  23.514  0.00  0.00    +0.109 A 
ATOM     44  C   UNL     1       5.439   5.355  23.043  0.00  0.00    +0.147 A 
ATOM     45  C   UNL     1       4.789   6.327  22.267  0.00  0.00    +0.092 A 
ATOM     46  C   UNL     1       3.433   6.186  21.991  0.00  0.00    +0.124 A 
ATOM     47  C   UNL     1       2.722   5.092  22.464  0.00  0.00    +0.091 A 
ATOM     48  O   UNL     1       6.765   5.548  23.287  0.00  0.00    -0.451 OA
ATOM     49  C   UNL     1       3.381   4.127  23.228  0.00  0.00    +0.135 A 
ATOM     50  C   UNL     1       7.485   4.704  24.140  0.00  0.00    +0.181 A 
BRANCH  50  51
ATOM     51  C   UNL     1       8.928   5.197  24.223  0.00  0.00    +0.025 A 
ATOM     52  C   UNL     1       9.236   6.228  25.166  0.00  0.00    +0.015 A 
ATOM     53  C   UNL     1      10.507   6.806  25.306  0.00  0.00    +0.050 A 
ATOM     54  C   UNL     1      11.525   6.358  24.501  0.00  0.00    +0.158 A 
ATOM     55  C   UNL     1      11.300   5.322  23.597  0.00  0.00    +0.159 A 
ATOM     56  C   UNL     1      10.011   4.752  23.443  0.00  0.00    +0.060 A 
BRANCH  55  57
ATOM     57  O   UNL     1      12.380   4.914  22.857  0.00  0.00    -0.503 OA
ATOM     58  H   UNL     1      12.815   5.710  22.501  0.00  0.00    +0.292 HD
ENDBRANCH  55  57
BRANCH  54  59
ATOM     59  O   UNL     1      12.771   6.918  24.628  0.00  0.00    -0.503 OA
ATOM     60  H   UNL     1      13.097   6.624  25.502  0.00  0.00    +0.292 HD
ENDBRANCH  54  59
ENDBRANCH  50  51
BRANCH  49  61
ATOM     61  O   UNL     1       2.657   3.066  23.701  0.00  0.00    -0.506 OA
ATOM     62  H   UNL     1       2.939   2.842  24.603  0.00  0.00    +0.292 HD
ENDBRANCH  49  61
BRANCH  46  63
ATOM     63  O   UNL     1       2.745   7.108  21.260  0.00  0.00    -0.507 OA
ATOM     64  H   UNL     1       2.953   7.000  20.316  0.00  0.00    +0.292 HD
ENDBRANCH  46  63
ENDBRANCH  39  40
ENDBRANCH   4  39
TORSDOF 20
ENDMDL
MODEL 4
REMARK VINA RESULT:      -6.4      3.246      5.760
REMARK  Name = 
REMARK  21 active torsions:
REMARK  status: ('A' for Active; 'I' for Inactive)
REMARK    1  A    between atoms: C_1  and  C_2
REMARK    2  A    between atoms: C_3  and  O_54
REMARK    3  A    between atoms: C_4  and  O_53
REMARK    4  A    between atoms: C_5  and  O_30
REMARK    5  A    between atoms: C_6  and  O_8
REMARK    6  A    between atoms: O_8  and  C_9
REMARK    7  A    between atoms: C_10  and  C_22
REMARK    8  A    between atoms: C_14  and  O_21
REMARK    9  A    between atoms: C_16  and  O_20
REMARK   10  A    between atoms: C_24  and  O_29
REMARK   11  A    between atoms: C_25  and  O_28
REMARK   12  A    between atoms: O_30  and  C_31
REMARK   13  A    between atoms: C_32  and  O_52
REMARK   14  A    between atoms: C_33  and  O_51
REMARK   15  A    between atoms: C_34  and  O_50
REMARK   16  A    between atoms: C_35  and  C_37
REMARK   17  A    between atoms: C_37  and  O_38
REMARK   18  A    between atoms: O_38  and  C_39
REMARK   19  A    between atoms: C_39  and  C_41
REMARK   20  A    between atoms: C_42  and  C_43
REMARK   21  A    between atoms: C_46  and  O_49
REMARK                            x       y       z     vdW  Elec       q    Type
REMARK                         _______ _______ _______ _____ _____    ______ ____
ROOT
ATOM      1  C   UNL     1       6.504  -0.575  22.721  0.00  0.00    +0.041 C 
ATOM      2  C   UNL     1       6.984  -0.054  24.079  0.00  0.00    +0.150 C 
ATOM      3  O   UNL     1       6.633  -0.827  25.228  0.00  0.00    -0.334 OA
ATOM      4  C   UNL     1       5.396  -0.589  25.953  0.00  0.00    +0.340 C 
ATOM      5  C   UNL     1       4.815   0.911  25.947  0.00  0.00    +0.221 C 
ATOM      6  C   UNL     1       5.083   1.460  24.531  0.00  0.00    +0.180 C 
ATOM      7  C   UNL     1       6.601   1.396  24.264  0.00  0.00    +0.174 C 
ENDROOT
BRANCH   6   8
ATOM      8  O   UNL     1       4.511   2.712  24.196  0.00  0.00    -0.386 OA
ATOM      9  H   UNL     1       4.019   3.077  24.963  0.00  0.00    +0.210 HD
ENDBRANCH   6   8
BRANCH   7  10
ATOM     10  O   UNL     1       7.043   2.182  23.167  0.00  0.00    -0.387 OA
ATOM     11  H   UNL     1       6.474   2.970  23.144  0.00  0.00    +0.210 HD
ENDBRANCH   7  10
BRANCH   5  12
ATOM     12  O   UNL     1       5.405   1.725  26.998  0.00  0.00    -0.337 OA
BRANCH  12  13
ATOM     13  C   UNL     1       4.702   2.938  27.370  0.00  0.00    +0.282 C 
ATOM     14  O   UNL     1       5.181   4.075  26.619  0.00  0.00    -0.339 OA
ATOM     15  C   UNL     1       6.615   4.204  26.740  0.00  0.00    +0.190 C 
ATOM     16  C   UNL     1       7.098   4.482  28.157  0.00  0.00    +0.178 C 
ATOM     17  C   UNL     1       6.431   3.473  29.125  0.00  0.00    +0.179 C 
ATOM     18  C   UNL     1       4.925   3.291  28.857  0.00  0.00    +0.201 C 
BRANCH  17  19
ATOM     19  O   UNL     1       6.615   3.893  30.484  0.00  0.00    -0.386 OA
ATOM     20  H   UNL     1       6.232   4.789  30.556  0.00  0.00    +0.210 HD
ENDBRANCH  17  19
BRANCH  16  21
ATOM     21  O   UNL     1       6.889   5.829  28.564  0.00  0.00    -0.386 OA
ATOM     22  H   UNL     1       7.389   6.420  27.973  0.00  0.00    +0.210 HD
ENDBRANCH  16  21
BRANCH  18  23
ATOM     23  O   UNL     1       4.375   2.292  29.720  0.00  0.00    -0.384 OA
ATOM     24  H   UNL     1       3.513   2.641  30.020  0.00  0.00    +0.210 HD
ENDBRANCH  18  23
BRANCH  15  25
ATOM     25  C   UNL     1       7.208   4.972  25.557  0.00  0.00    +0.266 C 
BRANCH  25  26
ATOM     26  O   UNL     1       8.433   5.647  25.772  0.00  0.00    -0.459 OA
BRANCH  26  27
ATOM     27  C   UNL     1       9.240   5.582  24.691  0.00  0.00    +0.332 C 
ATOM     28  O   UNL     1       9.882   6.499  24.200  0.00  0.00    -0.246 OA
BRANCH  27  29
ATOM     29  C   UNL     1       9.301   4.215  24.164  0.00  0.00    +0.092 C 
ATOM     30  C   UNL     1      10.425   3.567  23.829  0.00  0.00    +0.015 C 
BRANCH  30  31
ATOM     31  C   UNL     1      10.372   2.174  23.372  0.00  0.00    -0.025 A 
ATOM     32  C   UNL     1       9.919   1.884  22.077  0.00  0.00    +0.011 A 
ATOM     33  C   UNL     1       9.873   0.571  21.615  0.00  0.00    +0.046 A 
ATOM     34  C   UNL     1      10.246  -0.461  22.459  0.00  0.00    +0.117 A 
ATOM     35  C   UNL     1      10.660  -0.205  23.764  0.00  0.00    +0.046 A 
ATOM     36  C   UNL     1      10.719   1.118  24.223  0.00  0.00    +0.011 A 
BRANCH  34  37
ATOM     37  O   UNL     1      10.189  -1.718  21.967  0.00  0.00    -0.507 OA
ATOM     38  H   UNL     1       9.331  -1.857  21.534  0.00  0.00    +0.292 HD
ENDBRANCH  34  37
ENDBRANCH  30  31
ENDBRANCH  27  29
ENDBRANCH  26  27
ENDBRANCH  25  26
ENDBRANCH  15  25
ENDBRANCH  12  13
ENDBRANCH   5  12
BRANCH   4  39
ATOM     39  O   UNL     1       5.647  -1.055  27.319  0.00  0.00    -0.453 OA
BRANCH  39  40
ATOM     40  C   UNL     1       4.928  -2.155  27.792  0.00  0.00    +0.214 A 
ATOM     41  C   UNL     1       3.853  -1.908  28.815  0.00  0.00    +0.238 A 
ATOM     42  O   UNL     1       3.745  -0.810  29.353  0.00  0.00    -0.283 OA
ATOM     43  C   UNL     1       2.974  -3.024  29.193  0.00  0.00    +0.109 A 
ATOM     44  C   UNL     1       3.353  -4.289  28.781  0.00  0.00    +0.147 A 
ATOM     45  C   UNL     1       2.599  -5.414  29.148  0.00  0.00    +0.092 A 
ATOM     46  C   UNL     1       1.451  -5.247  29.915  0.00  0.00    +0.124 A 
ATOM     47  C   UNL     1       1.050  -3.985  30.328  0.00  0.00    +0.091 A 
ATOM     48  O   UNL     1       4.464  -4.511  28.026  0.00  0.00    -0.451 OA
ATOM     49  C   UNL     1       1.812  -2.872  29.965  0.00  0.00    +0.135 A 
ATOM     50  C   UNL     1       5.225  -3.456  27.511  0.00  0.00    +0.181 A 
BRANCH  50  51
ATOM     51  C   UNL     1       6.380  -4.031  26.694  0.00  0.00    +0.025 A 
ATOM     52  C   UNL     1       6.130  -4.393  25.332  0.00  0.00    +0.015 A 
ATOM     53  C   UNL     1       7.087  -4.979  24.490  0.00  0.00    +0.050 A 
ATOM     54  C   UNL     1       8.343  -5.217  24.988  0.00  0.00    +0.158 A 
ATOM     55  C   UNL     1       8.663  -4.841  26.291  0.00  0.00    +0.159 A 
ATOM     56  C   UNL     1       7.690  -4.266  27.148  0.00  0.00    +0.060 A 
BRANCH  55  57
ATOM     57  O   UNL     1       9.951  -5.084  26.697  0.00  0.00    -0.503 OA
ATOM     58  H   UNL     1      10.475  -4.283  26.519  0.00  0.00    +0.292 HD
ENDBRANCH  55  57
BRANCH  54  59
ATOM     59  O   UNL     1       9.287  -5.791  24.174  0.00  0.00    -0.503 OA
ATOM     60  H   UNL     1       9.298  -6.736  24.421  0.00  0.00    +0.292 HD
ENDBRANCH  54  59
ENDBRANCH  50  51
BRANCH  49  61
ATOM     61  O   UNL     1       1.389  -1.635  30.367  0.00  0.00    -0.506 OA
ATOM     62  H   UNL     1       2.151  -1.055  30.529  0.00  0.00    +0.292 HD
ENDBRANCH  49  61
BRANCH  46  63
ATOM     63  O   UNL     1       0.668  -6.301  30.283  0.00  0.00    -0.507 OA
ATOM     64  H   UNL     1       0.070  -6.535  29.553  0.00  0.00    +0.292 HD
ENDBRANCH  46  63
ENDBRANCH  39  40
ENDBRANCH   4  39
TORSDOF 20
ENDMDL
MODEL 5
REMARK VINA RESULT:      -6.3      3.070      6.662
REMARK  Name = 
REMARK  21 active torsions:
REMARK  status: ('A' for Active; 'I' for Inactive)
REMARK    1  A    between atoms: C_1  and  C_2
REMARK    2  A    between atoms: C_3  and  O_54
REMARK    3  A    between atoms: C_4  and  O_53
REMARK    4  A    between atoms: C_5  and  O_30
REMARK    5  A    between atoms: C_6  and  O_8
REMARK    6  A    between atoms: O_8  and  C_9
REMARK    7  A    between atoms: C_10  and  C_22
REMARK    8  A    between atoms: C_14  and  O_21
REMARK    9  A    between atoms: C_16  and  O_20
REMARK   10  A    between atoms: C_24  and  O_29
REMARK   11  A    between atoms: C_25  and  O_28
REMARK   12  A    between atoms: O_30  and  C_31
REMARK   13  A    between atoms: C_32  and  O_52
REMARK   14  A    between atoms: C_33  and  O_51
REMARK   15  A    between atoms: C_34  and  O_50
REMARK   16  A    between atoms: C_35  and  C_37
REMARK   17  A    between atoms: C_37  and  O_38
REMARK   18  A    between atoms: O_38  and  C_39
REMARK   19  A    between atoms: C_39  and  C_41
REMARK   20  A    between atoms: C_42  and  C_43
REMARK   21  A    between atoms: C_46  and  O_49
REMARK                            x       y       z     vdW  Elec       q    Type
REMARK                         _______ _______ _______ _____ _____    ______ ____
ROOT
ATOM      1  C   UNL     1       8.173   1.992  21.476  0.00  0.00    +0.041 C 
ATOM      2  C   UNL     1       7.863   2.524  22.879  0.00  0.00    +0.150 C 
ATOM      3  O   UNL     1       7.430   1.570  23.849  0.00  0.00    -0.334 OA
ATOM      4  C   UNL     1       6.023   1.254  24.026  0.00  0.00    +0.340 C 
ATOM      5  C   UNL     1       4.959   2.417  23.702  0.00  0.00    +0.221 C 
ATOM      6  C   UNL     1       5.509   3.159  22.468  0.00  0.00    +0.180 C 
ATOM      7  C   UNL     1       6.914   3.698  22.812  0.00  0.00    +0.174 C 
ENDROOT
BRANCH   6   8
ATOM      8  O   UNL     1       4.674   4.128  21.862  0.00  0.00    -0.386 OA
ATOM      9  H   UNL     1       4.404   4.804  22.520  0.00  0.00    +0.210 HD
ENDBRANCH   6   8
BRANCH   7  10
ATOM     10  O   UNL     1       7.400   4.693  21.922  0.00  0.00    -0.387 OA
ATOM     11  H   UNL     1       8.352   4.781  22.100  0.00  0.00    +0.210 HD
ENDBRANCH   7  10
BRANCH   5  12
ATOM     12  O   UNL     1       4.745   3.289  24.846  0.00  0.00    -0.337 OA
BRANCH  12  13
ATOM     13  C   UNL     1       3.448   3.929  24.959  0.00  0.00    +0.282 C 
ATOM     14  O   UNL     1       3.581   5.351  25.173  0.00  0.00    -0.339 OA
ATOM     15  C   UNL     1       4.435   5.624  26.306  0.00  0.00    +0.190 C 
ATOM     16  C   UNL     1       3.893   5.111  27.633  0.00  0.00    +0.178 C 
ATOM     17  C   UNL     1       3.454   3.635  27.463  0.00  0.00    +0.179 C 
ATOM     18  C   UNL     1       2.653   3.393  26.169  0.00  0.00    +0.201 C 
BRANCH  17  19
ATOM     19  O   UNL     1       2.663   3.220  28.585  0.00  0.00    -0.386 OA
ATOM     20  H   UNL     1       2.178   2.419  28.307  0.00  0.00    +0.210 HD
ENDBRANCH  17  19
BRANCH  16  21
ATOM     21  O   UNL     1       2.848   5.921  28.159  0.00  0.00    -0.386 OA
ATOM     22  H   UNL     1       2.820   6.760  27.666  0.00  0.00    +0.210 HD
ENDBRANCH  16  21
BRANCH  18  23
ATOM     23  O   UNL     1       2.343   2.004  26.019  0.00  0.00    -0.384 OA
ATOM     24  H   UNL     1       1.914   1.733  26.853  0.00  0.00    +0.210 HD
ENDBRANCH  18  23
BRANCH  15  25
ATOM     25  C   UNL     1       5.058   7.018  26.213  0.00  0.00    +0.266 C 
BRANCH  25  26
ATOM     26  O   UNL     1       6.383   7.105  25.725  0.00  0.00    -0.459 OA
BRANCH  26  27
ATOM     27  C   UNL     1       7.294   6.952  26.710  0.00  0.00    +0.332 C 
ATOM     28  O   UNL     1       7.107   7.096  27.909  0.00  0.00    -0.246 OA
BRANCH  27  29
ATOM     29  C   UNL     1       8.588   6.531  26.165  0.00  0.00    +0.092 C 
ATOM     30  C   UNL     1       8.822   6.222  24.883  0.00  0.00    +0.015 C 
BRANCH  30  31
ATOM     31  C   UNL     1      10.177   5.874  24.437  0.00  0.00    -0.025 A 
ATOM     32  C   UNL     1      11.252   6.714  24.761  0.00  0.00    +0.011 A 
ATOM     33  C   UNL     1      12.548   6.399  24.361  0.00  0.00    +0.046 A 
ATOM     34  C   UNL     1      12.770   5.260  23.605  0.00  0.00    +0.117 A 
ATOM     35  C   UNL     1      11.714   4.430  23.234  0.00  0.00    +0.046 A 
ATOM     36  C   UNL     1      10.412   4.742  23.648  0.00  0.00    +0.011 A 
BRANCH  34  37
ATOM     37  O   UNL     1      14.043   4.991  23.243  0.00  0.00    -0.507 OA
ATOM     38  H   UNL     1      14.171   4.029  23.201  0.00  0.00    +0.292 HD
ENDBRANCH  34  37
ENDBRANCH  30  31
ENDBRANCH  27  29
ENDBRANCH  26  27
ENDBRANCH  25  26
ENDBRANCH  15  25
ENDBRANCH  12  13
ENDBRANCH   5  12
BRANCH   4  39
ATOM     39  O   UNL     1       5.895   0.789  25.409  0.00  0.00    -0.453 OA
BRANCH  39  40
ATOM     40  C   UNL     1       5.484  -0.527  25.637  0.00  0.00    +0.214 A 
ATOM     41  C   UNL     1       4.357  -0.754  26.607  0.00  0.00    +0.238 A 
ATOM     42  O   UNL     1       3.947   0.162  27.313  0.00  0.00    -0.283 OA
ATOM     43  C   UNL     1       3.797  -2.108  26.727  0.00  0.00    +0.109 A 
ATOM     44  C   UNL     1       4.509  -3.136  26.137  0.00  0.00    +0.147 A 
ATOM     45  C   UNL     1       4.073  -4.465  26.253  0.00  0.00    +0.092 A 
ATOM     46  C   UNL     1       2.903  -4.741  26.952  0.00  0.00    +0.124 A 
ATOM     47  C   UNL     1       2.170  -3.722  27.542  0.00  0.00    +0.091 A 
ATOM     48  O   UNL     1       5.658  -2.925  25.437  0.00  0.00    -0.451 OA
ATOM     49  C   UNL     1       2.618  -2.404  27.428  0.00  0.00    +0.135 A 
ATOM     50  C   UNL     1       6.123  -1.634  25.163  0.00  0.00    +0.181 A 
BRANCH  50  51
ATOM     51  C   UNL     1       7.409  -1.733  24.346  0.00  0.00    +0.025 A 
ATOM     52  C   UNL     1       8.634  -1.985  25.042  0.00  0.00    +0.015 A 
ATOM     53  C   UNL     1       9.890  -2.046  24.419  0.00  0.00    +0.050 A 
ATOM     54  C   UNL     1       9.959  -1.864  23.060  0.00  0.00    +0.158 A 
ATOM     55  C   UNL     1       8.796  -1.665  22.320  0.00  0.00    +0.159 A 
ATOM     56  C   UNL     1       7.529  -1.584  22.952  0.00  0.00    +0.060 A 
BRANCH  55  57
ATOM     57  O   UNL     1       8.953  -1.526  20.964  0.00  0.00    -0.503 OA
ATOM     58  H   UNL     1       8.546  -0.680  20.703  0.00  0.00    +0.292 HD
ENDBRANCH  55  57
BRANCH  54  59
ATOM     59  O   UNL     1      11.182  -1.920  22.441  0.00  0.00    -0.503 OA
ATOM     60  H   UNL     1      11.838  -1.842  23.161  0.00  0.00    +0.292 HD
ENDBRANCH  54  59
ENDBRANCH  50  51
BRANCH  49  61
ATOM     61  O   UNL     1       1.870  -1.411  28.001  0.00  0.00    -0.506 OA
ATOM     62  H   UNL     1       1.132  -1.167  27.418  0.00  0.00    +0.292 HD
ENDBRANCH  49  61
BRANCH  46  63
ATOM     63  O   UNL     1       2.420  -6.010  27.080  0.00  0.00    -0.507 OA
ATOM     64  H   UNL     1       3.149  -6.618  27.293  0.00  0.00    +0.292 HD
ENDBRANCH  46  63
ENDBRANCH  39  40
ENDBRANCH   4  39
TORSDOF 20
ENDMDL
MODEL 6
REMARK VINA RESULT:      -6.2      3.767      6.644
REMARK  Name = 
REMARK  21 active torsions:
REMARK  status: ('A' for Active; 'I' for Inactive)
REMARK    1  A    between atoms: C_1  and  C_2
REMARK    2  A    between atoms: C_3  and  O_54
REMARK    3  A    between atoms: C_4  and  O_53
REMARK    4  A    between atoms: C_5  and  O_30
REMARK    5  A    between atoms: C_6  and  O_8
REMARK    6  A    between atoms: O_8  and  C_9
REMARK    7  A    between atoms: C_10  and  C_22
REMARK    8  A    between atoms: C_14  and  O_21
REMARK    9  A    between atoms: C_16  and  O_20
REMARK   10  A    between atoms: C_24  and  O_29
REMARK   11  A    between atoms: C_25  and  O_28
REMARK   12  A    between atoms: O_30  and  C_31
REMARK   13  A    between atoms: C_32  and  O_52
REMARK   14  A    between atoms: C_33  and  O_51
REMARK   15  A    between atoms: C_34  and  O_50
REMARK   16  A    between atoms: C_35  and  C_37
REMARK   17  A    between atoms: C_37  and  O_38
REMARK   18  A    between atoms: O_38  and  C_39
REMARK   19  A    between atoms: C_39  and  C_41
REMARK   20  A    between atoms: C_42  and  C_43
REMARK   21  A    between atoms: C_46  and  O_49
REMARK                            x       y       z     vdW  Elec       q    Type
REMARK                         _______ _______ _______ _____ _____    ______ ____
ROOT
ATOM      1  C   UNL     1       9.475  -0.700  21.605  0.00  0.00    +0.041 C 
ATOM      2  C   UNL     1       9.622   0.157  22.866  0.00  0.00    +0.150 C 
ATOM      3  O   UNL     1       9.078  -0.376  24.075  0.00  0.00    -0.334 OA
ATOM      4  C   UNL     1       7.704  -0.115  24.468  0.00  0.00    +0.340 C 
ATOM      5  C   UNL     1       7.052   1.277  23.991  0.00  0.00    +0.221 C 
ATOM      6  C   UNL     1       7.585   1.524  22.565  0.00  0.00    +0.180 C 
ATOM      7  C   UNL     1       9.126   1.563  22.622  0.00  0.00    +0.174 C 
ENDROOT
BRANCH   6   8
ATOM      8  O   UNL     1       7.027   2.602  21.837  0.00  0.00    -0.386 OA
ATOM      9  H   UNL     1       6.638   2.280  20.995  0.00  0.00    +0.210 HD
ENDBRANCH   6   8
BRANCH   7  10
ATOM     10  O   UNL     1       9.747   2.128  21.476  0.00  0.00    -0.387 OA
ATOM     11  H   UNL     1       9.109   2.045  20.747  0.00  0.00    +0.210 HD
ENDBRANCH   7  10
BRANCH   5  12
ATOM     12  O   UNL     1       7.356   2.361  24.911  0.00  0.00    -0.337 OA
BRANCH  12  13
ATOM     13  C   UNL     1       6.265   2.868  25.721  0.00  0.00    +0.282 C 
ATOM     14  O   UNL     1       5.436   3.783  24.974  0.00  0.00    -0.339 OA
ATOM     15  C   UNL     1       6.231   4.838  24.389  0.00  0.00    +0.190 C 
ATOM     16  C   UNL     1       6.923   5.734  25.407  0.00  0.00    +0.178 C 
ATOM     17  C   UNL     1       7.647   4.846  26.451  0.00  0.00    +0.179 C 
ATOM     18  C   UNL     1       6.784   3.667  26.937  0.00  0.00    +0.201 C 
BRANCH  17  19
ATOM     19  O   UNL     1       8.042   5.633  27.583  0.00  0.00    -0.386 OA
ATOM     20  H   UNL     1       7.343   6.303  27.718  0.00  0.00    +0.210 HD
ENDBRANCH  17  19
BRANCH  16  21
ATOM     21  O   UNL     1       6.041   6.666  26.022  0.00  0.00    -0.386 OA
ATOM     22  H   UNL     1       5.237   6.746  25.479  0.00  0.00    +0.210 HD
ENDBRANCH  16  21
BRANCH  18  23
ATOM     23  O   UNL     1       7.525   2.834  27.834  0.00  0.00    -0.384 OA
ATOM     24  H   UNL     1       8.148   2.328  27.277  0.00  0.00    +0.210 HD
ENDBRANCH  18  23
BRANCH  15  25
ATOM     25  C   UNL     1       5.539   5.449  23.169  0.00  0.00    +0.266 C 
BRANCH  25  26
ATOM     26  O   UNL     1       4.927   6.713  23.335  0.00  0.00    -0.459 OA
BRANCH  26  27
ATOM     27  C   UNL     1       3.584   6.641  23.223  0.00  0.00    +0.332 C 
ATOM     28  O   UNL     1       2.759   7.012  24.046  0.00  0.00    -0.246 OA
BRANCH  27  29
ATOM     29  C   UNL     1       3.196   6.080  21.926  0.00  0.00    +0.092 C 
ATOM     30  C   UNL     1       2.362   6.661  21.052  0.00  0.00    +0.015 C 
BRANCH  30  31
ATOM     31  C   UNL     1       2.095   6.037  19.751  0.00  0.00    -0.025 A 
ATOM     32  C   UNL     1       1.860   4.657  19.677  0.00  0.00    +0.011 A 
ATOM     33  C   UNL     1       1.590   4.044  18.456  0.00  0.00    +0.046 A 
ATOM     34  C   UNL     1       1.590   4.803  17.298  0.00  0.00    +0.117 A 
ATOM     35  C   UNL     1       1.862   6.169  17.338  0.00  0.00    +0.046 A 
ATOM     36  C   UNL     1       2.120   6.787  18.569  0.00  0.00    +0.011 A 
BRANCH  34  37
ATOM     37  O   UNL     1       1.319   4.168  16.137  0.00  0.00    -0.507 OA
ATOM     38  H   UNL     1       1.043   4.818  15.470  0.00  0.00    +0.292 HD
ENDBRANCH  34  37
ENDBRANCH  30  31
ENDBRANCH  27  29
ENDBRANCH  26  27
ENDBRANCH  25  26
ENDBRANCH  15  25
ENDBRANCH  12  13
ENDBRANCH   5  12
BRANCH   4  39
ATOM     39  O   UNL     1       7.683  -0.237  25.927  0.00  0.00    -0.453 OA
BRANCH  39  40
ATOM     40  C   UNL     1       7.024  -1.330  26.497  0.00  0.00    +0.214 A 
ATOM     41  C   UNL     1       7.592  -2.701  26.251  0.00  0.00    +0.238 A 
ATOM     42  O   UNL     1       8.484  -2.868  25.425  0.00  0.00    -0.283 OA
ATOM     43  C   UNL     1       7.017  -3.840  26.982  0.00  0.00    +0.109 A 
ATOM     44  C   UNL     1       5.826  -3.620  27.649  0.00  0.00    +0.147 A 
ATOM     45  C   UNL     1       5.182  -4.669  28.324  0.00  0.00    +0.092 A 
ATOM     46  C   UNL     1       5.763  -5.933  28.335  0.00  0.00    +0.124 A 
ATOM     47  C   UNL     1       6.963  -6.169  27.680  0.00  0.00    +0.091 A 
ATOM     48  O   UNL     1       5.215  -2.404  27.676  0.00  0.00    -0.451 OA
ATOM     49  C   UNL     1       7.590  -5.120  27.004  0.00  0.00    +0.135 A 
ATOM     50  C   UNL     1       5.821  -1.265  27.135  0.00  0.00    +0.181 A 
BRANCH  50  51
ATOM     51  C   UNL     1       4.900  -0.065  27.344  0.00  0.00    +0.025 A 
ATOM     52  C   UNL     1       5.021   0.675  28.562  0.00  0.00    +0.015 A 
ATOM     53  C   UNL     1       4.202   1.763  28.902  0.00  0.00    +0.050 A 
ATOM     54  C   UNL     1       3.228   2.153  28.017  0.00  0.00    +0.158 A 
ATOM     55  C   UNL     1       3.093   1.504  26.792  0.00  0.00    +0.159 A 
ATOM     56  C   UNL     1       3.908   0.393  26.458  0.00  0.00    +0.060 A 
BRANCH  55  57
ATOM     57  O   UNL     1       2.117   1.980  25.954  0.00  0.00    -0.503 OA
ATOM     58  H   UNL     1       1.757   1.225  25.455  0.00  0.00    +0.292 HD
ENDBRANCH  55  57
BRANCH  54  59
ATOM     59  O   UNL     1       2.421   3.215  28.339  0.00  0.00    -0.503 OA
ATOM     60  H   UNL     1       2.672   3.461  29.251  0.00  0.00    +0.292 HD
ENDBRANCH  54  59
ENDBRANCH  50  51
BRANCH  49  61
ATOM     61  O   UNL     1       8.782  -5.370  26.380  0.00  0.00    -0.506 OA
ATOM     62  H   UNL     1       8.663  -6.034  25.680  0.00  0.00    +0.292 HD
ENDBRANCH  49  61
BRANCH  46  63
ATOM     63  O   UNL     1       5.194  -6.983  28.991  0.00  0.00    -0.507 OA
ATOM     64  H   UNL     1       5.210  -6.819  29.949  0.00  0.00    +0.292 HD
ENDBRANCH  46  63
ENDBRANCH  39  40
ENDBRANCH   4  39
TORSDOF 20
ENDMDL
MODEL 7
REMARK VINA RESULT:      -6.1      2.593      6.770
REMARK  Name = 
REMARK  21 active torsions:
REMARK  status: ('A' for Active; 'I' for Inactive)
REMARK    1  A    between atoms: C_1  and  C_2
REMARK    2  A    between atoms: C_3  and  O_54
REMARK    3  A    between atoms: C_4  and  O_53
REMARK    4  A    between atoms: C_5  and  O_30
REMARK    5  A    between atoms: C_6  and  O_8
REMARK    6  A    between atoms: O_8  and  C_9
REMARK    7  A    between atoms: C_10  and  C_22
REMARK    8  A    between atoms: C_14  and  O_21
REMARK    9  A    between atoms: C_16  and  O_20
REMARK   10  A    between atoms: C_24  and  O_29
REMARK   11  A    between atoms: C_25  and  O_28
REMARK   12  A    between atoms: O_30  and  C_31
REMARK   13  A    between atoms: C_32  and  O_52
REMARK   14  A    between atoms: C_33  and  O_51
REMARK   15  A    between atoms: C_34  and  O_50
REMARK   16  A    between atoms: C_35  and  C_37
REMARK   17  A    between atoms: C_37  and  O_38
REMARK   18  A    between atoms: O_38  and  C_39
REMARK   19  A    between atoms: C_39  and  C_41
REMARK   20  A    between atoms: C_42  and  C_43
REMARK   21  A    between atoms: C_46  and  O_49
REMARK                            x       y       z     vdW  Elec       q    Type
REMARK                         _______ _______ _______ _____ _____    ______ ____
ROOT
ATOM      1  C   UNL     1       0.935  -4.600  25.210  0.00  0.00    +0.041 C 
ATOM      2  C   UNL     1       2.324  -4.712  25.847  0.00  0.00    +0.150 C 
ATOM      3  O   UNL     1       2.896  -3.508  26.362  0.00  0.00    -0.334 OA
ATOM      4  C   UNL     1       3.717  -2.643  25.533  0.00  0.00    +0.340 C 
ATOM      5  C   UNL     1       4.560  -3.338  24.351  0.00  0.00    +0.221 C 
ATOM      6  C   UNL     1       3.648  -4.442  23.778  0.00  0.00    +0.180 C 
ATOM      7  C   UNL     1       3.287  -5.415  24.920  0.00  0.00    +0.174 C 
ENDROOT
BRANCH   6   8
ATOM      8  O   UNL     1       4.081  -5.101  22.602  0.00  0.00    -0.386 OA
ATOM      9  H   UNL     1       3.588  -5.941  22.481  0.00  0.00    +0.210 HD
ENDBRANCH   6   8
BRANCH   7  10
ATOM     10  O   UNL     1       2.758  -6.662  24.490  0.00  0.00    -0.387 OA
ATOM     11  H   UNL     1       2.053  -6.458  23.852  0.00  0.00    +0.210 HD
ENDBRANCH   7  10
BRANCH   5  12
ATOM     12  O   UNL     1       5.841  -3.841  24.822  0.00  0.00    -0.337 OA
BRANCH  12  13
ATOM     13  C   UNL     1       6.428  -3.183  25.974  0.00  0.00    +0.282 C 
ATOM     14  O   UNL     1       7.738  -2.660  25.670  0.00  0.00    -0.339 OA
ATOM     15  C   UNL     1       8.590  -3.692  25.125  0.00  0.00    +0.190 C 
ATOM     16  C   UNL     1       8.877  -4.836  26.088  0.00  0.00    +0.178 C 
ATOM     17  C   UNL     1       7.542  -5.324  26.704  0.00  0.00    +0.179 C 
ATOM     18  C   UNL     1       6.628  -4.166  27.149  0.00  0.00    +0.201 C 
BRANCH  17  19
ATOM     19  O   UNL     1       7.797  -6.175  27.830  0.00  0.00    -0.386 OA
ATOM     20  H   UNL     1       8.390  -5.681  28.428  0.00  0.00    +0.210 HD
ENDBRANCH  17  19
BRANCH  16  21
ATOM     21  O   UNL     1       9.833  -4.499  27.086  0.00  0.00    -0.386 OA
ATOM     22  H   UNL     1      10.090  -5.307  27.563  0.00  0.00    +0.210 HD
ENDBRANCH  16  21
BRANCH  18  23
ATOM     23  O   UNL     1       5.378  -4.665  27.633  0.00  0.00    -0.384 OA
ATOM     24  H   UNL     1       4.793  -3.888  27.716  0.00  0.00    +0.210 HD
ENDBRANCH  18  23
BRANCH  15  25
ATOM     25  C   UNL     1       9.716  -3.097  24.276  0.00  0.00    +0.266 C 
BRANCH  25  26
ATOM     26  O   UNL     1       9.908  -1.697  24.344  0.00  0.00    -0.459 OA
BRANCH  26  27
ATOM     27  C   UNL     1      10.420  -1.203  23.197  0.00  0.00    +0.332 C 
ATOM     28  O   UNL     1      10.833  -1.845  22.242  0.00  0.00    -0.246 OA
BRANCH  27  29
ATOM     29  C   UNL     1      10.386   0.263  23.197  0.00  0.00    +0.092 C 
ATOM     30  C   UNL     1       9.986   1.026  24.224  0.00  0.00    +0.015 C 
BRANCH  30  31
ATOM     31  C   UNL     1      10.056   2.489  24.135  0.00  0.00    -0.025 A 
ATOM     32  C   UNL     1       9.022   3.268  24.673  0.00  0.00    +0.011 A 
ATOM     33  C   UNL     1       9.073   4.658  24.614  0.00  0.00    +0.046 A 
ATOM     34  C   UNL     1      10.141   5.275  23.985  0.00  0.00    +0.117 A 
ATOM     35  C   UNL     1      11.161   4.524  23.406  0.00  0.00    +0.046 A 
ATOM     36  C   UNL     1      11.116   3.125  23.477  0.00  0.00    +0.011 A 
BRANCH  34  37
ATOM     37  O   UNL     1      10.151   6.626  23.955  0.00  0.00    -0.507 OA
ATOM     38  H   UNL     1       9.342   6.964  24.373  0.00  0.00    +0.292 HD
ENDBRANCH  34  37
ENDBRANCH  30  31
ENDBRANCH  27  29
ENDBRANCH  26  27
ENDBRANCH  25  26
ENDBRANCH  15  25
ENDBRANCH  12  13
ENDBRANCH   5  12
BRANCH   4  39
ATOM     39  O   UNL     1       4.596  -1.929  26.461  0.00  0.00    -0.453 OA
BRANCH  39  40
ATOM     40  C   UNL     1       4.218  -0.655  26.893  0.00  0.00    +0.214 A 
ATOM     41  C   UNL     1       3.213  -0.560  28.009  0.00  0.00    +0.238 A 
ATOM     42  O   UNL     1       2.608  -1.558  28.390  0.00  0.00    -0.283 OA
ATOM     43  C   UNL     1       2.935   0.760  28.592  0.00  0.00    +0.109 A 
ATOM     44  C   UNL     1       3.417   1.862  27.910  0.00  0.00    +0.147 A 
ATOM     45  C   UNL     1       3.148   3.161  28.369  0.00  0.00    +0.092 A 
ATOM     46  C   UNL     1       2.406   3.333  29.533  0.00  0.00    +0.124 A 
ATOM     47  C   UNL     1       1.923   2.239  30.237  0.00  0.00    +0.091 A 
ATOM     48  O   UNL     1       4.152   1.753  26.769  0.00  0.00    -0.451 OA
ATOM     49  C   UNL     1       2.190   0.952  29.766  0.00  0.00    +0.135 A 
ATOM     50  C   UNL     1       4.575   0.511  26.283  0.00  0.00    +0.181 A 
BRANCH  50  51
ATOM     51  C   UNL     1       5.393   0.727  25.012  0.00  0.00    +0.025 A 
ATOM     52  C   UNL     1       5.447   2.046  24.460  0.00  0.00    +0.015 A 
ATOM     53  C   UNL     1       6.117   2.369  23.270  0.00  0.00    +0.050 A 
ATOM     54  C   UNL     1       6.770   1.370  22.592  0.00  0.00    +0.158 A 
ATOM     55  C   UNL     1       6.796   0.075  23.105  0.00  0.00    +0.159 A 
ATOM     56  C   UNL     1       6.103  -0.254  24.297  0.00  0.00    +0.060 A 
BRANCH  55  57
ATOM     57  O   UNL     1       7.499  -0.853  22.380  0.00  0.00    -0.503 OA
ATOM     58  H   UNL     1       8.055  -0.372  21.740  0.00  0.00    +0.292 HD
ENDBRANCH  55  57
BRANCH  54  59
ATOM     59  O   UNL     1       7.427   1.675  21.426  0.00  0.00    -0.503 OA
ATOM     60  H   UNL     1       7.735   0.818  21.073  0.00  0.00    +0.292 HD
ENDBRANCH  54  59
ENDBRANCH  50  51
BRANCH  49  61
ATOM     61  O   UNL     1       1.720  -0.114  30.485  0.00  0.00    -0.506 OA
ATOM     62  H   UNL     1       2.386  -0.822  30.511  0.00  0.00    +0.292 HD
ENDBRANCH  49  61
BRANCH  46  63
ATOM     63  O   UNL     1       2.131   4.569  30.038  0.00  0.00    -0.507 OA
ATOM     64  H   UNL     1       1.993   4.508  30.999  0.00  0.00    +0.292 HD
ENDBRANCH  46  63
ENDBRANCH  39  40
ENDBRANCH   4  39
TORSDOF 20
ENDMDL
MODEL 8
REMARK VINA RESULT:      -6.0      3.074      9.415
REMARK  Name = 
REMARK  21 active torsions:
REMARK  status: ('A' for Active; 'I' for Inactive)
REMARK    1  A    between atoms: C_1  and  C_2
REMARK    2  A    between atoms: C_3  and  O_54
REMARK    3  A    between atoms: C_4  and  O_53
REMARK    4  A    between atoms: C_5  and  O_30
REMARK    5  A    between atoms: C_6  and  O_8
REMARK    6  A    between atoms: O_8  and  C_9
REMARK    7  A    between atoms: C_10  and  C_22
REMARK    8  A    between atoms: C_14  and  O_21
REMARK    9  A    between atoms: C_16  and  O_20
REMARK   10  A    between atoms: C_24  and  O_29
REMARK   11  A    between atoms: C_25  and  O_28
REMARK   12  A    between atoms: O_30  and  C_31
REMARK   13  A    between atoms: C_32  and  O_52
REMARK   14  A    between atoms: C_33  and  O_51
REMARK   15  A    between atoms: C_34  and  O_50
REMARK   16  A    between atoms: C_35  and  C_37
REMARK   17  A    between atoms: C_37  and  O_38
REMARK   18  A    between atoms: O_38  and  C_39
REMARK   19  A    between atoms: C_39  and  C_41
REMARK   20  A    between atoms: C_42  and  C_43
REMARK   21  A    between atoms: C_46  and  O_49
REMARK                            x       y       z     vdW  Elec       q    Type
REMARK                         _______ _______ _______ _____ _____    ______ ____
ROOT
ATOM      1  C   UNL     1       9.155   0.749  22.103  0.00  0.00    +0.041 C 
ATOM      2  C   UNL     1       7.868   0.149  22.676  0.00  0.00    +0.150 C 
ATOM      3  O   UNL     1       6.777   1.047  22.890  0.00  0.00    -0.334 OA
ATOM      4  C   UNL     1       6.610   1.750  24.151  0.00  0.00    +0.340 C 
ATOM      5  C   UNL     1       7.156   1.024  25.479  0.00  0.00    +0.221 C 
ATOM      6  C   UNL     1       8.469   0.327  25.067  0.00  0.00    +0.180 C 
ATOM      7  C   UNL     1       8.158  -0.658  23.920  0.00  0.00    +0.174 C 
ENDROOT
BRANCH   6   8
ATOM      8  O   UNL     1       9.254  -0.247  26.096  0.00  0.00    -0.386 OA
ATOM      9  H   UNL     1      10.206  -0.208  25.860  0.00  0.00    +0.210 HD
ENDBRANCH   6   8
BRANCH   7  10
ATOM     10  O   UNL     1       9.173  -1.621  23.676  0.00  0.00    -0.387 OA
ATOM     11  H   UNL     1       9.584  -1.380  22.828  0.00  0.00    +0.210 HD
ENDBRANCH   7  10
BRANCH   5  12
ATOM     12  O   UNL     1       6.174   0.109  26.039  0.00  0.00    -0.337 OA
BRANCH  12  13
ATOM     13  C   UNL     1       6.455  -0.444  27.350  0.00  0.00    +0.282 C 
ATOM     14  O   UNL     1       5.434  -1.380  27.756  0.00  0.00    -0.339 OA
ATOM     15  C   UNL     1       4.123  -0.778  27.676  0.00  0.00    +0.190 C 
ATOM     16  C   UNL     1       3.920   0.402  28.616  0.00  0.00    +0.178 C 
ATOM     17  C   UNL     1       5.116   1.376  28.469  0.00  0.00    +0.179 C 
ATOM     18  C   UNL     1       6.477   0.654  28.437  0.00  0.00    +0.201 C 
BRANCH  17  19
ATOM     19  O   UNL     1       5.118   2.325  29.545  0.00  0.00    -0.386 OA
ATOM     20  H   UNL     1       5.621   3.102  29.234  0.00  0.00    +0.210 HD
ENDBRANCH  17  19
BRANCH  16  21
ATOM     21  O   UNL     1       3.716   0.009  29.968  0.00  0.00    -0.386 OA
ATOM     22  H   UNL     1       2.959  -0.602  30.010  0.00  0.00    +0.210 HD
ENDBRANCH  16  21
BRANCH  18  23
ATOM     23  O   UNL     1       7.539   1.586  28.218  0.00  0.00    -0.384 OA
ATOM     24  H   UNL     1       7.193   2.244  27.583  0.00  0.00    +0.210 HD
ENDBRANCH  18  23
BRANCH  15  25
ATOM     25  C   UNL     1       3.030  -1.837  27.520  0.00  0.00    +0.266 C 
BRANCH  25  26
ATOM     26  O   UNL     1       2.632  -2.169  26.204  0.00  0.00    -0.459 OA
BRANCH  26  27
ATOM     27  C   UNL     1       2.671  -3.501  25.987  0.00  0.00    +0.332 C 
ATOM     28  O   UNL     1       1.715  -4.244  25.817  0.00  0.00    -0.246 OA
BRANCH  27  29
ATOM     29  C   UNL     1       4.055  -3.982  25.930  0.00  0.00    +0.092 C 
ATOM     30  C   UNL     1       4.948  -3.653  24.988  0.00  0.00    +0.015 C 
BRANCH  30  31
ATOM     31  C   UNL     1       6.329  -4.144  25.067  0.00  0.00    -0.025 A 
ATOM     32  C   UNL     1       7.012  -4.102  26.291  0.00  0.00    +0.011 A 
ATOM     33  C   UNL     1       8.317  -4.576  26.395  0.00  0.00    +0.046 A 
ATOM     34  C   UNL     1       8.958  -5.061  25.268  0.00  0.00    +0.117 A 
ATOM     35  C   UNL     1       8.317  -5.076  24.031  0.00  0.00    +0.046 A 
ATOM     36  C   UNL     1       6.998  -4.611  23.930  0.00  0.00    +0.011 A 
BRANCH  34  37
ATOM     37  O   UNL     1      10.222  -5.514  25.416  0.00  0.00    -0.507 OA
ATOM     38  H   UNL     1      10.534  -5.313  26.314  0.00  0.00    +0.292 HD
ENDBRANCH  34  37
ENDBRANCH  30  31
ENDBRANCH  27  29
ENDBRANCH  26  27
ENDBRANCH  25  26
ENDBRANCH  15  25
ENDBRANCH  12  13
ENDBRANCH   5  12
BRANCH   4  39
ATOM     39  O   UNL     1       5.177   2.035  24.254  0.00  0.00    -0.453 OA
BRANCH  39  40
ATOM     40  C   UNL     1       4.758   3.040  25.129  0.00  0.00    +0.214 A 
ATOM     41  C   UNL     1       3.421   2.876  25.801  0.00  0.00    +0.238 A 
ATOM     42  O   UNL     1       2.649   1.991  25.445  0.00  0.00    -0.283 OA
ATOM     43  C   UNL     1       3.043   3.831  26.852  0.00  0.00    +0.109 A 
ATOM     44  C   UNL     1       3.820   4.968  26.977  0.00  0.00    +0.147 A 
ATOM     45  C   UNL     1       3.493   5.956  27.918  0.00  0.00    +0.092 A 
ATOM     46  C   UNL     1       2.388   5.774  28.744  0.00  0.00    +0.124 A 
ATOM     47  C   UNL     1       1.604   4.635  28.640  0.00  0.00    +0.091 A 
ATOM     48  O   UNL     1       4.914   5.196  26.200  0.00  0.00    -0.451 OA
ATOM     49  C   UNL     1       1.933   3.662  27.694  0.00  0.00    +0.135 A 
ATOM     50  C   UNL     1       5.396   4.231  25.309  0.00  0.00    +0.181 A 
BRANCH  50  51
ATOM     51  C   UNL     1       6.639   4.778  24.610  0.00  0.00    +0.025 A 
ATOM     52  C   UNL     1       7.877   4.767  25.327  0.00  0.00    +0.015 A 
ATOM     53  C   UNL     1       9.079   5.287  24.822  0.00  0.00    +0.050 A 
ATOM     54  C   UNL     1       9.080   5.834  23.563  0.00  0.00    +0.158 A 
ATOM     55  C   UNL     1       7.917   5.830  22.796  0.00  0.00    +0.159 A 
ATOM     56  C   UNL     1       6.700   5.321  23.314  0.00  0.00    +0.060 A 
BRANCH  55  57
ATOM     57  O   UNL     1       8.016   6.366  21.537  0.00  0.00    -0.503 OA
ATOM     58  H   UNL     1       7.200   6.145  21.055  0.00  0.00    +0.292 HD
ENDBRANCH  55  57
BRANCH  54  59
ATOM     59  O   UNL     1      10.249   6.347  23.060  0.00  0.00    -0.503 OA
ATOM     60  H   UNL     1      10.741   5.576  22.717  0.00  0.00    +0.292 HD
ENDBRANCH  54  59
ENDBRANCH  50  51
BRANCH  49  61
ATOM     61  O   UNL     1       1.157   2.537  27.621  0.00  0.00    -0.506 OA
ATOM     62  H   UNL     1       0.603   2.562  26.823  0.00  0.00    +0.292 HD
ENDBRANCH  49  61
BRANCH  46  63
ATOM     63  O   UNL     1       2.035   6.690  29.690  0.00  0.00    -0.507 OA
ATOM     64  H   UNL     1       2.387   7.564  29.448  0.00  0.00    +0.292 HD
ENDBRANCH  46  63
ENDBRANCH  39  40
ENDBRANCH   4  39
TORSDOF 20
ENDMDL
MODEL 9
REMARK VINA RESULT:      -5.9      2.634      7.892
REMARK  Name = 
REMARK  21 active torsions:
REMARK  status: ('A' for Active; 'I' for Inactive)
REMARK    1  A    between atoms: C_1  and  C_2
REMARK    2  A    between atoms: C_3  and  O_54
REMARK    3  A    between atoms: C_4  and  O_53
REMARK    4  A    between atoms: C_5  and  O_30
REMARK    5  A    between atoms: C_6  and  O_8
REMARK    6  A    between atoms: O_8  and  C_9
REMARK    7  A    between atoms: C_10  and  C_22
REMARK    8  A    between atoms: C_14  and  O_21
REMARK    9  A    between atoms: C_16  and  O_20
REMARK   10  A    between atoms: C_24  and  O_29
REMARK   11  A    between atoms: C_25  and  O_28
REMARK   12  A    between atoms: O_30  and  C_31
REMARK   13  A    between atoms: C_32  and  O_52
REMARK   14  A    between atoms: C_33  and  O_51
REMARK   15  A    between atoms: C_34  and  O_50
REMARK   16  A    between atoms: C_35  and  C_37
REMARK   17  A    between atoms: C_37  and  O_38
REMARK   18  A    between atoms: O_38  and  C_39
REMARK   19  A    between atoms: C_39  and  C_41
REMARK   20  A    between atoms: C_42  and  C_43
REMARK   21  A    between atoms: C_46  and  O_49
REMARK                            x       y       z     vdW  Elec       q    Type
REMARK                         _______ _______ _______ _____ _____    ______ ____
ROOT
ATOM      1  C   UNL     1       5.893  -5.032  22.377  0.00  0.00    +0.041 C 
ATOM      2  C   UNL     1       4.879  -3.930  22.698  0.00  0.00    +0.150 C 
ATOM      3  O   UNL     1       5.389  -2.738  23.297  0.00  0.00    -0.334 OA
ATOM      4  C   UNL     1       5.490  -2.598  24.740  0.00  0.00    +0.340 C 
ATOM      5  C   UNL     1       4.418  -3.397  25.636  0.00  0.00    +0.221 C 
ATOM      6  C   UNL     1       4.209  -4.753  24.931  0.00  0.00    +0.180 C 
ATOM      7  C   UNL     1       3.719  -4.483  23.493  0.00  0.00    +0.174 C 
ENDROOT
BRANCH   6   8
ATOM      8  O   UNL     1       3.438  -5.729  25.607  0.00  0.00    -0.386 OA
ATOM      9  H   UNL     1       3.922  -6.582  25.640  0.00  0.00    +0.210 HD
ENDBRANCH   6   8
BRANCH   7  10
ATOM     10  O   UNL     1       3.147  -5.607  22.841  0.00  0.00    -0.387 OA
ATOM     11  H   UNL     1       2.194  -5.584  23.034  0.00  0.00    +0.210 HD
ENDBRANCH   7  10
BRANCH   5  12
ATOM     12  O   UNL     1       3.186  -2.644  25.805  0.00  0.00    -0.337 OA
BRANCH  12  13
ATOM     13  C   UNL     1       2.251  -3.121  26.808  0.00  0.00    +0.282 C 
ATOM     14  O   UNL     1       1.121  -2.232  26.937  0.00  0.00    -0.339 OA
ATOM     15  C   UNL     1       1.557  -0.876  27.183  0.00  0.00    +0.190 C 
ATOM     16  C   UNL     1       2.308  -0.692  28.495  0.00  0.00    +0.178 C 
ATOM     17  C   UNL     1       3.405  -1.782  28.605  0.00  0.00    +0.179 C 
ATOM     18  C   UNL     1       2.901  -3.182  28.207  0.00  0.00    +0.201 C 
BRANCH  17  19
ATOM     19  O   UNL     1       3.918  -1.834  29.944  0.00  0.00    -0.386 OA
ATOM     20  H   UNL     1       4.322  -0.963  30.125  0.00  0.00    +0.210 HD
ENDBRANCH  17  19
BRANCH  16  21
ATOM     21  O   UNL     1       1.452  -0.680  29.631  0.00  0.00    -0.386 OA
ATOM     22  H   UNL     1       1.239  -1.598  29.876  0.00  0.00    +0.210 HD
ENDBRANCH  16  21
BRANCH  18  23
ATOM     23  O   UNL     1       3.969  -4.134  28.248  0.00  0.00    -0.384 OA
ATOM     24  H   UNL     1       4.671  -3.774  27.671  0.00  0.00    +0.210 HD
ENDBRANCH  18  23
BRANCH  15  25
ATOM     25  C   UNL     1       0.498   0.139  26.752  0.00  0.00    +0.266 C 
BRANCH  25  26
ATOM     26  O   UNL     1       0.767   1.505  27.005  0.00  0.00    -0.459 OA
BRANCH  26  27
ATOM     27  C   UNL     1       1.167   2.154  25.891  0.00  0.00    +0.332 C 
ATOM     28  O   UNL     1       0.607   2.159  24.804  0.00  0.00    -0.246 OA
BRANCH  27  29
ATOM     29  C   UNL     1       2.386   2.929  26.145  0.00  0.00    +0.092 C 
ATOM     30  C   UNL     1       3.526   2.432  26.645  0.00  0.00    +0.015 C 
BRANCH  30  31
ATOM     31  C   UNL     1       4.707   3.290  26.797  0.00  0.00    -0.025 A 
ATOM     32  C   UNL     1       5.906   2.743  27.275  0.00  0.00    +0.011 A 
ATOM     33  C   UNL     1       7.044   3.533  27.414  0.00  0.00    +0.046 A 
ATOM     34  C   UNL     1       6.978   4.882  27.111  0.00  0.00    +0.117 A 
ATOM     35  C   UNL     1       5.788   5.460  26.674  0.00  0.00    +0.046 A 
ATOM     36  C   UNL     1       4.647   4.661  26.522  0.00  0.00    +0.011 A 
BRANCH  34  37
ATOM     37  O   UNL     1       8.107   5.609  27.257  0.00  0.00    -0.507 OA
ATOM     38  H   UNL     1       7.915   6.545  27.080  0.00  0.00    +0.292 HD
ENDBRANCH  34  37
ENDBRANCH  30  31
ENDBRANCH  27  29
ENDBRANCH  26  27
ENDBRANCH  25  26
ENDBRANCH  15  25
ENDBRANCH  12  13
ENDBRANCH   5  12
BRANCH   4  39
ATOM     39  O   UNL     1       5.429  -1.158  25.000  0.00  0.00    -0.453 OA
BRANCH  39  40
ATOM     40  C   UNL     1       6.557  -0.381  24.725  0.00  0.00    +0.214 A 
ATOM     41  C   UNL     1       6.343   0.995  24.155  0.00  0.00    +0.238 A 
ATOM     42  O   UNL     1       5.232   1.343  23.768  0.00  0.00    -0.283 OA
ATOM     43  C   UNL     1       7.503   1.888  24.025  0.00  0.00    +0.109 A 
ATOM     44  C   UNL     1       8.754   1.322  24.189  0.00  0.00    +0.147 A 
ATOM     45  C   UNL     1       9.914   2.093  24.025  0.00  0.00    +0.092 A 
ATOM     46  C   UNL     1       9.798   3.444  23.715  0.00  0.00    +0.124 A 
ATOM     47  C   UNL     1       8.551   4.032  23.556  0.00  0.00    +0.091 A 
ATOM     48  O   UNL     1       8.927   0.007  24.497  0.00  0.00    -0.451 OA
ATOM     49  C   UNL     1       7.403   3.253  23.713  0.00  0.00    +0.135 A 
ATOM     50  C   UNL     1       7.843  -0.827  24.794  0.00  0.00    +0.181 A 
BRANCH  50  51
ATOM     51  C   UNL     1       8.367  -2.224  25.120  0.00  0.00    +0.025 A 
ATOM     52  C   UNL     1       9.280  -2.834  24.202  0.00  0.00    +0.015 A 
ATOM     53  C   UNL     1       9.793  -4.132  24.355  0.00  0.00    +0.050 A 
ATOM     54  C   UNL     1       9.410  -4.865  25.451  0.00  0.00    +0.158 A 
ATOM     55  C   UNL     1       8.563  -4.307  26.406  0.00  0.00    +0.159 A 
ATOM     56  C   UNL     1       8.030  -3.004  26.241  0.00  0.00    +0.060 A 
BRANCH  55  57
ATOM     57  O   UNL     1       8.259  -5.097  27.485  0.00  0.00    -0.503 OA
ATOM     58  H   UNL     1       7.854  -5.917  27.150  0.00  0.00    +0.292 HD
ENDBRANCH  55  57
BRANCH  54  59
ATOM     59  O   UNL     1       9.905  -6.135  25.610  0.00  0.00    -0.503 OA
ATOM     60  H   UNL     1      10.867  -6.021  25.738  0.00  0.00    +0.292 HD
ENDBRANCH  54  59
ENDBRANCH  50  51
BRANCH  49  61
ATOM     61  O   UNL     1       6.183   3.857  23.571  0.00  0.00    -0.506 OA
ATOM     62  H   UNL     1       6.002   4.032  22.632  0.00  0.00    +0.292 HD
ENDBRANCH  49  61
BRANCH  46  63
ATOM     63  O   UNL     1      10.889   4.247  23.564  0.00  0.00    -0.507 OA
ATOM     64  H   UNL     1      11.670   3.704  23.359  0.00  0.00    +0.292 HD
ENDBRANCH  46  63
ENDBRANCH  39  40
ENDBRANCH   4  39
TORSDOF 20
ENDMDL
