MODEL 1
REMARK VINA RESULT:      -7.4      0.000      0.000
REMARK  Name = 
REMARK  23 active torsions:
REMARK  status: ('A' for Active; 'I' for Inactive)
REMARK    1  A    between atoms: C_1  and  C_2
REMARK    2  A    between atoms: C_3  and  O_35
REMARK    3  A    between atoms: C_5  and  O_34
REMARK    4  A    between atoms: C_6  and  O_33
REMARK    5  A    between atoms: C_8  and  O_11
REMARK    6  A    between atoms: O_11  and  C_12
REMARK    7  A    between atoms: C_13  and  C_25
REMARK    8  A    between atoms: C_17  and  O_24
REMARK    9  A    between atoms: C_19  and  O_23
REMARK   10  A    between atoms: C_27  and  O_32
REMARK   11  A    between atoms: C_28  and  O_31
REMARK   12  A    between atoms: O_35  and  C_36
REMARK   13  A    between atoms: C_38  and  O_62
REMARK   14  A    between atoms: C_39  and  O_61
REMARK   15  A    between atoms: C_40  and  O_60
REMARK   16  A    between atoms: C_42  and  C_44
REMARK   17  A    between atoms: C_44  and  O_45
REMARK   18  A    between atoms: O_45  and  C_46
REMARK   19  A    between atoms: C_48  and  O_59
REMARK   20  A    between atoms: C_49  and  O_58
REMARK   21  A    between atoms: C_51  and  O_57
REMARK   22  A    between atoms: C_53  and  C_55
REMARK   23  A    between atoms: C_55  and  O_56
REMARK                            x       y       z     vdW  Elec       q    Type
REMARK                         _______ _______ _______ _____ _____    ______ ____
ROOT
ATOM      1  C   UNL     1       4.557  -1.178  29.049  0.00  0.00    +0.041 C 
ATOM      2  C   UNL     1       4.843  -0.326  27.802  0.00  0.00    +0.151 C 
ATOM      3  O   UNL     1       5.662  -1.019  26.836  0.00  0.00    -0.334 OA
ATOM      4  C   UNL     1       7.015  -1.185  27.296  0.00  0.00    +0.339 C 
ATOM      5  C   UNL     1       7.701   0.197  27.447  0.00  0.00    +0.214 C 
ATOM      6  C   UNL     1       6.927   0.976  28.504  0.00  0.00    +0.180 C 
ATOM      7  C   UNL     1       5.425   1.062  28.173  0.00  0.00    +0.181 C 
ENDROOT
BRANCH   6   8
ATOM      8  O   UNL     1       7.469   2.302  28.635  0.00  0.00    -0.386 OA
ATOM      9  H   UNL     1       6.689   2.882  28.537  0.00  0.00    +0.210 HD
ENDBRANCH   6   8
BRANCH   5  10
ATOM     10  O   UNL     1       7.760   0.912  26.199  0.00  0.00    -0.383 OA
ATOM     11  H   UNL     1       8.236   1.739  26.390  0.00  0.00    +0.210 HD
ENDBRANCH   5  10
BRANCH   7  12
ATOM     12  O   UNL     1       5.283   2.062  27.137  0.00  0.00    -0.340 OA
BRANCH  12  13
ATOM     13  C   UNL     1       4.059   2.043  26.386  0.00  0.00    +0.282 C 
ATOM     14  O   UNL     1       4.337   2.202  24.984  0.00  0.00    -0.341 OA
ATOM     15  C   UNL     1       5.022   3.427  24.652  0.00  0.00    +0.178 C 
ATOM     16  C   UNL     1       4.279   4.673  25.191  0.00  0.00    +0.177 C 
ATOM     17  C   UNL     1       3.801   4.494  26.637  0.00  0.00    +0.179 C 
ATOM     18  C   UNL     1       3.072   3.153  26.798  0.00  0.00    +0.201 C 
BRANCH  18  19
ATOM     19  O   UNL     1       2.550   3.003  28.125  0.00  0.00    -0.384 OA
ATOM     20  H   UNL     1       3.309   2.977  28.739  0.00  0.00    +0.210 HD
ENDBRANCH  18  19
BRANCH  17  21
ATOM     21  O   UNL     1       2.923   5.570  27.017  0.00  0.00    -0.386 OA
ATOM     22  H   UNL     1       2.441   5.286  27.818  0.00  0.00    +0.210 HD
ENDBRANCH  17  21
BRANCH  16  23
ATOM     23  O   UNL     1       3.119   4.946  24.386  0.00  0.00    -0.386 OA
ATOM     24  H   UNL     1       3.265   4.482  23.541  0.00  0.00    +0.210 HD
ENDBRANCH  16  23
BRANCH  15  25
ATOM     25  C   UNL     1       5.185   3.514  23.106  0.00  0.00    +0.197 C 
BRANCH  25  26
ATOM     26  O   UNL     1       5.920   4.685  22.773  0.00  0.00    -0.346 OA
BRANCH  26  27
ATOM     27  C   UNL     1       7.136   4.504  22.038  0.00  0.00    +0.282 C 
ATOM     28  O   UNL     1       8.072   3.597  22.610  0.00  0.00    -0.341 OA
ATOM     29  C   UNL     1       8.880   4.027  23.730  0.00  0.00    +0.178 C 
ATOM     30  C   UNL     1       9.161   5.555  23.907  0.00  0.00    +0.177 C 
ATOM     31  C   UNL     1       8.062   6.431  23.320  0.00  0.00    +0.179 C 
ATOM     32  C   UNL     1       7.767   5.897  21.903  0.00  0.00    +0.201 C 
BRANCH  32  33
ATOM     33  O   UNL     1       6.939   6.805  21.172  0.00  0.00    -0.384 OA
ATOM     34  H   UNL     1       7.397   7.000  20.337  0.00  0.00    +0.210 HD
ENDBRANCH  32  33
BRANCH  31  35
ATOM     35  O   UNL     1       6.964   6.463  24.238  0.00  0.00    -0.386 OA
ATOM     36  H   UNL     1       6.207   5.978  23.839  0.00  0.00    +0.210 HD
ENDBRANCH  31  35
BRANCH  30  37
ATOM     37  O   UNL     1      10.400   5.946  23.292  0.00  0.00    -0.386 OA
ATOM     38  H   UNL     1      10.457   5.476  22.438  0.00  0.00    +0.210 HD
ENDBRANCH  30  37
BRANCH  29  39
ATOM     39  C   UNL     1      10.235   3.274  23.637  0.00  0.00    +0.190 C 
BRANCH  39  40
ATOM     40  O   UNL     1      10.661   3.015  22.299  0.00  0.00    -0.392 OA
ATOM     41  H   UNL     1      10.039   3.455  21.699  0.00  0.00    +0.210 HD
ENDBRANCH  39  40
ENDBRANCH  29  39
ENDBRANCH  26  27
ENDBRANCH  25  26
ENDBRANCH  15  25
ENDBRANCH  12  13
ENDBRANCH   7  12
BRANCH   4  42
ATOM     42  O   UNL     1       7.788  -2.045  26.450  0.00  0.00    -0.453 OA
BRANCH  42  43
ATOM     43  C   UNL     1       7.084  -3.073  25.809  0.00  0.00    +0.214 A 
ATOM     44  C   UNL     1       6.535  -4.247  26.562  0.00  0.00    +0.238 A 
ATOM     45  O   UNL     1       6.863  -4.520  27.710  0.00  0.00    -0.283 OA
ATOM     46  C   UNL     1       5.634  -5.162  25.876  0.00  0.00    +0.109 A 
ATOM     47  C   UNL     1       5.537  -5.047  24.497  0.00  0.00    +0.147 A 
ATOM     48  C   UNL     1       4.782  -5.993  23.795  0.00  0.00    +0.092 A 
ATOM     49  C   UNL     1       4.143  -7.027  24.485  0.00  0.00    +0.124 A 
ATOM     50  C   UNL     1       4.228  -7.129  25.867  0.00  0.00    +0.091 A 
ATOM     51  O   UNL     1       6.170  -4.052  23.786  0.00  0.00    -0.451 OA
ATOM     52  C   UNL     1       4.958  -6.177  26.572  0.00  0.00    +0.135 A 
ATOM     53  C   UNL     1       6.895  -3.068  24.468  0.00  0.00    +0.181 A 
BRANCH  53  54
ATOM     54  C   UNL     1       7.452  -2.004  23.574  0.00  0.00    +0.025 A 
ATOM     55  C   UNL     1       6.781  -0.776  23.426  0.00  0.00    +0.015 A 
ATOM     56  C   UNL     1       7.299   0.253  22.621  0.00  0.00    +0.050 A 
ATOM     57  C   UNL     1       8.504   0.059  21.966  0.00  0.00    +0.158 A 
ATOM     58  C   UNL     1       9.177  -1.149  22.076  0.00  0.00    +0.159 A 
ATOM     59  C   UNL     1       8.649  -2.178  22.853  0.00  0.00    +0.060 A 
BRANCH  58  60
ATOM     60  O   UNL     1      10.365  -1.283  21.410  0.00  0.00    -0.503 OA
ATOM     61  H   UNL     1      10.914  -1.926  21.898  0.00  0.00    +0.292 HD
ENDBRANCH  58  60
BRANCH  57  62
ATOM     62  O   UNL     1       9.034   1.067  21.213  0.00  0.00    -0.503 OA
ATOM     63  H   UNL     1       8.915   0.766  20.289  0.00  0.00    +0.292 HD
ENDBRANCH  57  62
ENDBRANCH  53  54
BRANCH  52  64
ATOM     64  O   UNL     1       4.996  -6.261  27.934  0.00  0.00    -0.506 OA
ATOM     65  H   UNL     1       5.759  -5.783  28.293  0.00  0.00    +0.292 HD
ENDBRANCH  52  64
BRANCH  49  66
ATOM     66  O   UNL     1       3.415  -7.988  23.850  0.00  0.00    -0.507 OA
ATOM     67  H   UNL     1       3.820  -8.172  22.990  0.00  0.00    +0.292 HD
ENDBRANCH  49  66
ENDBRANCH  42  43
ENDBRANCH   4  42
TORSDOF 22
ENDMDL
MODEL 2
REMARK VINA RESULT:      -6.8      1.234      2.191
REMARK  Name = 
REMARK  23 active torsions:
REMARK  status: ('A' for Active; 'I' for Inactive)
REMARK    1  A    between atoms: C_1  and  C_2
REMARK    2  A    between atoms: C_3  and  O_35
REMARK    3  A    between atoms: C_5  and  O_34
REMARK    4  A    between atoms: C_6  and  O_33
REMARK    5  A    between atoms: C_8  and  O_11
REMARK    6  A    between atoms: O_11  and  C_12
REMARK    7  A    between atoms: C_13  and  C_25
REMARK    8  A    between atoms: C_17  and  O_24
REMARK    9  A    between atoms: C_19  and  O_23
REMARK   10  A    between atoms: C_27  and  O_32
REMARK   11  A    between atoms: C_28  and  O_31
REMARK   12  A    between atoms: O_35  and  C_36
REMARK   13  A    between atoms: C_38  and  O_62
REMARK   14  A    between atoms: C_39  and  O_61
REMARK   15  A    between atoms: C_40  and  O_60
REMARK   16  A    between atoms: C_42  and  C_44
REMARK   17  A    between atoms: C_44  and  O_45
REMARK   18  A    between atoms: O_45  and  C_46
REMARK   19  A    between atoms: C_48  and  O_59
REMARK   20  A    between atoms: C_49  and  O_58
REMARK   21  A    between atoms: C_51  and  O_57
REMARK   22  A    between atoms: C_53  and  C_55
REMARK   23  A    between atoms: C_55  and  O_56
REMARK                            x       y       z     vdW  Elec       q    Type
REMARK                         _______ _______ _______ _____ _____    ______ ____
ROOT
ATOM      1  C   UNL     1       4.201  -0.675  28.368  0.00  0.00    +0.041 C 
ATOM      2  C   UNL     1       4.805  -0.009  27.119  0.00  0.00    +0.151 C 
ATOM      3  O   UNL     1       5.706  -0.884  26.409  0.00  0.00    -0.334 OA
ATOM      4  C   UNL     1       6.924  -1.113  27.139  0.00  0.00    +0.339 C 
ATOM      5  C   UNL     1       7.719   0.211  27.278  0.00  0.00    +0.214 C 
ATOM      6  C   UNL     1       6.854   1.179  28.079  0.00  0.00    +0.180 C 
ATOM      7  C   UNL     1       5.458   1.356  27.453  0.00  0.00    +0.181 C 
ENDROOT
BRANCH   6   8
ATOM      8  O   UNL     1       7.506   2.457  28.176  0.00  0.00    -0.386 OA
ATOM      9  H   UNL     1       6.775   3.075  28.372  0.00  0.00    +0.210 HD
ENDBRANCH   6   8
BRANCH   5  10
ATOM     10  O   UNL     1       8.086   0.760  26.000  0.00  0.00    -0.383 OA
ATOM     11  H   UNL     1       7.297   1.231  25.679  0.00  0.00    +0.210 HD
ENDBRANCH   5  10
BRANCH   7  12
ATOM     12  O   UNL     1       5.620   2.232  26.312  0.00  0.00    -0.340 OA
BRANCH  12  13
ATOM     13  C   UNL     1       4.979   1.827  25.093  0.00  0.00    +0.282 C 
ATOM     14  O   UNL     1       5.880   1.986  23.983  0.00  0.00    -0.341 OA
ATOM     15  C   UNL     1       6.349   3.337  23.791  0.00  0.00    +0.178 C 
ATOM     16  C   UNL     1       5.181   4.346  23.676  0.00  0.00    +0.177 C 
ATOM     17  C   UNL     1       4.095   4.113  24.733  0.00  0.00    +0.179 C 
ATOM     18  C   UNL     1       3.702   2.630  24.778  0.00  0.00    +0.201 C 
BRANCH  18  19
ATOM     19  O   UNL     1       2.631   2.407  25.706  0.00  0.00    -0.384 OA
ATOM     20  H   UNL     1       2.132   3.242  25.786  0.00  0.00    +0.210 HD
ENDBRANCH  18  19
BRANCH  17  21
ATOM     21  O   UNL     1       2.932   4.913  24.449  0.00  0.00    -0.386 OA
ATOM     22  H   UNL     1       3.208   5.624  23.838  0.00  0.00    +0.210 HD
ENDBRANCH  17  21
BRANCH  16  23
ATOM     23  O   UNL     1       4.556   4.236  22.386  0.00  0.00    -0.386 OA
ATOM     24  H   UNL     1       4.824   3.369  22.032  0.00  0.00    +0.210 HD
ENDBRANCH  16  23
BRANCH  15  25
ATOM     25  C   UNL     1       7.243   3.386  22.517  0.00  0.00    +0.197 C 
BRANCH  25  26
ATOM     26  O   UNL     1       8.568   2.996  22.855  0.00  0.00    -0.346 OA
BRANCH  26  27
ATOM     27  C   UNL     1       9.093   3.480  24.097  0.00  0.00    +0.282 C 
ATOM     28  O   UNL     1       9.162   4.896  24.227  0.00  0.00    -0.341 OA
ATOM     29  C   UNL     1      10.227   5.615  23.563  0.00  0.00    +0.178 C 
ATOM     30  C   UNL     1      11.556   4.857  23.244  0.00  0.00    +0.177 C 
ATOM     31  C   UNL     1      11.354   3.360  23.055  0.00  0.00    +0.179 C 
ATOM     32  C   UNL     1      10.494   2.868  24.238  0.00  0.00    +0.201 C 
BRANCH  32  33
ATOM     33  O   UNL     1      10.466   1.439  24.295  0.00  0.00    -0.384 OA
ATOM     34  H   UNL     1      10.776   1.183  25.180  0.00  0.00    +0.210 HD
ENDBRANCH  32  33
BRANCH  31  35
ATOM     35  O   UNL     1      10.835   3.131  21.742  0.00  0.00    -0.386 OA
ATOM     36  H   UNL     1      10.875   2.167  21.552  0.00  0.00    +0.210 HD
ENDBRANCH  31  35
BRANCH  30  37
ATOM     37  O   UNL     1      12.535   5.035  24.282  0.00  0.00    -0.386 OA
ATOM     38  H   UNL     1      12.974   4.174  24.412  0.00  0.00    +0.210 HD
ENDBRANCH  30  37
BRANCH  29  39
ATOM     39  C   UNL     1      10.553   6.860  24.433  0.00  0.00    +0.190 C 
BRANCH  39  40
ATOM     40  O   UNL     1      10.367   6.651  25.833  0.00  0.00    -0.392 OA
ATOM     41  H   UNL     1      10.248   7.519  26.248  0.00  0.00    +0.210 HD
ENDBRANCH  39  40
ENDBRANCH  29  39
ENDBRANCH  26  27
ENDBRANCH  25  26
ENDBRANCH  15  25
ENDBRANCH  12  13
ENDBRANCH   7  12
BRANCH   4  42
ATOM     42  O   UNL     1       7.740  -2.134  26.553  0.00  0.00    -0.453 OA
BRANCH  42  43
ATOM     43  C   UNL     1       7.056  -3.180  25.917  0.00  0.00    +0.214 A 
ATOM     44  C   UNL     1       6.395  -4.281  26.691  0.00  0.00    +0.238 A 
ATOM     45  O   UNL     1       6.608  -4.486  27.879  0.00  0.00    -0.283 OA
ATOM     46  C   UNL     1       5.525  -5.209  25.985  0.00  0.00    +0.109 A 
ATOM     47  C   UNL     1       5.557  -5.185  24.598  0.00  0.00    +0.147 A 
ATOM     48  C   UNL     1       4.831  -6.150  23.892  0.00  0.00    +0.092 A 
ATOM     49  C   UNL     1       4.092  -7.113  24.584  0.00  0.00    +0.124 A 
ATOM     50  C   UNL     1       4.048  -7.124  25.973  0.00  0.00    +0.091 A 
ATOM     51  O   UNL     1       6.290  -4.261  23.886  0.00  0.00    -0.451 OA
ATOM     52  C   UNL     1       4.749  -6.152  26.679  0.00  0.00    +0.135 A 
ATOM     53  C   UNL     1       6.989  -3.259  24.567  0.00  0.00    +0.181 A 
BRANCH  53  54
ATOM     54  C   UNL     1       7.666  -2.277  23.662  0.00  0.00    +0.025 A 
ATOM     55  C   UNL     1       6.987  -1.122  23.230  0.00  0.00    +0.015 A 
ATOM     56  C   UNL     1       7.610  -0.166  22.409  0.00  0.00    +0.050 A 
ATOM     57  C   UNL     1       8.926  -0.360  22.023  0.00  0.00    +0.158 A 
ATOM     58  C   UNL     1       9.613  -1.499  22.415  0.00  0.00    +0.159 A 
ATOM     59  C   UNL     1       8.986  -2.459  23.207  0.00  0.00    +0.060 A 
BRANCH  58  60
ATOM     60  O   UNL     1      10.913  -1.636  22.008  0.00  0.00    -0.503 OA
ATOM     61  H   UNL     1      10.926  -2.236  21.239  0.00  0.00    +0.292 HD
ENDBRANCH  58  60
BRANCH  57  62
ATOM     62  O   UNL     1       9.552   0.581  21.257  0.00  0.00    -0.503 OA
ATOM     63  H   UNL     1       9.841   0.091  20.460  0.00  0.00    +0.292 HD
ENDBRANCH  57  62
ENDBRANCH  53  54
BRANCH  52  64
ATOM     64  O   UNL     1       4.661  -6.145  28.041  0.00  0.00    -0.506 OA
ATOM     65  H   UNL     1       5.484  -6.460  28.447  0.00  0.00    +0.292 HD
ENDBRANCH  52  64
BRANCH  49  66
ATOM     66  O   UNL     1       3.386  -8.089  23.949  0.00  0.00    -0.507 OA
ATOM     67  H   UNL     1       2.501  -7.754  23.744  0.00  0.00    +0.292 HD
ENDBRANCH  49  66
ENDBRANCH  42  43
ENDBRANCH   4  42
TORSDOF 22
ENDMDL
MODEL 3
REMARK VINA RESULT:      -6.7      1.974      8.667
REMARK  Name = 
REMARK  23 active torsions:
REMARK  status: ('A' for Active; 'I' for Inactive)
REMARK    1  A    between atoms: C_1  and  C_2
REMARK    2  A    between atoms: C_3  and  O_35
REMARK    3  A    between atoms: C_5  and  O_34
REMARK    4  A    between atoms: C_6  and  O_33
REMARK    5  A    between atoms: C_8  and  O_11
REMARK    6  A    between atoms: O_11  and  C_12
REMARK    7  A    between atoms: C_13  and  C_25
REMARK    8  A    between atoms: C_17  and  O_24
REMARK    9  A    between atoms: C_19  and  O_23
REMARK   10  A    between atoms: C_27  and  O_32
REMARK   11  A    between atoms: C_28  and  O_31
REMARK   12  A    between atoms: O_35  and  C_36
REMARK   13  A    between atoms: C_38  and  O_62
REMARK   14  A    between atoms: C_39  and  O_61
REMARK   15  A    between atoms: C_40  and  O_60
REMARK   16  A    between atoms: C_42  and  C_44
REMARK   17  A    between atoms: C_44  and  O_45
REMARK   18  A    between atoms: O_45  and  C_46
REMARK   19  A    between atoms: C_48  and  O_59
REMARK   20  A    between atoms: C_49  and  O_58
REMARK   21  A    between atoms: C_51  and  O_57
REMARK   22  A    between atoms: C_53  and  C_55
REMARK   23  A    between atoms: C_55  and  O_56
REMARK                            x       y       z     vdW  Elec       q    Type
REMARK                         _______ _______ _______ _____ _____    ______ ____
ROOT
ATOM      1  C   UNL     1       7.955   1.072  21.456  0.00  0.00    +0.041 C 
ATOM      2  C   UNL     1       7.685  -0.221  22.243  0.00  0.00    +0.151 C 
ATOM      3  O   UNL     1       7.523   0.018  23.657  0.00  0.00    -0.334 OA
ATOM      4  C   UNL     1       8.759   0.396  24.287  0.00  0.00    +0.339 C 
ATOM      5  C   UNL     1       9.773  -0.775  24.218  0.00  0.00    +0.214 C 
ATOM      6  C   UNL     1      10.050  -1.052  22.744  0.00  0.00    +0.180 C 
ATOM      7  C   UNL     1       8.753  -1.306  21.953  0.00  0.00    +0.181 C 
ENDROOT
BRANCH   6   8
ATOM      8  O   UNL     1      10.926  -2.184  22.611  0.00  0.00    -0.386 OA
ATOM      9  H   UNL     1      10.317  -2.947  22.584  0.00  0.00    +0.210 HD
ENDBRANCH   6   8
BRANCH   5  10
ATOM     10  O   UNL     1       9.292  -1.949  24.897  0.00  0.00    -0.383 OA
ATOM     11  H   UNL     1       8.743  -2.423  24.248  0.00  0.00    +0.210 HD
ENDBRANCH   5  10
BRANCH   7  12
ATOM     12  O   UNL     1       8.330  -2.655  22.266  0.00  0.00    -0.340 OA
BRANCH  12  13
ATOM     13  C   UNL     1       7.034  -2.801  22.866  0.00  0.00    +0.282 C 
ATOM     14  O   UNL     1       7.155  -3.414  24.162  0.00  0.00    -0.341 OA
ATOM     15  C   UNL     1       7.766  -4.721  24.141  0.00  0.00    +0.178 C 
ATOM     16  C   UNL     1       7.050  -5.682  23.162  0.00  0.00    +0.177 C 
ATOM     17  C   UNL     1       6.734  -5.023  21.814  0.00  0.00    +0.179 C 
ATOM     18  C   UNL     1       6.066  -3.659  22.029  0.00  0.00    +0.201 C 
BRANCH  18  19
ATOM     19  O   UNL     1       5.693  -3.062  20.779  0.00  0.00    -0.384 OA
ATOM     20  H   UNL     1       5.194  -2.246  20.980  0.00  0.00    +0.210 HD
ENDBRANCH  18  19
BRANCH  17  21
ATOM     21  O   UNL     1       5.873  -5.866  21.027  0.00  0.00    -0.386 OA
ATOM     22  H   UNL     1       5.749  -5.431  20.161  0.00  0.00    +0.210 HD
ENDBRANCH  17  21
BRANCH  16  23
ATOM     23  O   UNL     1       5.803  -6.126  23.725  0.00  0.00    -0.386 OA
ATOM     24  H   UNL     1       6.038  -6.727  24.456  0.00  0.00    +0.210 HD
ENDBRANCH  16  23
BRANCH  15  25
ATOM     25  C   UNL     1       7.760  -5.306  25.585  0.00  0.00    +0.197 C 
BRANCH  25  26
ATOM     26  O   UNL     1       6.417  -5.496  26.011  0.00  0.00    -0.346 OA
BRANCH  26  27
ATOM     27  C   UNL     1       5.851  -4.484  26.853  0.00  0.00    +0.282 C 
ATOM     28  O   UNL     1       5.969  -4.711  28.253  0.00  0.00    -0.341 OA
ATOM     29  C   UNL     1       5.082  -5.658  28.893  0.00  0.00    +0.178 C 
ATOM     30  C   UNL     1       3.695  -5.949  28.232  0.00  0.00    +0.177 C 
ATOM     31  C   UNL     1       3.702  -5.741  26.723  0.00  0.00    +0.179 C 
ATOM     32  C   UNL     1       4.372  -4.376  26.458  0.00  0.00    +0.201 C 
BRANCH  32  33
ATOM     33  O   UNL     1       4.194  -3.972  25.098  0.00  0.00    -0.384 OA
ATOM     34  H   UNL     1       3.496  -4.535  24.722  0.00  0.00    +0.210 HD
ENDBRANCH  32  33
BRANCH  31  35
ATOM     35  O   UNL     1       4.305  -6.884  26.108  0.00  0.00    -0.386 OA
ATOM     36  H   UNL     1       4.140  -7.670  26.677  0.00  0.00    +0.210 HD
ENDBRANCH  31  35
BRANCH  30  37
ATOM     37  O   UNL     1       2.658  -5.116  28.778  0.00  0.00    -0.386 OA
ATOM     38  H   UNL     1       2.785  -4.222  28.411  0.00  0.00    +0.210 HD
ENDBRANCH  30  37
BRANCH  29  39
ATOM     39  C   UNL     1       4.853  -5.164  30.347  0.00  0.00    +0.190 C 
BRANCH  39  40
ATOM     40  O   UNL     1       4.568  -3.768  30.446  0.00  0.00    -0.392 OA
ATOM     41  H   UNL     1       5.413  -3.298  30.510  0.00  0.00    +0.210 HD
ENDBRANCH  39  40
ENDBRANCH  29  39
ENDBRANCH  26  27
ENDBRANCH  25  26
ENDBRANCH  15  25
ENDBRANCH  12  13
ENDBRANCH   7  12
BRANCH   4  42
ATOM     42  O   UNL     1       8.584   0.835  25.639  0.00  0.00    -0.453 OA
BRANCH  42  43
ATOM     43  C   UNL     1       7.263   1.075  26.042  0.00  0.00    +0.214 A 
ATOM     44  C   UNL     1       6.449   0.034  26.751  0.00  0.00    +0.238 A 
ATOM     45  O   UNL     1       6.771  -1.146  26.804  0.00  0.00    -0.283 OA
ATOM     46  C   UNL     1       5.171   0.418  27.331  0.00  0.00    +0.109 A 
ATOM     47  C   UNL     1       4.655   1.656  26.975  0.00  0.00    +0.147 A 
ATOM     48  C   UNL     1       3.371   2.000  27.411  0.00  0.00    +0.092 A 
ATOM     49  C   UNL     1       2.635   1.102  28.190  0.00  0.00    +0.124 A 
ATOM     50  C   UNL     1       3.162  -0.129  28.559  0.00  0.00    +0.091 A 
ATOM     51  O   UNL     1       5.347   2.554  26.193  0.00  0.00    -0.451 OA
ATOM     52  C   UNL     1       4.447  -0.465  28.148  0.00  0.00    +0.135 A 
ATOM     53  C   UNL     1       6.649   2.254  25.781  0.00  0.00    +0.181 A 
BRANCH  53  54
ATOM     54  C   UNL     1       7.307   3.358  25.013  0.00  0.00    +0.025 A 
ATOM     55  C   UNL     1       8.318   4.136  25.610  0.00  0.00    +0.015 A 
ATOM     56  C   UNL     1       8.976   5.156  24.902  0.00  0.00    +0.050 A 
ATOM     57  C   UNL     1       8.630   5.396  23.582  0.00  0.00    +0.158 A 
ATOM     58  C   UNL     1       7.623   4.661  22.975  0.00  0.00    +0.159 A 
ATOM     59  C   UNL     1       6.952   3.668  23.686  0.00  0.00    +0.060 A 
BRANCH  58  60
ATOM     60  O   UNL     1       7.326   4.939  21.668  0.00  0.00    -0.503 OA
ATOM     61  H   UNL     1       6.807   4.193  21.311  0.00  0.00    +0.292 HD
ENDBRANCH  58  60
BRANCH  57  62
ATOM     62  O   UNL     1       9.290   6.358  22.875  0.00  0.00    -0.503 OA
ATOM     63  H   UNL     1      10.212   6.033  22.826  0.00  0.00    +0.292 HD
ENDBRANCH  57  62
ENDBRANCH  53  54
BRANCH  52  64
ATOM     64  O   UNL     1       4.971  -1.658  28.554  0.00  0.00    -0.506 OA
ATOM     65  H   UNL     1       5.121  -1.666  29.512  0.00  0.00    +0.292 HD
ENDBRANCH  52  64
BRANCH  49  66
ATOM     66  O   UNL     1       1.372   1.375  28.623  0.00  0.00    -0.507 OA
ATOM     67  H   UNL     1       1.145   0.760  29.336  0.00  0.00    +0.292 HD
ENDBRANCH  49  66
ENDBRANCH  42  43
ENDBRANCH   4  42
TORSDOF 22
ENDMDL
MODEL 4
REMARK VINA RESULT:      -6.6      2.041      8.806
REMARK  Name = 
REMARK  23 active torsions:
REMARK  status: ('A' for Active; 'I' for Inactive)
REMARK    1  A    between atoms: C_1  and  C_2
REMARK    2  A    between atoms: C_3  and  O_35
REMARK    3  A    between atoms: C_5  and  O_34
REMARK    4  A    between atoms: C_6  and  O_33
REMARK    5  A    between atoms: C_8  and  O_11
REMARK    6  A    between atoms: O_11  and  C_12
REMARK    7  A    between atoms: C_13  and  C_25
REMARK    8  A    between atoms: C_17  and  O_24
REMARK    9  A    between atoms: C_19  and  O_23
REMARK   10  A    between atoms: C_27  and  O_32
REMARK   11  A    between atoms: C_28  and  O_31
REMARK   12  A    between atoms: O_35  and  C_36
REMARK   13  A    between atoms: C_38  and  O_62
REMARK   14  A    between atoms: C_39  and  O_61
REMARK   15  A    between atoms: C_40  and  O_60
REMARK   16  A    between atoms: C_42  and  C_44
REMARK   17  A    between atoms: C_44  and  O_45
REMARK   18  A    between atoms: O_45  and  C_46
REMARK   19  A    between atoms: C_48  and  O_59
REMARK   20  A    between atoms: C_49  and  O_58
REMARK   21  A    between atoms: C_51  and  O_57
REMARK   22  A    between atoms: C_53  and  C_55
REMARK   23  A    between atoms: C_55  and  O_56
REMARK                            x       y       z     vdW  Elec       q    Type
REMARK                         _______ _______ _______ _____ _____    ______ ____
ROOT
ATOM      1  C   UNL     1       7.325   1.441  28.326  0.00  0.00    +0.041 C 
ATOM      2  C   UNL     1       6.148   0.794  27.576  0.00  0.00    +0.151 C 
ATOM      3  O   UNL     1       6.382   0.707  26.154  0.00  0.00    -0.334 OA
ATOM      4  C   UNL     1       6.352   1.999  25.522  0.00  0.00    +0.339 C 
ATOM      5  C   UNL     1       4.934   2.615  25.633  0.00  0.00    +0.214 C 
ATOM      6  C   UNL     1       4.632   2.799  27.117  0.00  0.00    +0.180 C 
ATOM      7  C   UNL     1       4.803   1.487  27.906  0.00  0.00    +0.181 C 
ENDROOT
BRANCH   6   8
ATOM      8  O   UNL     1       3.294   3.296  27.289  0.00  0.00    -0.386 OA
ATOM      9  H   UNL     1       2.841   3.034  26.464  0.00  0.00    +0.210 HD
ENDBRANCH   6   8
BRANCH   5  10
ATOM     10  O   UNL     1       3.938   1.803  24.986  0.00  0.00    -0.383 OA
ATOM     11  H   UNL     1       3.472   2.396  24.371  0.00  0.00    +0.210 HD
ENDBRANCH   5  10
BRANCH   7  12
ATOM     12  O   UNL     1       3.634   0.679  27.629  0.00  0.00    -0.340 OA
BRANCH  12  13
ATOM     13  C   UNL     1       3.167  -0.163  28.693  0.00  0.00    +0.282 C 
ATOM     14  O   UNL     1       4.046  -1.290  28.856  0.00  0.00    -0.341 OA
ATOM     15  C   UNL     1       4.170  -2.117  27.680  0.00  0.00    +0.178 C 
ATOM     16  C   UNL     1       2.793  -2.589  27.154  0.00  0.00    +0.177 C 
ATOM     17  C   UNL     1       1.755  -1.460  27.124  0.00  0.00    +0.179 C 
ATOM     18  C   UNL     1       1.744  -0.708  28.462  0.00  0.00    +0.201 C 
BRANCH  18  19
ATOM     19  O   UNL     1       0.725   0.301  28.480  0.00  0.00    -0.384 OA
ATOM     20  H   UNL     1       1.160   1.154  28.673  0.00  0.00    +0.210 HD
ENDBRANCH  18  19
BRANCH  17  21
ATOM     21  O   UNL     1       0.443  -1.986  26.853  0.00  0.00    -0.386 OA
ATOM     22  H   UNL     1      -0.204  -1.288  27.076  0.00  0.00    +0.210 HD
ENDBRANCH  17  21
BRANCH  16  23
ATOM     23  O   UNL     1       2.271  -3.630  27.996  0.00  0.00    -0.386 OA
ATOM     24  H   UNL     1       2.133  -4.400  27.415  0.00  0.00    +0.210 HD
ENDBRANCH  16  23
BRANCH  15  25
ATOM     25  C   UNL     1       5.076  -3.338  28.013  0.00  0.00    +0.197 C 
BRANCH  25  26
ATOM     26  O   UNL     1       4.644  -4.466  27.262  0.00  0.00    -0.346 OA
BRANCH  26  27
ATOM     27  C   UNL     1       5.607  -5.081  26.398  0.00  0.00    +0.282 C 
ATOM     28  O   UNL     1       5.617  -4.612  25.054  0.00  0.00    -0.341 OA
ATOM     29  C   UNL     1       4.591  -5.065  24.140  0.00  0.00    +0.178 C 
ATOM     30  C   UNL     1       3.895  -6.437  24.417  0.00  0.00    +0.177 C 
ATOM     31  C   UNL     1       3.881  -6.807  25.894  0.00  0.00    +0.179 C 
ATOM     32  C   UNL     1       5.311  -6.587  26.429  0.00  0.00    +0.201 C 
BRANCH  32  33
ATOM     33  O   UNL     1       5.464  -7.149  27.735  0.00  0.00    -0.384 OA
ATOM     34  H   UNL     1       5.042  -8.025  27.719  0.00  0.00    +0.210 HD
ENDBRANCH  32  33
BRANCH  31  35
ATOM     35  O   UNL     1       2.832  -6.075  26.537  0.00  0.00    -0.386 OA
ATOM     36  H   UNL     1       2.297  -5.622  25.848  0.00  0.00    +0.210 HD
ENDBRANCH  31  35
BRANCH  30  37
ATOM     37  O   UNL     1       4.534  -7.513  23.708  0.00  0.00    -0.386 OA
ATOM     38  H   UNL     1       5.273  -7.125  23.204  0.00  0.00    +0.210 HD
ENDBRANCH  30  37
BRANCH  29  39
ATOM     39  C   UNL     1       5.221  -5.097  22.721  0.00  0.00    +0.190 C 
BRANCH  39  40
ATOM     40  O   UNL     1       6.545  -5.633  22.688  0.00  0.00    -0.392 OA
ATOM     41  H   UNL     1       7.153  -4.906  22.479  0.00  0.00    +0.210 HD
ENDBRANCH  39  40
ENDBRANCH  29  39
ENDBRANCH  26  27
ENDBRANCH  25  26
ENDBRANCH  15  25
ENDBRANCH  12  13
ENDBRANCH   7  12
BRANCH   4  42
ATOM     42  O   UNL     1       6.783   1.961  24.157  0.00  0.00    -0.453 OA
BRANCH  42  43
ATOM     43  C   UNL     1       8.085   2.416  23.908  0.00  0.00    +0.214 A 
ATOM     44  C   UNL     1       8.397   3.874  23.745  0.00  0.00    +0.238 A 
ATOM     45  O   UNL     1       7.536   4.727  23.568  0.00  0.00    -0.283 OA
ATOM     46  C   UNL     1       9.790   4.293  23.706  0.00  0.00    +0.109 A 
ATOM     47  C   UNL     1      10.750   3.303  23.561  0.00  0.00    +0.147 A 
ATOM     48  C   UNL     1      12.086   3.681  23.390  0.00  0.00    +0.092 A 
ATOM     49  C   UNL     1      12.431   5.036  23.368  0.00  0.00    +0.124 A 
ATOM     50  C   UNL     1      11.468   6.024  23.531  0.00  0.00    +0.091 A 
ATOM     51  O   UNL     1      10.441   1.960  23.559  0.00  0.00    -0.451 OA
ATOM     52  C   UNL     1      10.142   5.652  23.725  0.00  0.00    +0.135 A 
ATOM     53  C   UNL     1       9.119   1.554  23.773  0.00  0.00    +0.181 A 
BRANCH  53  54
ATOM     54  C   UNL     1       8.950   0.068  23.832  0.00  0.00    +0.025 A 
ATOM     55  C   UNL     1       9.346  -0.649  24.977  0.00  0.00    +0.015 A 
ATOM     56  C   UNL     1       9.167  -2.040  25.074  0.00  0.00    +0.050 A 
ATOM     57  C   UNL     1       8.576  -2.721  24.022  0.00  0.00    +0.158 A 
ATOM     58  C   UNL     1       8.196  -2.045  22.872  0.00  0.00    +0.159 A 
ATOM     59  C   UNL     1       8.399  -0.670  22.766  0.00  0.00    +0.060 A 
BRANCH  58  60
ATOM     60  O   UNL     1       7.614  -2.768  21.866  0.00  0.00    -0.503 OA
ATOM     61  H   UNL     1       8.222  -3.491  21.624  0.00  0.00    +0.292 HD
ENDBRANCH  58  60
BRANCH  57  62
ATOM     62  O   UNL     1       8.363  -4.065  24.122  0.00  0.00    -0.503 OA
ATOM     63  H   UNL     1       8.900  -4.338  24.894  0.00  0.00    +0.292 HD
ENDBRANCH  57  62
ENDBRANCH  53  54
BRANCH  52  64
ATOM     64  O   UNL     1       9.213   6.631  23.929  0.00  0.00    -0.506 OA
ATOM     65  H   UNL     1       9.512   7.263  24.601  0.00  0.00    +0.292 HD
ENDBRANCH  52  64
BRANCH  49  66
ATOM     66  O   UNL     1      13.711   5.461  23.182  0.00  0.00    -0.507 OA
ATOM     67  H   UNL     1      13.733   6.073  22.431  0.00  0.00    +0.292 HD
ENDBRANCH  49  66
ENDBRANCH  42  43
ENDBRANCH   4  42
TORSDOF 22
ENDMDL
MODEL 5
REMARK VINA RESULT:      -6.4      2.232      9.609
REMARK  Name = 
REMARK  23 active torsions:
REMARK  status: ('A' for Active; 'I' for Inactive)
REMARK    1  A    between atoms: C_1  and  C_2
REMARK    2  A    between atoms: C_3  and  O_35
REMARK    3  A    between atoms: C_5  and  O_34
REMARK    4  A    between atoms: C_6  and  O_33
REMARK    5  A    between atoms: C_8  and  O_11
REMARK    6  A    between atoms: O_11  and  C_12
REMARK    7  A    between atoms: C_13  and  C_25
REMARK    8  A    between atoms: C_17  and  O_24
REMARK    9  A    between atoms: C_19  and  O_23
REMARK   10  A    between atoms: C_27  and  O_32
REMARK   11  A    between atoms: C_28  and  O_31
REMARK   12  A    between atoms: O_35  and  C_36
REMARK   13  A    between atoms: C_38  and  O_62
REMARK   14  A    between atoms: C_39  and  O_61
REMARK   15  A    between atoms: C_40  and  O_60
REMARK   16  A    between atoms: C_42  and  C_44
REMARK   17  A    between atoms: C_44  and  O_45
REMARK   18  A    between atoms: O_45  and  C_46
REMARK   19  A    between atoms: C_48  and  O_59
REMARK   20  A    between atoms: C_49  and  O_58
REMARK   21  A    between atoms: C_51  and  O_57
REMARK   22  A    between atoms: C_53  and  C_55
REMARK   23  A    between atoms: C_55  and  O_56
REMARK                            x       y       z     vdW  Elec       q    Type
REMARK                         _______ _______ _______ _____ _____    ______ ____
ROOT
ATOM      1  C   UNL     1      10.132   1.882  23.243  0.00  0.00    +0.041 C 
ATOM      2  C   UNL     1       8.799   1.120  23.340  0.00  0.00    +0.151 C 
ATOM      3  O   UNL     1       7.744   1.924  23.910  0.00  0.00    -0.334 OA
ATOM      4  C   UNL     1       7.951   2.172  25.311  0.00  0.00    +0.339 C 
ATOM      5  C   UNL     1       7.879   0.842  26.105  0.00  0.00    +0.214 C 
ATOM      6  C   UNL     1       9.011  -0.049  25.603  0.00  0.00    +0.180 C 
ATOM      7  C   UNL     1       8.963  -0.235  24.074  0.00  0.00    +0.181 C 
ENDROOT
BRANCH   6   8
ATOM      8  O   UNL     1       8.950  -1.334  26.247  0.00  0.00    -0.386 OA
ATOM      9  H   UNL     1       8.007  -1.427  26.488  0.00  0.00    +0.210 HD
ENDBRANCH   6   8
BRANCH   5  10
ATOM     10  O   UNL     1       6.599   0.199  25.971  0.00  0.00    -0.383 OA
ATOM     11  H   UNL     1       6.659  -0.621  26.491  0.00  0.00    +0.210 HD
ENDBRANCH   5  10
BRANCH   7  12
ATOM     12  O   UNL     1       7.908  -1.189  23.802  0.00  0.00    -0.340 OA
BRANCH  12  13
ATOM     13  C   UNL     1       8.195  -2.207  22.833  0.00  0.00    +0.282 C 
ATOM     14  O   UNL     1       6.971  -2.727  22.284  0.00  0.00    -0.341 OA
ATOM     15  C   UNL     1       6.085  -3.307  23.263  0.00  0.00    +0.178 C 
ATOM     16  C   UNL     1       6.788  -4.392  24.114  0.00  0.00    +0.177 C 
ATOM     17  C   UNL     1       8.183  -3.959  24.584  0.00  0.00    +0.179 C 
ATOM     18  C   UNL     1       8.992  -3.394  23.409  0.00  0.00    +0.201 C 
BRANCH  18  19
ATOM     19  O   UNL     1      10.326  -3.056  23.814  0.00  0.00    -0.384 OA
ATOM     20  H   UNL     1      10.275  -2.691  24.719  0.00  0.00    +0.210 HD
ENDBRANCH  18  19
BRANCH  17  21
ATOM     21  O   UNL     1       8.888  -5.070  25.168  0.00  0.00    -0.386 OA
ATOM     22  H   UNL     1       9.843  -4.871  25.115  0.00  0.00    +0.210 HD
ENDBRANCH  17  21
BRANCH  16  23
ATOM     23  O   UNL     1       6.949  -5.597  23.347  0.00  0.00    -0.386 OA
ATOM     24  H   UNL     1       6.058  -5.834  23.032  0.00  0.00    +0.210 HD
ENDBRANCH  16  23
BRANCH  15  25
ATOM     25  C   UNL     1       4.845  -3.903  22.534  0.00  0.00    +0.197 C 
BRANCH  25  26
ATOM     26  O   UNL     1       4.385  -5.048  23.242  0.00  0.00    -0.346 OA
BRANCH  26  27
ATOM     27  C   UNL     1       3.243  -4.875  24.089  0.00  0.00    +0.282 C 
ATOM     28  O   UNL     1       3.526  -4.523  25.440  0.00  0.00    -0.341 OA
ATOM     29  C   UNL     1       3.979  -5.546  26.356  0.00  0.00    +0.178 C 
ATOM     30  C   UNL     1       3.596  -7.034  26.066  0.00  0.00    +0.177 C 
ATOM     31  C   UNL     1       3.385  -7.314  24.584  0.00  0.00    +0.179 C 
ATOM     32  C   UNL     1       2.468  -6.198  24.040  0.00  0.00    +0.201 C 
BRANCH  32  33
ATOM     33  O   UNL     1       2.001  -6.512  22.725  0.00  0.00    -0.384 OA
ATOM     34  H   UNL     1       1.110  -6.889  22.822  0.00  0.00    +0.210 HD
ENDBRANCH  32  33
BRANCH  31  35
ATOM     35  O   UNL     1       4.665  -7.457  23.960  0.00  0.00    -0.386 OA
ATOM     36  H   UNL     1       5.310  -6.885  24.433  0.00  0.00    +0.210 HD
ENDBRANCH  31  35
BRANCH  30  37
ATOM     37  O   UNL     1       2.394  -7.420  26.754  0.00  0.00    -0.386 OA
ATOM     38  H   UNL     1       2.422  -8.389  26.859  0.00  0.00    +0.210 HD
ENDBRANCH  30  37
BRANCH  29  39
ATOM     39  C   UNL     1       3.464  -5.160  27.769  0.00  0.00    +0.190 C 
BRANCH  39  40
ATOM     40  O   UNL     1       2.086  -4.784  27.799  0.00  0.00    -0.392 OA
ATOM     41  H   UNL     1       1.579  -5.543  28.126  0.00  0.00    +0.210 HD
ENDBRANCH  39  40
ENDBRANCH  29  39
ENDBRANCH  26  27
ENDBRANCH  25  26
ENDBRANCH  15  25
ENDBRANCH  12  13
ENDBRANCH   7  12
BRANCH   4  42
ATOM     42  O   UNL     1       7.034   3.132  25.848  0.00  0.00    -0.453 OA
BRANCH  42  43
ATOM     43  C   UNL     1       6.223   3.796  24.917  0.00  0.00    +0.214 A 
ATOM     44  C   UNL     1       4.874   3.272  24.524  0.00  0.00    +0.238 A 
ATOM     45  O   UNL     1       4.497   2.135  24.780  0.00  0.00    -0.283 OA
ATOM     46  C   UNL     1       3.999   4.116  23.724  0.00  0.00    +0.109 A 
ATOM     47  C   UNL     1       4.556   5.251  23.153  0.00  0.00    +0.147 A 
ATOM     48  C   UNL     1       3.777   6.012  22.274  0.00  0.00    +0.092 A 
ATOM     49  C   UNL     1       2.464   5.624  21.989  0.00  0.00    +0.124 A 
ATOM     50  C   UNL     1       1.905   4.497  22.578  0.00  0.00    +0.091 A 
ATOM     51  O   UNL     1       5.851   5.649  23.398  0.00  0.00    -0.451 OA
ATOM     52  C   UNL     1       2.668   3.750  23.469  0.00  0.00    +0.135 A 
ATOM     53  C   UNL     1       6.636   4.931  24.306  0.00  0.00    +0.181 A 
BRANCH  53  54
ATOM     54  C   UNL     1       7.988   5.531  24.537  0.00  0.00    +0.025 A 
ATOM     55  C   UNL     1       8.239   6.296  25.692  0.00  0.00    +0.015 A 
ATOM     56  C   UNL     1       9.508   6.842  25.952  0.00  0.00    +0.050 A 
ATOM     57  C   UNL     1      10.540   6.614  25.056  0.00  0.00    +0.158 A 
ATOM     58  C   UNL     1      10.316   5.883  23.899  0.00  0.00    +0.159 A 
ATOM     59  C   UNL     1       9.051   5.365  23.629  0.00  0.00    +0.060 A 
BRANCH  58  60
ATOM     60  O   UNL     1      11.373   5.686  23.051  0.00  0.00    -0.503 OA
ATOM     61  H   UNL     1      11.869   6.524  22.987  0.00  0.00    +0.292 HD
ENDBRANCH  58  60
BRANCH  57  62
ATOM     62  O   UNL     1      11.785   7.107  25.319  0.00  0.00    -0.503 OA
ATOM     63  H   UNL     1      11.859   7.896  24.743  0.00  0.00    +0.292 HD
ENDBRANCH  57  62
ENDBRANCH  53  54
BRANCH  52  64
ATOM     64  O   UNL     1       2.092   2.671  24.076  0.00  0.00    -0.506 OA
ATOM     65  H   UNL     1       2.733   1.953  24.196  0.00  0.00    +0.292 HD
ENDBRANCH  52  64
BRANCH  49  66
ATOM     66  O   UNL     1       1.670   6.314  21.125  0.00  0.00    -0.507 OA
ATOM     67  H   UNL     1       0.772   6.354  21.488  0.00  0.00    +0.292 HD
ENDBRANCH  49  66
ENDBRANCH  42  43
ENDBRANCH   4  42
TORSDOF 22
ENDMDL
MODEL 6
REMARK VINA RESULT:      -6.2      1.862      2.699
REMARK  Name = 
REMARK  23 active torsions:
REMARK  status: ('A' for Active; 'I' for Inactive)
REMARK    1  A    between atoms: C_1  and  C_2
REMARK    2  A    between atoms: C_3  and  O_35
REMARK    3  A    between atoms: C_5  and  O_34
REMARK    4  A    between atoms: C_6  and  O_33
REMARK    5  A    between atoms: C_8  and  O_11
REMARK    6  A    between atoms: O_11  and  C_12
REMARK    7  A    between atoms: C_13  and  C_25
REMARK    8  A    between atoms: C_17  and  O_24
REMARK    9  A    between atoms: C_19  and  O_23
REMARK   10  A    between atoms: C_27  and  O_32
REMARK   11  A    between atoms: C_28  and  O_31
REMARK   12  A    between atoms: O_35  and  C_36
REMARK   13  A    between atoms: C_38  and  O_62
REMARK   14  A    between atoms: C_39  and  O_61
REMARK   15  A    between atoms: C_40  and  O_60
REMARK   16  A    between atoms: C_42  and  C_44
REMARK   17  A    between atoms: C_44  and  O_45
REMARK   18  A    between atoms: O_45  and  C_46
REMARK   19  A    between atoms: C_48  and  O_59
REMARK   20  A    between atoms: C_49  and  O_58
REMARK   21  A    between atoms: C_51  and  O_57
REMARK   22  A    between atoms: C_53  and  C_55
REMARK   23  A    between atoms: C_55  and  O_56
REMARK                            x       y       z     vdW  Elec       q    Type
REMARK                         _______ _______ _______ _____ _____    ______ ____
ROOT
ATOM      1  C   UNL     1       2.036  -0.996  27.715  0.00  0.00    +0.041 C 
ATOM      2  C   UNL     1       2.955  -0.092  26.876  0.00  0.00    +0.151 C 
ATOM      3  O   UNL     1       4.015  -0.830  26.231  0.00  0.00    -0.334 OA
ATOM      4  C   UNL     1       4.990  -1.309  27.174  0.00  0.00    +0.339 C 
ATOM      5  C   UNL     1       5.718  -0.114  27.843  0.00  0.00    +0.214 C 
ATOM      6  C   UNL     1       4.668   0.690  28.604  0.00  0.00    +0.180 C 
ATOM      7  C   UNL     1       3.493   1.106  27.699  0.00  0.00    +0.181 C 
ENDROOT
BRANCH   6   8
ATOM      8  O   UNL     1       5.269   1.860  29.184  0.00  0.00    -0.386 OA
ATOM      9  H   UNL     1       6.109   1.529  29.557  0.00  0.00    +0.210 HD
ENDBRANCH   6   8
BRANCH   5  10
ATOM     10  O   UNL     1       6.416   0.701  26.884  0.00  0.00    -0.383 OA
ATOM     11  H   UNL     1       7.048   1.232  27.399  0.00  0.00    +0.210 HD
ENDBRANCH   5  10
BRANCH   7  12
ATOM     12  O   UNL     1       3.958   2.217  26.896  0.00  0.00    -0.340 OA
BRANCH  12  13
ATOM     13  C   UNL     1       3.133   2.599  25.785  0.00  0.00    +0.282 C 
ATOM     14  O   UNL     1       3.874   2.489  24.557  0.00  0.00    -0.341 OA
ATOM     15  C   UNL     1       5.062   3.307  24.509  0.00  0.00    +0.178 C 
ATOM     16  C   UNL     1       4.756   4.794  24.814  0.00  0.00    +0.177 C 
ATOM     17  C   UNL     1       3.820   4.968  26.017  0.00  0.00    +0.179 C 
ATOM     18  C   UNL     1       2.603   4.042  25.885  0.00  0.00    +0.201 C 
BRANCH  18  19
ATOM     19  O   UNL     1       1.677   4.248  26.962  0.00  0.00    -0.384 OA
ATOM     20  H   UNL     1       1.965   5.044  27.449  0.00  0.00    +0.210 HD
ENDBRANCH  18  19
BRANCH  17  21
ATOM     21  O   UNL     1       3.379   6.334  26.122  0.00  0.00    -0.386 OA
ATOM     22  H   UNL     1       2.936   6.433  26.986  0.00  0.00    +0.210 HD
ENDBRANCH  17  21
BRANCH  16  23
ATOM     23  O   UNL     1       4.120   5.412  23.682  0.00  0.00    -0.386 OA
ATOM     24  H   UNL     1       4.023   4.710  23.013  0.00  0.00    +0.210 HD
ENDBRANCH  16  23
BRANCH  15  25
ATOM     25  C   UNL     1       5.721   3.162  23.106  0.00  0.00    +0.197 C 
BRANCH  25  26
ATOM     26  O   UNL     1       7.087   2.799  23.261  0.00  0.00    -0.346 OA
BRANCH  26  27
ATOM     27  C   UNL     1       7.406   1.405  23.168  0.00  0.00    +0.282 C 
ATOM     28  O   UNL     1       7.765   0.772  24.391  0.00  0.00    -0.341 OA
ATOM     29  C   UNL     1       9.091   0.981  24.931  0.00  0.00    +0.178 C 
ATOM     30  C   UNL     1      10.248   1.358  23.950  0.00  0.00    +0.177 C 
ATOM     31  C   UNL     1       9.757   2.092  22.709  0.00  0.00    +0.179 C 
ATOM     32  C   UNL     1       8.557   1.295  22.158  0.00  0.00    +0.201 C 
BRANCH  32  33
ATOM     33  O   UNL     1       8.189   1.754  20.855  0.00  0.00    -0.384 OA
ATOM     34  H   UNL     1       7.713   1.026  20.420  0.00  0.00    +0.210 HD
ENDBRANCH  32  33
BRANCH  31  35
ATOM     35  O   UNL     1       9.519   3.461  23.053  0.00  0.00    -0.386 OA
ATOM     36  H   UNL     1       9.857   3.619  23.963  0.00  0.00    +0.210 HD
ENDBRANCH  31  35
BRANCH  30  37
ATOM     37  O   UNL     1      10.973   0.198  23.508  0.00  0.00    -0.386 OA
ATOM     38  H   UNL     1      10.317  -0.505  23.344  0.00  0.00    +0.210 HD
ENDBRANCH  30  37
BRANCH  29  39
ATOM     39  C   UNL     1       9.483  -0.310  25.700  0.00  0.00    +0.190 C 
BRANCH  39  40
ATOM     40  O   UNL     1       9.116  -0.296  27.080  0.00  0.00    -0.392 OA
ATOM     41  H   UNL     1       9.896  -0.555  27.596  0.00  0.00    +0.210 HD
ENDBRANCH  39  40
ENDBRANCH  29  39
ENDBRANCH  26  27
ENDBRANCH  25  26
ENDBRANCH  15  25
ENDBRANCH  12  13
ENDBRANCH   7  12
BRANCH   4  42
ATOM     42  O   UNL     1       5.934  -2.212  26.587  0.00  0.00    -0.453 OA
BRANCH  42  43
ATOM     43  C   UNL     1       5.436  -3.469  26.218  0.00  0.00    +0.214 A 
ATOM     44  C   UNL     1       4.467  -4.222  27.080  0.00  0.00    +0.238 A 
ATOM     45  O   UNL     1       4.241  -3.928  28.247  0.00  0.00    -0.283 OA
ATOM     46  C   UNL     1       3.827  -5.413  26.541  0.00  0.00    +0.109 A 
ATOM     47  C   UNL     1       4.338  -5.933  25.360  0.00  0.00    +0.147 A 
ATOM     48  C   UNL     1       3.831  -7.147  24.886  0.00  0.00    +0.092 A 
ATOM     49  C   UNL     1       2.828  -7.811  25.598  0.00  0.00    +0.124 A 
ATOM     50  C   UNL     1       2.306  -7.278  26.769  0.00  0.00    +0.091 A 
ATOM     51  O   UNL     1       5.340  -5.313  24.646  0.00  0.00    -0.451 OA
ATOM     52  C   UNL     1       2.791  -6.060  27.233  0.00  0.00    +0.135 A 
ATOM     53  C   UNL     1       5.833  -4.077  25.075  0.00  0.00    +0.181 A 
BRANCH  53  54
ATOM     54  C   UNL     1       6.853  -3.484  24.153  0.00  0.00    +0.025 A 
ATOM     55  C   UNL     1       6.449  -2.794  22.995  0.00  0.00    +0.015 A 
ATOM     56  C   UNL     1       7.384  -2.197  22.130  0.00  0.00    +0.050 A 
ATOM     57  C   UNL     1       8.733  -2.281  22.430  0.00  0.00    +0.158 A 
ATOM     58  C   UNL     1       9.162  -2.974  23.553  0.00  0.00    +0.159 A 
ATOM     59  C   UNL     1       8.236  -3.588  24.395  0.00  0.00    +0.060 A 
BRANCH  58  60
ATOM     60  O   UNL     1      10.507  -3.021  23.802  0.00  0.00    -0.503 OA
ATOM     61  H   UNL     1      10.723  -3.917  24.122  0.00  0.00    +0.292 HD
ENDBRANCH  58  60
BRANCH  57  62
ATOM     62  O   UNL     1       9.645  -1.673  21.617  0.00  0.00    -0.503 OA
ATOM     63  H   UNL     1       9.109  -1.300  20.889  0.00  0.00    +0.292 HD
ENDBRANCH  57  62
ENDBRANCH  53  54
BRANCH  52  64
ATOM     64  O   UNL     1       2.239  -5.524  28.361  0.00  0.00    -0.506 OA
ATOM     65  H   UNL     1       2.912  -5.096  28.911  0.00  0.00    +0.292 HD
ENDBRANCH  52  64
BRANCH  49  66
ATOM     66  O   UNL     1       2.314  -9.006  25.194  0.00  0.00    -0.507 OA
ATOM     67  H   UNL     1       2.005  -9.494  25.972  0.00  0.00    +0.292 HD
ENDBRANCH  49  66
ENDBRANCH  42  43
ENDBRANCH   4  42
TORSDOF 22
ENDMDL
MODEL 7
REMARK VINA RESULT:      -6.2      1.431      4.601
REMARK  Name = 
REMARK  23 active torsions:
REMARK  status: ('A' for Active; 'I' for Inactive)
REMARK    1  A    between atoms: C_1  and  C_2
REMARK    2  A    between atoms: C_3  and  O_35
REMARK    3  A    between atoms: C_5  and  O_34
REMARK    4  A    between atoms: C_6  and  O_33
REMARK    5  A    between atoms: C_8  and  O_11
REMARK    6  A    between atoms: O_11  and  C_12
REMARK    7  A    between atoms: C_13  and  C_25
REMARK    8  A    between atoms: C_17  and  O_24
REMARK    9  A    between atoms: C_19  and  O_23
REMARK   10  A    between atoms: C_27  and  O_32
REMARK   11  A    between atoms: C_28  and  O_31
REMARK   12  A    between atoms: O_35  and  C_36
REMARK   13  A    between atoms: C_38  and  O_62
REMARK   14  A    between atoms: C_39  and  O_61
REMARK   15  A    between atoms: C_40  and  O_60
REMARK   16  A    between atoms: C_42  and  C_44
REMARK   17  A    between atoms: C_44  and  O_45
REMARK   18  A    between atoms: O_45  and  C_46
REMARK   19  A    between atoms: C_48  and  O_59
REMARK   20  A    between atoms: C_49  and  O_58
REMARK   21  A    between atoms: C_51  and  O_57
REMARK   22  A    between atoms: C_53  and  C_55
REMARK   23  A    between atoms: C_55  and  O_56
REMARK                            x       y       z     vdW  Elec       q    Type
REMARK                         _______ _______ _______ _____ _____    ______ ____
ROOT
ATOM      1  C   UNL     1       1.964  -2.170  26.715  0.00  0.00    +0.041 C 
ATOM      2  C   UNL     1       2.943  -0.990  26.607  0.00  0.00    +0.151 C 
ATOM      3  O   UNL     1       4.323  -1.416  26.608  0.00  0.00    -0.334 OA
ATOM      4  C   UNL     1       4.732  -1.916  27.892  0.00  0.00    +0.339 C 
ATOM      5  C   UNL     1       4.690  -0.779  28.946  0.00  0.00    +0.214 C 
ATOM      6  C   UNL     1       3.243  -0.310  29.052  0.00  0.00    +0.180 C 
ATOM      7  C   UNL     1       2.665   0.091  27.682  0.00  0.00    +0.181 C 
ENDROOT
BRANCH   6   8
ATOM      8  O   UNL     1       3.150   0.801  29.960  0.00  0.00    -0.386 OA
ATOM      9  H   UNL     1       2.436   1.350  29.582  0.00  0.00    +0.210 HD
ENDBRANCH   6   8
BRANCH   5  10
ATOM     10  O   UNL     1       5.575   0.305  28.609  0.00  0.00    -0.383 OA
ATOM     11  H   UNL     1       5.094   0.845  27.958  0.00  0.00    +0.210 HD
ENDBRANCH   5  10
BRANCH   7  12
ATOM     12  O   UNL     1       3.207   1.396  27.366  0.00  0.00    -0.340 OA
BRANCH  12  13
ATOM     13  C   UNL     1       2.458   2.198  26.442  0.00  0.00    +0.282 C 
ATOM     14  O   UNL     1       3.126   2.242  25.169  0.00  0.00    -0.341 OA
ATOM     15  C   UNL     1       4.462   2.786  25.222  0.00  0.00    +0.178 C 
ATOM     16  C   UNL     1       4.494   4.183  25.888  0.00  0.00    +0.177 C 
ATOM     17  C   UNL     1       3.649   4.246  27.166  0.00  0.00    +0.179 C 
ATOM     18  C   UNL     1       2.257   3.651  26.916  0.00  0.00    +0.201 C 
BRANCH  18  19
ATOM     19  O   UNL     1       1.426   3.773  28.079  0.00  0.00    -0.384 OA
ATOM     20  H   UNL     1       1.937   4.254  28.757  0.00  0.00    +0.210 HD
ENDBRANCH  18  19
BRANCH  17  21
ATOM     21  O   UNL     1       3.520   5.606  27.620  0.00  0.00    -0.386 OA
ATOM     22  H   UNL     1       4.283   5.795  28.200  0.00  0.00    +0.210 HD
ENDBRANCH  17  21
BRANCH  16  23
ATOM     23  O   UNL     1       3.981   5.175  24.983  0.00  0.00    -0.386 OA
ATOM     24  H   UNL     1       3.161   4.801  24.613  0.00  0.00    +0.210 HD
ENDBRANCH  16  23
BRANCH  15  25
ATOM     25  C   UNL     1       5.038   2.855  23.777  0.00  0.00    +0.197 C 
BRANCH  25  26
ATOM     26  O   UNL     1       5.972   3.924  23.692  0.00  0.00    -0.346 OA
BRANCH  26  27
ATOM     27  C   UNL     1       6.943   3.859  22.640  0.00  0.00    +0.282 C 
ATOM     28  O   UNL     1       8.099   3.075  22.916  0.00  0.00    -0.341 OA
ATOM     29  C   UNL     1       9.137   3.621  23.762  0.00  0.00    +0.178 C 
ATOM     30  C   UNL     1       9.281   5.175  23.861  0.00  0.00    +0.177 C 
ATOM     31  C   UNL     1       7.969   5.909  23.617  0.00  0.00    +0.179 C 
ATOM     32  C   UNL     1       7.347   5.308  22.339  0.00  0.00    +0.201 C 
BRANCH  32  33
ATOM     33  O   UNL     1       6.248   6.101  21.881  0.00  0.00    -0.384 OA
ATOM     34  H   UNL     1       5.483   5.875  22.436  0.00  0.00    +0.210 HD
ENDBRANCH  32  33
BRANCH  31  35
ATOM     35  O   UNL     1       7.181   5.844  24.810  0.00  0.00    -0.386 OA
ATOM     36  H   UNL     1       6.278   5.535  24.573  0.00  0.00    +0.210 HD
ENDBRANCH  31  35
BRANCH  30  37
ATOM     37  O   UNL     1      10.243   5.683  22.921  0.00  0.00    -0.386 OA
ATOM     38  H   UNL     1       9.836   6.455  22.485  0.00  0.00    +0.210 HD
ENDBRANCH  30  37
BRANCH  29  39
ATOM     39  C   UNL     1      10.485   3.020  23.282  0.00  0.00    +0.190 C 
BRANCH  39  40
ATOM     40  O   UNL     1      10.489   2.634  21.907  0.00  0.00    -0.392 OA
ATOM     41  H   UNL     1      10.023   1.787  21.836  0.00  0.00    +0.210 HD
ENDBRANCH  39  40
ENDBRANCH  29  39
ENDBRANCH  26  27
ENDBRANCH  25  26
ENDBRANCH  15  25
ENDBRANCH  12  13
ENDBRANCH   7  12
BRANCH   4  42
ATOM     42  O   UNL     1       6.025  -2.532  27.863  0.00  0.00    -0.453 OA
BRANCH  42  43
ATOM     43  C   UNL     1       6.704  -2.481  26.638  0.00  0.00    +0.214 A 
ATOM     44  C   UNL     1       7.607  -1.339  26.279  0.00  0.00    +0.238 A 
ATOM     45  O   UNL     1       7.623  -0.280  26.893  0.00  0.00    -0.283 OA
ATOM     46  C   UNL     1       8.444  -1.453  25.095  0.00  0.00    +0.109 A 
ATOM     47  C   UNL     1       8.175  -2.496  24.221  0.00  0.00    +0.147 A 
ATOM     48  C   UNL     1       8.875  -2.557  23.011  0.00  0.00    +0.092 A 
ATOM     49  C   UNL     1       9.825  -1.579  22.703  0.00  0.00    +0.124 A 
ATOM     50  C   UNL     1      10.104  -0.546  23.588  0.00  0.00    +0.091 A 
ATOM     51  O   UNL     1       7.232  -3.465  24.485  0.00  0.00    -0.451 OA
ATOM     52  C   UNL     1       9.428  -0.493  24.803  0.00  0.00    +0.135 A 
ATOM     53  C   UNL     1       6.551  -3.452  25.707  0.00  0.00    +0.181 A 
BRANCH  53  54
ATOM     54  C   UNL     1       5.624  -4.613  25.890  0.00  0.00    +0.025 A 
ATOM     55  C   UNL     1       4.535  -4.799  25.017  0.00  0.00    +0.015 A 
ATOM     56  C   UNL     1       3.669  -5.899  25.144  0.00  0.00    +0.050 A 
ATOM     57  C   UNL     1       3.899  -6.829  26.145  0.00  0.00    +0.158 A 
ATOM     58  C   UNL     1       4.950  -6.660  27.033  0.00  0.00    +0.159 A 
ATOM     59  C   UNL     1       5.791  -5.554  26.923  0.00  0.00    +0.060 A 
BRANCH  58  60
ATOM     60  O   UNL     1       5.131  -7.611  28.001  0.00  0.00    -0.503 OA
ATOM     61  H   UNL     1       5.347  -8.454  27.559  0.00  0.00    +0.292 HD
ENDBRANCH  58  60
BRANCH  57  62
ATOM     62  O   UNL     1       3.086  -7.920  26.253  0.00  0.00    -0.503 OA
ATOM     63  H   UNL     1       3.154  -8.359  25.380  0.00  0.00    +0.292 HD
ENDBRANCH  57  62
ENDBRANCH  53  54
BRANCH  52  64
ATOM     64  O   UNL     1       9.744   0.500  25.684  0.00  0.00    -0.506 OA
ATOM     65  H   UNL     1       9.615   1.375  25.286  0.00  0.00    +0.292 HD
ENDBRANCH  52  64
BRANCH  49  66
ATOM     66  O   UNL     1      10.518  -1.576  21.531  0.00  0.00    -0.507 OA
ATOM     67  H   UNL     1      11.110  -2.343  21.515  0.00  0.00    +0.292 HD
ENDBRANCH  49  66
ENDBRANCH  42  43
ENDBRANCH   4  42
TORSDOF 22
ENDMDL
MODEL 8
REMARK VINA RESULT:      -6.1      1.830      5.159
REMARK  Name = 
REMARK  23 active torsions:
REMARK  status: ('A' for Active; 'I' for Inactive)
REMARK    1  A    between atoms: C_1  and  C_2
REMARK    2  A    between atoms: C_3  and  O_35
REMARK    3  A    between atoms: C_5  and  O_34
REMARK    4  A    between atoms: C_6  and  O_33
REMARK    5  A    between atoms: C_8  and  O_11
REMARK    6  A    between atoms: O_11  and  C_12
REMARK    7  A    between atoms: C_13  and  C_25
REMARK    8  A    between atoms: C_17  and  O_24
REMARK    9  A    between atoms: C_19  and  O_23
REMARK   10  A    between atoms: C_27  and  O_32
REMARK   11  A    between atoms: C_28  and  O_31
REMARK   12  A    between atoms: O_35  and  C_36
REMARK   13  A    between atoms: C_38  and  O_62
REMARK   14  A    between atoms: C_39  and  O_61
REMARK   15  A    between atoms: C_40  and  O_60
REMARK   16  A    between atoms: C_42  and  C_44
REMARK   17  A    between atoms: C_44  and  O_45
REMARK   18  A    between atoms: O_45  and  C_46
REMARK   19  A    between atoms: C_48  and  O_59
REMARK   20  A    between atoms: C_49  and  O_58
REMARK   21  A    between atoms: C_51  and  O_57
REMARK   22  A    between atoms: C_53  and  C_55
REMARK   23  A    between atoms: C_55  and  O_56
REMARK                            x       y       z     vdW  Elec       q    Type
REMARK                         _______ _______ _______ _____ _____    ______ ____
ROOT
ATOM      1  C   UNL     1       1.741  -3.342  26.143  0.00  0.00    +0.041 C 
ATOM      2  C   UNL     1       2.560  -2.050  26.305  0.00  0.00    +0.151 C 
ATOM      3  O   UNL     1       3.981  -2.300  26.348  0.00  0.00    -0.334 OA
ATOM      4  C   UNL     1       4.377  -2.958  27.564  0.00  0.00    +0.339 C 
ATOM      5  C   UNL     1       4.123  -2.030  28.780  0.00  0.00    +0.214 C 
ATOM      6  C   UNL     1       2.622  -1.765  28.844  0.00  0.00    +0.180 C 
ATOM      7  C   UNL     1       2.078  -1.209  27.514  0.00  0.00    +0.181 C 
ENDROOT
BRANCH   6   8
ATOM      8  O   UNL     1       2.330  -0.842  29.908  0.00  0.00    -0.386 OA
ATOM      9  H   UNL     1       2.553  -1.344  30.716  0.00  0.00    +0.210 HD
ENDBRANCH   6   8
BRANCH   5  10
ATOM     10  O   UNL     1       4.875  -0.806  28.693  0.00  0.00    -0.383 OA
ATOM     11  H   UNL     1       4.947  -0.475  29.605  0.00  0.00    +0.210 HD
ENDBRANCH   5  10
BRANCH   7  12
ATOM     12  O   UNL     1       2.460   0.186  27.457  0.00  0.00    -0.340 OA
BRANCH  12  13
ATOM     13  C   UNL     1       1.441   1.117  27.066  0.00  0.00    +0.282 C 
ATOM     14  O   UNL     1       1.841   1.819  25.875  0.00  0.00    -0.341 OA
ATOM     15  C   UNL     1       3.069   2.563  26.014  0.00  0.00    +0.178 C 
ATOM     16  C   UNL     1       3.026   3.537  27.216  0.00  0.00    +0.177 C 
ATOM     17  C   UNL     1       2.439   2.891  28.477  0.00  0.00    +0.179 C 
ATOM     18  C   UNL     1       1.126   2.170  28.146  0.00  0.00    +0.201 C 
BRANCH  18  19
ATOM     19  O   UNL     1       0.522   1.626  29.329  0.00  0.00    -0.384 OA
ATOM     20  H   UNL     1       0.288   2.374  29.911  0.00  0.00    +0.210 HD
ENDBRANCH  18  19
BRANCH  17  21
ATOM     21  O   UNL     1       2.204   3.884  29.492  0.00  0.00    -0.386 OA
ATOM     22  H   UNL     1       2.881   4.580  29.384  0.00  0.00    +0.210 HD
ENDBRANCH  17  21
BRANCH  16  23
ATOM     23  O   UNL     1       2.212   4.679  26.900  0.00  0.00    -0.386 OA
ATOM     24  H   UNL     1       1.990   4.596  25.955  0.00  0.00    +0.210 HD
ENDBRANCH  16  23
BRANCH  15  25
ATOM     25  C   UNL     1       3.344   3.338  24.691  0.00  0.00    +0.197 C 
BRANCH  25  26
ATOM     26  O   UNL     1       4.598   2.930  24.157  0.00  0.00    -0.346 OA
BRANCH  26  27
ATOM     27  C   UNL     1       5.751   3.680  24.556  0.00  0.00    +0.282 C 
ATOM     28  O   UNL     1       6.063   4.809  23.746  0.00  0.00    -0.341 OA
ATOM     29  C   UNL     1       6.708   4.604  22.468  0.00  0.00    +0.178 C 
ATOM     30  C   UNL     1       7.564   3.312  22.260  0.00  0.00    +0.177 C 
ATOM     31  C   UNL     1       7.099   2.148  23.126  0.00  0.00    +0.179 C 
ATOM     32  C   UNL     1       6.925   2.692  24.559  0.00  0.00    +0.201 C 
BRANCH  32  33
ATOM     33  O   UNL     1       6.744   1.626  25.495  0.00  0.00    -0.384 OA
ATOM     34  H   UNL     1       7.577   1.535  25.988  0.00  0.00    +0.210 HD
ENDBRANCH  32  33
BRANCH  31  35
ATOM     35  O   UNL     1       5.947   1.558  22.516  0.00  0.00    -0.386 OA
ATOM     36  H   UNL     1       6.246   0.874  21.876  0.00  0.00    +0.210 HD
ENDBRANCH  31  35
BRANCH  30  37
ATOM     37  O   UNL     1       8.954   3.539  22.551  0.00  0.00    -0.386 OA
ATOM     38  H   UNL     1       9.098   4.503  22.528  0.00  0.00    +0.210 HD
ENDBRANCH  30  37
BRANCH  29  39
ATOM     39  C   UNL     1       7.600   5.847  22.199  0.00  0.00    +0.190 C 
BRANCH  39  40
ATOM     40  O   UNL     1       7.099   6.707  21.175  0.00  0.00    -0.392 OA
ATOM     41  H   UNL     1       7.698   6.642  20.415  0.00  0.00    +0.210 HD
ENDBRANCH  39  40
ENDBRANCH  29  39
ENDBRANCH  26  27
ENDBRANCH  25  26
ENDBRANCH  15  25
ENDBRANCH  12  13
ENDBRANCH   7  12
BRANCH   4  42
ATOM     42  O   UNL     1       5.740  -3.399  27.539  0.00  0.00    -0.453 OA
BRANCH  42  43
ATOM     43  C   UNL     1       6.450  -3.141  26.359  0.00  0.00    +0.214 A 
ATOM     44  C   UNL     1       7.309  -1.922  26.201  0.00  0.00    +0.238 A 
ATOM     45  O   UNL     1       7.259  -0.965  26.962  0.00  0.00    -0.283 OA
ATOM     46  C   UNL     1       8.183  -1.826  25.042  0.00  0.00    +0.109 A 
ATOM     47  C   UNL     1       7.987  -2.740  24.017  0.00  0.00    +0.147 A 
ATOM     48  C   UNL     1       8.722  -2.594  22.835  0.00  0.00    +0.092 A 
ATOM     49  C   UNL     1       9.634  -1.542  22.706  0.00  0.00    +0.124 A 
ATOM     50  C   UNL     1       9.841  -0.640  23.742  0.00  0.00    +0.091 A 
ATOM     51  O   UNL     1       7.082  -3.775  24.105  0.00  0.00    -0.451 OA
ATOM     52  C   UNL     1       9.130  -0.795  24.927  0.00  0.00    +0.135 A 
ATOM     53  C   UNL     1       6.367  -3.970  25.291  0.00  0.00    +0.181 A 
BRANCH  53  54
ATOM     54  C   UNL     1       5.489  -5.182  25.271  0.00  0.00    +0.025 A 
ATOM     55  C   UNL     1       5.423  -6.031  26.392  0.00  0.00    +0.015 A 
ATOM     56  C   UNL     1       4.581  -7.157  26.414  0.00  0.00    +0.050 A 
ATOM     57  C   UNL     1       3.790  -7.432  25.311  0.00  0.00    +0.158 A 
ATOM     58  C   UNL     1       3.850  -6.626  24.184  0.00  0.00    +0.159 A 
ATOM     59  C   UNL     1       4.705  -5.526  24.153  0.00  0.00    +0.060 A 
BRANCH  58  60
ATOM     60  O   UNL     1       3.044  -6.944  23.125  0.00  0.00    -0.503 OA
ATOM     61  H   UNL     1       2.454  -7.670  23.402  0.00  0.00    +0.292 HD
ENDBRANCH  58  60
BRANCH  57  62
ATOM     62  O   UNL     1       2.942  -8.501  25.338  0.00  0.00    -0.503 OA
ATOM     63  H   UNL     1       2.338  -8.349  24.582  0.00  0.00    +0.292 HD
ENDBRANCH  57  62
ENDBRANCH  53  54
BRANCH  52  64
ATOM     64  O   UNL     1       9.375   0.071  25.954  0.00  0.00    -0.506 OA
ATOM     65  H   UNL     1       9.436  -0.398  26.800  0.00  0.00    +0.292 HD
ENDBRANCH  52  64
BRANCH  49  66
ATOM     66  O   UNL     1      10.359  -1.339  21.572  0.00  0.00    -0.507 OA
ATOM     67  H   UNL     1       9.990  -0.581  21.094  0.00  0.00    +0.292 HD
ENDBRANCH  49  66
ENDBRANCH  42  43
ENDBRANCH   4  42
TORSDOF 22
ENDMDL
MODEL 9
REMARK VINA RESULT:      -5.9      2.085      2.845
REMARK  Name = 
REMARK  23 active torsions:
REMARK  status: ('A' for Active; 'I' for Inactive)
REMARK    1  A    between atoms: C_1  and  C_2
REMARK    2  A    between atoms: C_3  and  O_35
REMARK    3  A    between atoms: C_5  and  O_34
REMARK    4  A    between atoms: C_6  and  O_33
REMARK    5  A    between atoms: C_8  and  O_11
REMARK    6  A    between atoms: O_11  and  C_12
REMARK    7  A    between atoms: C_13  and  C_25
REMARK    8  A    between atoms: C_17  and  O_24
REMARK    9  A    between atoms: C_19  and  O_23
REMARK   10  A    between atoms: C_27  and  O_32
REMARK   11  A    between atoms: C_28  and  O_31
REMARK   12  A    between atoms: O_35  and  C_36
REMARK   13  A    between atoms: C_38  and  O_62
REMARK   14  A    between atoms: C_39  and  O_61
REMARK   15  A    between atoms: C_40  and  O_60
REMARK   16  A    between atoms: C_42  and  C_44
REMARK   17  A    between atoms: C_44  and  O_45
REMARK   18  A    between atoms: O_45  and  C_46
REMARK   19  A    between atoms: C_48  and  O_59
REMARK   20  A    between atoms: C_49  and  O_58
REMARK   21  A    between atoms: C_51  and  O_57
REMARK   22  A    between atoms: C_53  and  C_55
REMARK   23  A    between atoms: C_55  and  O_56
REMARK                            x       y       z     vdW  Elec       q    Type
REMARK                         _______ _______ _______ _____ _____    ______ ____
ROOT
ATOM      1  C   UNL     1       3.632  -0.481  28.733  0.00  0.00    +0.041 C 
ATOM      2  C   UNL     1       4.259   0.634  27.880  0.00  0.00    +0.151 C 
ATOM      3  O   UNL     1       4.295   0.299  26.476  0.00  0.00    -0.334 OA
ATOM      4  C   UNL     1       5.242  -0.745  26.193  0.00  0.00    +0.339 C 
ATOM      5  C   UNL     1       6.682  -0.257  26.499  0.00  0.00    +0.214 C 
ATOM      6  C   UNL     1       6.748   0.061  27.989  0.00  0.00    +0.180 C 
ATOM      7  C   UNL     1       5.651   1.056  28.415  0.00  0.00    +0.181 C 
ENDROOT
BRANCH   6   8
ATOM      8  O   UNL     1       8.040   0.596  28.322  0.00  0.00    -0.386 OA
ATOM      9  H   UNL     1       8.638  -0.171  28.235  0.00  0.00    +0.210 HD
ENDBRANCH   6   8
BRANCH   5  10
ATOM     10  O   UNL     1       7.050   0.880  25.697  0.00  0.00    -0.383 OA
ATOM     11  H   UNL     1       6.354   0.963  25.022  0.00  0.00    +0.210 HD
ENDBRANCH   5  10
BRANCH   7  12
ATOM     12  O   UNL     1       6.083   2.366  27.978  0.00  0.00    -0.340 OA
BRANCH  12  13
ATOM     13  C   UNL     1       5.101   3.412  28.009  0.00  0.00    +0.282 C 
ATOM     14  O   UNL     1       5.199   4.219  26.822  0.00  0.00    -0.341 OA
ATOM     15  C   UNL     1       6.486   4.846  26.639  0.00  0.00    +0.178 C 
ATOM     16  C   UNL     1       6.912   5.670  27.878  0.00  0.00    +0.177 C 
ATOM     17  C   UNL     1       6.665   4.923  29.195  0.00  0.00    +0.179 C 
ATOM     18  C   UNL     1       5.242   4.348  29.225  0.00  0.00    +0.201 C 
BRANCH  18  19
ATOM     19  O   UNL     1       4.967   3.714  30.481  0.00  0.00    -0.384 OA
ATOM     20  H   UNL     1       4.363   2.966  30.307  0.00  0.00    +0.210 HD
ENDBRANCH  18  19
BRANCH  17  21
ATOM     21  O   UNL     1       6.855   5.802  30.319  0.00  0.00    -0.386 OA
ATOM     22  H   UNL     1       5.997   6.233  30.502  0.00  0.00    +0.210 HD
ENDBRANCH  17  21
BRANCH  16  23
ATOM     23  O   UNL     1       6.170   6.900  27.936  0.00  0.00    -0.386 OA
ATOM     24  H   UNL     1       6.540   7.401  28.685  0.00  0.00    +0.210 HD
ENDBRANCH  16  23
BRANCH  15  25
ATOM     25  C   UNL     1       6.433   5.751  25.373  0.00  0.00    +0.197 C 
BRANCH  25  26
ATOM     26  O   UNL     1       7.015   5.061  24.274  0.00  0.00    -0.346 OA
BRANCH  26  27
ATOM     27  C   UNL     1       7.019   3.629  24.332  0.00  0.00    +0.282 C 
ATOM     28  O   UNL     1       8.283   3.026  24.585  0.00  0.00    -0.341 OA
ATOM     29  C   UNL     1       9.247   2.928  23.511  0.00  0.00    +0.178 C 
ATOM     30  C   UNL     1       8.725   2.912  22.037  0.00  0.00    +0.177 C 
ATOM     31  C   UNL     1       7.400   3.646  21.869  0.00  0.00    +0.179 C 
ATOM     32  C   UNL     1       6.462   3.144  22.987  0.00  0.00    +0.201 C 
BRANCH  32  33
ATOM     33  O   UNL     1       5.117   3.575  22.762  0.00  0.00    -0.384 OA
ATOM     34  H   UNL     1       4.968   4.352  23.328  0.00  0.00    +0.210 HD
ENDBRANCH  32  33
BRANCH  31  35
ATOM     35  O   UNL     1       7.659   5.053  21.829  0.00  0.00    -0.386 OA
ATOM     36  H   UNL     1       8.613   5.190  21.635  0.00  0.00    +0.210 HD
ENDBRANCH  31  35
BRANCH  30  37
ATOM     37  O   UNL     1       8.542   1.572  21.549  0.00  0.00    -0.386 OA
ATOM     38  H   UNL     1       9.430   1.205  21.382  0.00  0.00    +0.210 HD
ENDBRANCH  30  37
BRANCH  29  39
ATOM     39  C   UNL     1      10.086   1.646  23.761  0.00  0.00    +0.190 C 
BRANCH  39  40
ATOM     40  O   UNL     1       9.921   1.093  25.068  0.00  0.00    -0.392 OA
ATOM     41  H   UNL     1       9.262   1.629  25.535  0.00  0.00    +0.210 HD
ENDBRANCH  39  40
ENDBRANCH  29  39
ENDBRANCH  26  27
ENDBRANCH  25  26
ENDBRANCH  15  25
ENDBRANCH  12  13
ENDBRANCH   7  12
BRANCH   4  42
ATOM     42  O   UNL     1       5.148  -1.234  24.850  0.00  0.00    -0.453 OA
BRANCH  42  43
ATOM     43  C   UNL     1       4.904  -2.607  24.710  0.00  0.00    +0.214 A 
ATOM     44  C   UNL     1       3.608  -3.229  25.135  0.00  0.00    +0.238 A 
ATOM     45  O   UNL     1       2.791  -2.657  25.845  0.00  0.00    -0.283 OA
ATOM     46  C   UNL     1       3.339  -4.611  24.765  0.00  0.00    +0.109 A 
ATOM     47  C   UNL     1       4.398  -5.355  24.266  0.00  0.00    +0.147 A 
ATOM     48  C   UNL     1       4.205  -6.720  24.023  0.00  0.00    +0.092 A 
ATOM     49  C   UNL     1       2.963  -7.306  24.283  0.00  0.00    +0.124 A 
ATOM     50  C   UNL     1       1.900  -6.554  24.766  0.00  0.00    +0.091 A 
ATOM     51  O   UNL     1       5.639  -4.812  24.018  0.00  0.00    -0.451 OA
ATOM     52  C   UNL     1       2.080  -5.192  24.987  0.00  0.00    +0.135 A 
ATOM     53  C   UNL     1       5.845  -3.442  24.210  0.00  0.00    +0.181 A 
BRANCH  53  54
ATOM     54  C   UNL     1       7.214  -2.980  23.816  0.00  0.00    +0.025 A 
ATOM     55  C   UNL     1       8.327  -3.284  24.623  0.00  0.00    +0.015 A 
ATOM     56  C   UNL     1       9.628  -2.893  24.259  0.00  0.00    +0.050 A 
ATOM     57  C   UNL     1       9.820  -2.201  23.075  0.00  0.00    +0.158 A 
ATOM     58  C   UNL     1       8.740  -1.868  22.272  0.00  0.00    +0.159 A 
ATOM     59  C   UNL     1       7.448  -2.233  22.646  0.00  0.00    +0.060 A 
BRANCH  58  60
ATOM     60  O   UNL     1       8.990  -1.187  21.111  0.00  0.00    -0.503 OA
ATOM     61  H   UNL     1       8.139  -1.042  20.656  0.00  0.00    +0.292 HD
ENDBRANCH  58  60
BRANCH  57  62
ATOM     62  O   UNL     1      11.084  -1.850  22.695  0.00  0.00    -0.503 OA
ATOM     63  H   UNL     1      11.482  -1.470  23.504  0.00  0.00    +0.292 HD
ENDBRANCH  57  62
ENDBRANCH  53  54
BRANCH  52  64
ATOM     64  O   UNL     1       1.015  -4.454  25.418  0.00  0.00    -0.506 OA
ATOM     65  H   UNL     1       0.846  -4.602  26.362  0.00  0.00    +0.292 HD
ENDBRANCH  52  64
BRANCH  49  66
ATOM     66  O   UNL     1       2.726  -8.633  24.087  0.00  0.00    -0.507 OA
ATOM     67  H   UNL     1       3.355  -9.146  24.616  0.00  0.00    +0.292 HD
ENDBRANCH  49  66
ENDBRANCH  42  43
ENDBRANCH   4  42
TORSDOF 22
ENDMDL
