MODEL 1
REMARK VINA RESULT:      -7.1      0.000      0.000
REMARK  Name = 
REMARK  8 active torsions:
REMARK  status: ('A' for Active; 'I' for Inactive)
REMARK    1  A    between atoms: C_1  and  O_2
REMARK    2  A    between atoms: O_2  and  C_3
REMARK    3  A    between atoms: C_5  and  O_24
REMARK    4  A    between atoms: C_10  and  C_15
REMARK    5  A    between atoms: C_11  and  O_14
REMARK    6  A    between atoms: C_17  and  O_22
REMARK    7  A    between atoms: C_18  and  O_21
REMARK    8  A    between atoms: O_22  and  C_23
REMARK                            x       y       z     vdW  Elec       q    Type
REMARK                         _______ _______ _______ _____ _____    ______ ____
ROOT
ATOM      1  C   UNL     1       6.612  -5.707  27.044  0.00  0.00    +0.127 A 
ATOM      2  C   UNL     1       7.283  -4.633  26.442  0.00  0.00    +0.092 A 
ATOM      3  C   UNL     1       6.861  -4.129  25.200  0.00  0.00    +0.147 A 
ATOM      4  O   UNL     1       7.572  -3.070  24.678  0.00  0.00    -0.451 OA
ATOM      5  C   UNL     1       7.152  -2.503  23.472  0.00  0.00    +0.181 A 
ATOM      6  C   UNL     1       6.080  -2.952  22.783  0.00  0.00    +0.208 A 
ATOM      7  C   UNL     1       5.325  -4.129  23.283  0.00  0.00    +0.238 A 
ATOM      8  O   UNL     1       4.353  -4.543  22.663  0.00  0.00    -0.283 OA
ATOM      9  C   UNL     1       5.767  -4.709  24.563  0.00  0.00    +0.109 A 
ATOM     10  C   UNL     1       5.103  -5.788  25.160  0.00  0.00    +0.135 A 
ATOM     11  C   UNL     1       5.521  -6.285  26.398  0.00  0.00    +0.092 A 
ENDROOT
BRANCH   5  12
ATOM     12  C   UNL     1       7.959  -1.320  23.028  0.00  0.00    +0.025 A 
ATOM     13  C   UNL     1       8.966  -1.443  22.048  0.00  0.00    +0.015 A 
ATOM     14  C   UNL     1       9.608  -0.327  21.511  0.00  0.00    +0.050 A 
ATOM     15  C   UNL     1       9.295   0.927  22.000  0.00  0.00    +0.158 A 
ATOM     16  C   UNL     1       8.378   1.093  23.042  0.00  0.00    +0.162 A 
ATOM     17  C   UNL     1       7.713  -0.033  23.553  0.00  0.00    +0.061 A 
BRANCH  15  18
ATOM     18  O   UNL     1       9.908   2.011  21.434  0.00  0.00    -0.503 OA
ATOM     19  H   UNL     1       9.677   2.764  22.011  0.00  0.00    +0.292 HD
ENDBRANCH  15  18
BRANCH  16  20
ATOM     20  O   UNL     1       8.213   2.394  23.439  0.00  0.00    -0.491 OA
ATOM     21  C   UNL     1       8.786   2.768  24.684  0.00  0.00    +0.277 C 
ENDBRANCH  16  20
ENDBRANCH   5  12
BRANCH   1  23
ATOM     22  C   UNL     1       6.143  -6.503  29.238  0.00  0.00    +0.277 C 
ATOM     23  O   UNL     1       7.105  -6.109  28.258  0.00  0.00    -0.495 OA
ENDBRANCH   1  23
BRANCH   6  24
ATOM     24  O   UNL     1       5.583  -2.372  21.629  0.00  0.00    -0.501 OA
ATOM     25  H   UNL     1       6.117  -1.580  21.451  0.00  0.00    +0.292 HD
ENDBRANCH   6  24
BRANCH  10  26
ATOM     26  O   UNL     1       4.028  -6.378  24.560  0.00  0.00    -0.506 OA
ATOM     27  H   UNL     1       4.262  -6.743  23.694  0.00  0.00    +0.292 HD
ENDBRANCH  10  26
TORSDOF 6
ENDMDL
MODEL 2
REMARK VINA RESULT:      -6.8      2.594      3.043
REMARK  Name = 
REMARK  8 active torsions:
REMARK  status: ('A' for Active; 'I' for Inactive)
REMARK    1  A    between atoms: C_1  and  O_2
REMARK    2  A    between atoms: O_2  and  C_3
REMARK    3  A    between atoms: C_5  and  O_24
REMARK    4  A    between atoms: C_10  and  C_15
REMARK    5  A    between atoms: C_11  and  O_14
REMARK    6  A    between atoms: C_17  and  O_22
REMARK    7  A    between atoms: C_18  and  O_21
REMARK    8  A    between atoms: O_22  and  C_23
REMARK                            x       y       z     vdW  Elec       q    Type
REMARK                         _______ _______ _______ _____ _____    ______ ____
ROOT
ATOM      1  C   UNL     1       5.921  -4.004  27.493  0.00  0.00    +0.127 A 
ATOM      2  C   UNL     1       6.119  -2.794  26.812  0.00  0.00    +0.092 A 
ATOM      3  C   UNL     1       7.212  -2.629  25.946  0.00  0.00    +0.147 A 
ATOM      4  O   UNL     1       7.333  -1.411  25.312  0.00  0.00    -0.451 OA
ATOM      5  C   UNL     1       8.375  -1.223  24.400  0.00  0.00    +0.181 A 
ATOM      6  C   UNL     1       9.282  -2.183  24.114  0.00  0.00    +0.208 A 
ATOM      7  C   UNL     1       9.221  -3.487  24.821  0.00  0.00    +0.238 A 
ATOM      8  O   UNL     1      10.040  -4.362  24.569  0.00  0.00    -0.283 OA
ATOM      9  C   UNL     1       8.109  -3.680  25.769  0.00  0.00    +0.109 A 
ATOM     10  C   UNL     1       7.916  -4.884  26.456  0.00  0.00    +0.135 A 
ATOM     11  C   UNL     1       6.825  -5.049  27.313  0.00  0.00    +0.092 A 
ENDROOT
BRANCH   5  12
ATOM     12  C   UNL     1       8.375   0.115  23.725  0.00  0.00    +0.025 A 
ATOM     13  C   UNL     1       7.474   0.410  22.680  0.00  0.00    +0.015 A 
ATOM     14  C   UNL     1       7.353   1.697  22.157  0.00  0.00    +0.050 A 
ATOM     15  C   UNL     1       8.184   2.695  22.631  0.00  0.00    +0.158 A 
ATOM     16  C   UNL     1       9.161   2.430  23.593  0.00  0.00    +0.162 A 
ATOM     17  C   UNL     1       9.254   1.140  24.137  0.00  0.00    +0.061 A 
BRANCH  15  18
ATOM     18  O   UNL     1       8.023   3.958  22.132  0.00  0.00    -0.503 OA
ATOM     19  H   UNL     1       7.834   3.834  21.181  0.00  0.00    +0.292 HD
ENDBRANCH  15  18
BRANCH  16  20
ATOM     20  O   UNL     1       9.930   3.516  23.924  0.00  0.00    -0.491 OA
ATOM     21  C   UNL     1      11.254   3.551  23.411  0.00  0.00    +0.277 C 
ENDBRANCH  16  20
ENDBRANCH   5  12
BRANCH   1  23
ATOM     22  C   UNL     1       4.937  -4.829  29.498  0.00  0.00    +0.277 C 
ATOM     23  O   UNL     1       4.817  -4.055  28.304  0.00  0.00    -0.495 OA
ENDBRANCH   1  23
BRANCH   6  24
ATOM     24  O   UNL     1      10.280  -2.068  23.162  0.00  0.00    -0.501 OA
ATOM     25  H   UNL     1      10.973  -1.501  23.537  0.00  0.00    +0.292 HD
ENDBRANCH   6  24
BRANCH  10  26
ATOM     26  O   UNL     1       8.779  -5.932  26.304  0.00  0.00    -0.506 OA
ATOM     27  H   UNL     1       8.676  -6.582  27.014  0.00  0.00    +0.292 HD
ENDBRANCH  10  26
TORSDOF 6
ENDMDL
MODEL 3
REMARK VINA RESULT:      -6.7      1.457      3.214
REMARK  Name = 
REMARK  8 active torsions:
REMARK  status: ('A' for Active; 'I' for Inactive)
REMARK    1  A    between atoms: C_1  and  O_2
REMARK    2  A    between atoms: O_2  and  C_3
REMARK    3  A    between atoms: C_5  and  O_24
REMARK    4  A    between atoms: C_10  and  C_15
REMARK    5  A    between atoms: C_11  and  O_14
REMARK    6  A    between atoms: C_17  and  O_22
REMARK    7  A    between atoms: C_18  and  O_21
REMARK    8  A    between atoms: O_22  and  C_23
REMARK                            x       y       z     vdW  Elec       q    Type
REMARK                         _______ _______ _______ _____ _____    ______ ____
ROOT
ATOM      1  C   UNL     1       4.091  -5.600  23.450  0.00  0.00    +0.127 A 
ATOM      2  C   UNL     1       4.845  -4.487  23.049  0.00  0.00    +0.092 A 
ATOM      3  C   UNL     1       5.932  -4.041  23.820  0.00  0.00    +0.147 A 
ATOM      4  O   UNL     1       6.623  -2.943  23.355  0.00  0.00    -0.451 OA
ATOM      5  C   UNL     1       7.744  -2.500  24.062  0.00  0.00    +0.181 A 
ATOM      6  C   UNL     1       8.181  -3.097  25.193  0.00  0.00    +0.208 A 
ATOM      7  C   UNL     1       7.428  -4.245  25.757  0.00  0.00    +0.238 A 
ATOM      8  O   UNL     1       7.817  -4.789  26.783  0.00  0.00    -0.283 OA
ATOM      9  C   UNL     1       6.257  -4.713  24.996  0.00  0.00    +0.109 A 
ATOM     10  C   UNL     1       5.499  -5.818  25.400  0.00  0.00    +0.135 A 
ATOM     11  C   UNL     1       4.421  -6.263  24.630  0.00  0.00    +0.092 A 
ENDROOT
BRANCH   5  12
ATOM     12  C   UNL     1       8.454  -1.339  23.434  0.00  0.00    +0.025 A 
ATOM     13  C   UNL     1       8.915  -1.393  22.102  0.00  0.00    +0.015 A 
ATOM     14  C   UNL     1       9.428  -0.268  21.456  0.00  0.00    +0.050 A 
ATOM     15  C   UNL     1       9.549   0.914  22.163  0.00  0.00    +0.158 A 
ATOM     16  C   UNL     1       9.201   0.992  23.514  0.00  0.00    +0.162 A 
ATOM     17  C   UNL     1       8.655  -0.136  24.146  0.00  0.00    +0.061 A 
BRANCH  15  18
ATOM     18  O   UNL     1      10.019   2.015  21.501  0.00  0.00    -0.503 OA
ATOM     19  H   UNL     1       9.243   2.383  21.036  0.00  0.00    +0.292 HD
ENDBRANCH  15  18
BRANCH  16  20
ATOM     20  O   UNL     1       9.422   2.222  24.079  0.00  0.00    -0.491 OA
ATOM     21  C   UNL     1       8.391   2.749  24.902  0.00  0.00    +0.277 C 
ENDBRANCH  16  20
ENDBRANCH   5  12
BRANCH   1  23
ATOM     22  C   UNL     1       1.740  -5.681  23.087  0.00  0.00    +0.277 C 
ATOM     23  O   UNL     1       3.062  -5.950  22.617  0.00  0.00    -0.495 OA
ENDBRANCH   1  23
BRANCH   6  24
ATOM     24  O   UNL     1       9.329  -2.741  25.879  0.00  0.00    -0.501 OA
ATOM     25  H   UNL     1       9.619  -1.882  25.532  0.00  0.00    +0.292 HD
ENDBRANCH   6  24
BRANCH  10  26
ATOM     26  O   UNL     1       5.793  -6.496  26.549  0.00  0.00    -0.506 OA
ATOM     27  H   UNL     1       5.166  -6.284  27.256  0.00  0.00    +0.292 HD
ENDBRANCH  10  26
TORSDOF 6
ENDMDL
MODEL 4
REMARK VINA RESULT:      -6.7      2.619      7.322
REMARK  Name = 
REMARK  8 active torsions:
REMARK  status: ('A' for Active; 'I' for Inactive)
REMARK    1  A    between atoms: C_1  and  O_2
REMARK    2  A    between atoms: O_2  and  C_3
REMARK    3  A    between atoms: C_5  and  O_24
REMARK    4  A    between atoms: C_10  and  C_15
REMARK    5  A    between atoms: C_11  and  O_14
REMARK    6  A    between atoms: C_17  and  O_22
REMARK    7  A    between atoms: C_18  and  O_21
REMARK    8  A    between atoms: O_22  and  C_23
REMARK                            x       y       z     vdW  Elec       q    Type
REMARK                         _______ _______ _______ _____ _____    ______ ____
ROOT
ATOM      1  C   UNL     1       7.798   3.470  25.837  0.00  0.00    +0.127 A 
ATOM      2  C   UNL     1       7.461   2.135  25.571  0.00  0.00    +0.092 A 
ATOM      3  C   UNL     1       8.007   1.463  24.465  0.00  0.00    +0.147 A 
ATOM      4  O   UNL     1       7.628   0.151  24.277  0.00  0.00    -0.451 OA
ATOM      5  C   UNL     1       8.190  -0.570  23.220  0.00  0.00    +0.181 A 
ATOM      6  C   UNL     1       9.087  -0.037  22.363  0.00  0.00    +0.208 A 
ATOM      7  C   UNL     1       9.475   1.390  22.497  0.00  0.00    +0.238 A 
ATOM      8  O   UNL     1      10.287   1.880  21.722  0.00  0.00    -0.283 OA
ATOM      9  C   UNL     1       8.889   2.136  23.623  0.00  0.00    +0.109 A 
ATOM     10  C   UNL     1       9.218   3.472  23.883  0.00  0.00    +0.135 A 
ATOM     11  C   UNL     1       8.679   4.138  24.987  0.00  0.00    +0.092 A 
ENDROOT
BRANCH   5  12
ATOM     12  C   UNL     1       7.753  -2.003  23.146  0.00  0.00    +0.025 A 
ATOM     13  C   UNL     1       6.616  -2.387  22.404  0.00  0.00    +0.015 A 
ATOM     14  C   UNL     1       6.297  -3.728  22.193  0.00  0.00    +0.050 A 
ATOM     15  C   UNL     1       7.078  -4.705  22.782  0.00  0.00    +0.158 A 
ATOM     16  C   UNL     1       8.154  -4.373  23.609  0.00  0.00    +0.162 A 
ATOM     17  C   UNL     1       8.489  -3.022  23.788  0.00  0.00    +0.061 A 
BRANCH  15  18
ATOM     18  O   UNL     1       6.769  -6.014  22.533  0.00  0.00    -0.503 OA
ATOM     19  H   UNL     1       6.075  -5.985  21.846  0.00  0.00    +0.292 HD
ENDBRANCH  15  18
BRANCH  16  20
ATOM     20  O   UNL     1       8.799  -5.456  24.150  0.00  0.00    -0.491 OA
ATOM     21  C   UNL     1       9.515  -5.246  25.358  0.00  0.00    +0.277 C 
ENDBRANCH  16  20
ENDBRANCH   5  12
BRANCH   1  23
ATOM     22  C   UNL     1       6.767   3.108  27.952  0.00  0.00    +0.277 C 
ATOM     23  O   UNL     1       7.214   4.020  26.947  0.00  0.00    -0.495 OA
ENDBRANCH   1  23
BRANCH   6  24
ATOM     24  O   UNL     1       9.727  -0.737  21.354  0.00  0.00    -0.501 OA
ATOM     25  H   UNL     1       9.641  -0.213  20.541  0.00  0.00    +0.292 HD
ENDBRANCH   6  24
BRANCH  10  26
ATOM     26  O   UNL     1      10.079   4.159  23.075  0.00  0.00    -0.506 OA
ATOM     27  H   UNL     1      10.568   3.562  22.490  0.00  0.00    +0.292 HD
ENDBRANCH  10  26
TORSDOF 6
ENDMDL
MODEL 5
REMARK VINA RESULT:      -6.6      1.708      7.548
REMARK  Name = 
REMARK  8 active torsions:
REMARK  status: ('A' for Active; 'I' for Inactive)
REMARK    1  A    between atoms: C_1  and  O_2
REMARK    2  A    between atoms: O_2  and  C_3
REMARK    3  A    between atoms: C_5  and  O_24
REMARK    4  A    between atoms: C_10  and  C_15
REMARK    5  A    between atoms: C_11  and  O_14
REMARK    6  A    between atoms: C_17  and  O_22
REMARK    7  A    between atoms: C_18  and  O_21
REMARK    8  A    between atoms: O_22  and  C_23
REMARK                            x       y       z     vdW  Elec       q    Type
REMARK                         _______ _______ _______ _____ _____    ______ ____
ROOT
ATOM      1  C   UNL     1       7.322   1.095  23.353  0.00  0.00    +0.127 A 
ATOM      2  C   UNL     1       6.579  -0.063  23.626  0.00  0.00    +0.092 A 
ATOM      3  C   UNL     1       7.211  -1.313  23.733  0.00  0.00    +0.147 A 
ATOM      4  O   UNL     1       6.410  -2.401  24.006  0.00  0.00    -0.451 OA
ATOM      5  C   UNL     1       7.006  -3.654  24.176  0.00  0.00    +0.181 A 
ATOM      6  C   UNL     1       8.339  -3.852  24.077  0.00  0.00    +0.208 A 
ATOM      7  C   UNL     1       9.227  -2.717  23.724  0.00  0.00    +0.238 A 
ATOM      8  O   UNL     1      10.436  -2.890  23.630  0.00  0.00    -0.283 OA
ATOM      9  C   UNL     1       8.591  -1.398  23.563  0.00  0.00    +0.109 A 
ATOM     10  C   UNL     1       9.331  -0.243  23.282  0.00  0.00    +0.135 A 
ATOM     11  C   UNL     1       8.702   1.000  23.180  0.00  0.00    +0.092 A 
ENDROOT
BRANCH   5  12
ATOM     12  C   UNL     1       6.049  -4.752  24.530  0.00  0.00    +0.025 A 
ATOM     13  C   UNL     1       5.187  -5.314  23.566  0.00  0.00    +0.015 A 
ATOM     14  C   UNL     1       4.413  -6.442  23.841  0.00  0.00    +0.050 A 
ATOM     15  C   UNL     1       4.444  -6.983  25.113  0.00  0.00    +0.158 A 
ATOM     16  C   UNL     1       5.204  -6.401  26.131  0.00  0.00    +0.162 A 
ATOM     17  C   UNL     1       6.005  -5.287  25.836  0.00  0.00    +0.061 A 
BRANCH  15  18
ATOM     18  O   UNL     1       3.707  -8.110  25.351  0.00  0.00    -0.503 OA
ATOM     19  H   UNL     1       4.219  -8.613  26.014  0.00  0.00    +0.292 HD
ENDBRANCH  15  18
BRANCH  16  20
ATOM     20  O   UNL     1       5.091  -7.032  27.343  0.00  0.00    -0.491 OA
ATOM     21  C   UNL     1       5.762  -6.438  28.446  0.00  0.00    +0.277 C 
ENDBRANCH  16  20
ENDBRANCH   5  12
BRANCH   1  23
ATOM     22  C   UNL     1       6.940   3.153  22.218  0.00  0.00    +0.277 C 
ATOM     23  O   UNL     1       6.602   2.258  23.280  0.00  0.00    -0.495 OA
ENDBRANCH   1  23
BRANCH   6  24
ATOM     24  O   UNL     1       8.977  -5.057  24.315  0.00  0.00    -0.501 OA
ATOM     25  H   UNL     1       9.777  -4.863  24.830  0.00  0.00    +0.292 HD
ENDBRANCH   6  24
BRANCH  10  26
ATOM     26  O   UNL     1      10.685  -0.295  23.108  0.00  0.00    -0.506 OA
ATOM     27  H   UNL     1      10.975   0.298  22.400  0.00  0.00    +0.292 HD
ENDBRANCH  10  26
TORSDOF 6
ENDMDL
MODEL 6
REMARK VINA RESULT:      -6.5      2.465      4.365
REMARK  Name = 
REMARK  8 active torsions:
REMARK  status: ('A' for Active; 'I' for Inactive)
REMARK    1  A    between atoms: C_1  and  O_2
REMARK    2  A    between atoms: O_2  and  C_3
REMARK    3  A    between atoms: C_5  and  O_24
REMARK    4  A    between atoms: C_10  and  C_15
REMARK    5  A    between atoms: C_11  and  O_14
REMARK    6  A    between atoms: C_17  and  O_22
REMARK    7  A    between atoms: C_18  and  O_21
REMARK    8  A    between atoms: O_22  and  C_23
REMARK                            x       y       z     vdW  Elec       q    Type
REMARK                         _______ _______ _______ _____ _____    ______ ____
ROOT
ATOM      1  C   UNL     1       6.552  -3.897  22.196  0.00  0.00    +0.127 A 
ATOM      2  C   UNL     1       7.018  -2.575  22.233  0.00  0.00    +0.092 A 
ATOM      3  C   UNL     1       7.569  -2.041  23.410  0.00  0.00    +0.147 A 
ATOM      4  O   UNL     1       8.007  -0.736  23.363  0.00  0.00    -0.451 OA
ATOM      5  C   UNL     1       8.611  -0.184  24.496  0.00  0.00    +0.181 A 
ATOM      6  C   UNL     1       8.780  -0.871  25.646  0.00  0.00    +0.208 A 
ATOM      7  C   UNL     1       8.267  -2.260  25.755  0.00  0.00    +0.238 A 
ATOM      8  O   UNL     1       8.415  -2.889  26.796  0.00  0.00    -0.283 OA
ATOM      9  C   UNL     1       7.646  -2.837  24.551  0.00  0.00    +0.109 A 
ATOM     10  C   UNL     1       7.172  -4.154  24.516  0.00  0.00    +0.135 A 
ATOM     11  C   UNL     1       6.630  -4.685  23.343  0.00  0.00    +0.092 A 
ENDROOT
BRANCH   5  12
ATOM     12  C   UNL     1       9.105   1.220  24.313  0.00  0.00    +0.025 A 
ATOM     13  C   UNL     1      10.369   1.486  23.746  0.00  0.00    +0.015 A 
ATOM     14  C   UNL     1      10.770   2.782  23.421  0.00  0.00    +0.050 A 
ATOM     15  C   UNL     1       9.932   3.839  23.724  0.00  0.00    +0.158 A 
ATOM     16  C   UNL     1       8.714   3.636  24.378  0.00  0.00    +0.162 A 
ATOM     17  C   UNL     1       8.304   2.326  24.671  0.00  0.00    +0.061 A 
BRANCH  15  18
ATOM     18  O   UNL     1      10.327   5.098  23.363  0.00  0.00    -0.503 OA
ATOM     19  H   UNL     1       9.797   5.314  22.572  0.00  0.00    +0.292 HD
ENDBRANCH  15  18
BRANCH  16  20
ATOM     20  O   UNL     1       8.023   4.791  24.644  0.00  0.00    -0.491 OA
ATOM     21  C   UNL     1       8.033   5.254  25.987  0.00  0.00    +0.277 C 
ENDBRANCH  16  20
ENDBRANCH   5  12
BRANCH   1  23
ATOM     22  C   UNL     1       6.069  -5.720  20.743  0.00  0.00    +0.277 C 
ATOM     23  O   UNL     1       6.045  -4.314  20.993  0.00  0.00    -0.495 OA
ENDBRANCH   1  23
BRANCH   6  24
ATOM     24  O   UNL     1       9.443  -0.391  26.763  0.00  0.00    -0.501 OA
ATOM     25  H   UNL     1      10.193   0.139  26.447  0.00  0.00    +0.292 HD
ENDBRANCH   6  24
BRANCH  10  26
ATOM     26  O   UNL     1       7.233  -4.958  25.618  0.00  0.00    -0.506 OA
ATOM     27  H   UNL     1       6.729  -4.586  26.357  0.00  0.00    +0.292 HD
ENDBRANCH  10  26
TORSDOF 6
ENDMDL
MODEL 7
REMARK VINA RESULT:      -6.5      1.775      7.587
REMARK  Name = 
REMARK  8 active torsions:
REMARK  status: ('A' for Active; 'I' for Inactive)
REMARK    1  A    between atoms: C_1  and  O_2
REMARK    2  A    between atoms: O_2  and  C_3
REMARK    3  A    between atoms: C_5  and  O_24
REMARK    4  A    between atoms: C_10  and  C_15
REMARK    5  A    between atoms: C_11  and  O_14
REMARK    6  A    between atoms: C_17  and  O_22
REMARK    7  A    between atoms: C_18  and  O_21
REMARK    8  A    between atoms: O_22  and  C_23
REMARK                            x       y       z     vdW  Elec       q    Type
REMARK                         _______ _______ _______ _____ _____    ______ ____
ROOT
ATOM      1  C   UNL     1       8.489   3.053  24.823  0.00  0.00    +0.127 A 
ATOM      2  C   UNL     1       8.124   1.774  25.267  0.00  0.00    +0.092 A 
ATOM      3  C   UNL     1       8.395   0.638  24.486  0.00  0.00    +0.147 A 
ATOM      4  O   UNL     1       8.008  -0.582  24.996  0.00  0.00    -0.451 OA
ATOM      5  C   UNL     1       8.309  -1.742  24.277  0.00  0.00    +0.181 A 
ATOM      6  C   UNL     1       8.959  -1.723  23.093  0.00  0.00    +0.208 A 
ATOM      7  C   UNL     1       9.339  -0.425  22.483  0.00  0.00    +0.238 A 
ATOM      8  O   UNL     1       9.927  -0.400  21.408  0.00  0.00    -0.283 OA
ATOM      9  C   UNL     1       9.032   0.790  23.256  0.00  0.00    +0.109 A 
ATOM     10  C   UNL     1       9.387   2.069  22.809  0.00  0.00    +0.135 A 
ATOM     11  C   UNL     1       9.121   3.197  23.589  0.00  0.00    +0.092 A 
ENDROOT
BRANCH   5  12
ATOM     12  C   UNL     1       7.897  -3.015  24.953  0.00  0.00    +0.025 A 
ATOM     13  C   UNL     1       8.689  -3.601  25.962  0.00  0.00    +0.015 A 
ATOM     14  C   UNL     1       8.239  -4.690  26.709  0.00  0.00    +0.050 A 
ATOM     15  C   UNL     1       7.012  -5.250  26.408  0.00  0.00    +0.158 A 
ATOM     16  C   UNL     1       6.235  -4.769  25.350  0.00  0.00    +0.162 A 
ATOM     17  C   UNL     1       6.681  -3.653  24.625  0.00  0.00    +0.061 A 
BRANCH  15  18
ATOM     18  O   UNL     1       6.573  -6.292  27.176  0.00  0.00    -0.503 OA
ATOM     19  H   UNL     1       7.302  -6.471  27.802  0.00  0.00    +0.292 HD
ENDBRANCH  15  18
BRANCH  16  20
ATOM     20  O   UNL     1       5.068  -5.461  25.155  0.00  0.00    -0.491 OA
ATOM     21  C   UNL     1       4.985  -6.276  23.994  0.00  0.00    +0.277 C 
ENDBRANCH  16  20
ENDBRANCH   5  12
BRANCH   1  23
ATOM     22  C   UNL     1       8.764   5.355  25.366  0.00  0.00    +0.277 C 
ATOM     23  O   UNL     1       8.183   4.085  25.671  0.00  0.00    -0.495 OA
ENDBRANCH   1  23
BRANCH   6  24
ATOM     24  O   UNL     1       9.346  -2.850  22.387  0.00  0.00    -0.501 OA
ATOM     25  H   UNL     1       8.814  -3.593  22.715  0.00  0.00    +0.292 HD
ENDBRANCH   6  24
BRANCH  10  26
ATOM     26  O   UNL     1      10.010   2.250  21.607  0.00  0.00    -0.506 OA
ATOM     27  H   UNL     1      10.747   1.632  21.493  0.00  0.00    +0.292 HD
ENDBRANCH  10  26
TORSDOF 6
ENDMDL
MODEL 8
REMARK VINA RESULT:      -6.5      2.539      3.088
REMARK  Name = 
REMARK  8 active torsions:
REMARK  status: ('A' for Active; 'I' for Inactive)
REMARK    1  A    between atoms: C_1  and  O_2
REMARK    2  A    between atoms: O_2  and  C_3
REMARK    3  A    between atoms: C_5  and  O_24
REMARK    4  A    between atoms: C_10  and  C_15
REMARK    5  A    between atoms: C_11  and  O_14
REMARK    6  A    between atoms: C_17  and  O_22
REMARK    7  A    between atoms: C_18  and  O_21
REMARK    8  A    between atoms: O_22  and  C_23
REMARK                            x       y       z     vdW  Elec       q    Type
REMARK                         _______ _______ _______ _____ _____    ______ ____
ROOT
ATOM      1  C   UNL     1       5.117  -3.458  27.907  0.00  0.00    +0.127 A 
ATOM      2  C   UNL     1       5.699  -2.430  27.151  0.00  0.00    +0.092 A 
ATOM      3  C   UNL     1       6.882  -2.654  26.426  0.00  0.00    +0.147 A 
ATOM      4  O   UNL     1       7.387  -1.593  25.706  0.00  0.00    -0.451 OA
ATOM      5  C   UNL     1       8.531  -1.788  24.927  0.00  0.00    +0.181 A 
ATOM      6  C   UNL     1       9.175  -2.974  24.853  0.00  0.00    +0.208 A 
ATOM      7  C   UNL     1       8.696  -4.123  25.661  0.00  0.00    +0.238 A 
ATOM      8  O   UNL     1       9.276  -5.200  25.600  0.00  0.00    -0.283 OA
ATOM      9  C   UNL     1       7.480  -3.911  26.465  0.00  0.00    +0.109 A 
ATOM     10  C   UNL     1       6.904  -4.934  27.228  0.00  0.00    +0.135 A 
ATOM     11  C   UNL     1       5.725  -4.712  27.944  0.00  0.00    +0.092 A 
ENDROOT
BRANCH   5  12
ATOM     12  C   UNL     1       8.957  -0.586  24.139  0.00  0.00    +0.025 A 
ATOM     13  C   UNL     1      10.257  -0.052  24.260  0.00  0.00    +0.015 A 
ATOM     14  C   UNL     1      10.716   0.960  23.415  0.00  0.00    +0.050 A 
ATOM     15  C   UNL     1       9.852   1.496  22.479  0.00  0.00    +0.158 A 
ATOM     16  C   UNL     1       8.524   1.071  22.389  0.00  0.00    +0.162 A 
ATOM     17  C   UNL     1       8.081   0.030  23.220  0.00  0.00    +0.061 A 
BRANCH  15  18
ATOM     18  O   UNL     1      10.333   2.460  21.637  0.00  0.00    -0.503 OA
ATOM     19  H   UNL     1      11.083   2.041  21.173  0.00  0.00    +0.292 HD
ENDBRANCH  15  18
BRANCH  16  20
ATOM     20  O   UNL     1       7.788   1.733  21.440  0.00  0.00    -0.491 OA
ATOM     21  C   UNL     1       6.899   2.742  21.900  0.00  0.00    +0.277 C 
ENDBRANCH  16  20
ENDBRANCH   5  12
BRANCH   1  23
ATOM     22  C   UNL     1       3.892  -3.478  29.948  0.00  0.00    +0.277 C 
ATOM     23  O   UNL     1       3.960  -3.129  28.564  0.00  0.00    -0.495 OA
ENDBRANCH   1  23
BRANCH   6  24
ATOM     24  O   UNL     1      10.262  -3.231  24.035  0.00  0.00    -0.501 OA
ATOM     25  H   UNL     1      10.247  -2.574  23.320  0.00  0.00    +0.292 HD
ENDBRANCH   6  24
BRANCH  10  26
ATOM     26  O   UNL     1       7.468  -6.177  27.287  0.00  0.00    -0.506 OA
ATOM     27  H   UNL     1       8.416  -6.126  27.483  0.00  0.00    +0.292 HD
ENDBRANCH  10  26
TORSDOF 6
ENDMDL
MODEL 9
REMARK VINA RESULT:      -6.5      1.898      7.548
REMARK  Name = 
REMARK  8 active torsions:
REMARK  status: ('A' for Active; 'I' for Inactive)
REMARK    1  A    between atoms: C_1  and  O_2
REMARK    2  A    between atoms: O_2  and  C_3
REMARK    3  A    between atoms: C_5  and  O_24
REMARK    4  A    between atoms: C_10  and  C_15
REMARK    5  A    between atoms: C_11  and  O_14
REMARK    6  A    between atoms: C_17  and  O_22
REMARK    7  A    between atoms: C_18  and  O_21
REMARK    8  A    between atoms: O_22  and  C_23
REMARK                            x       y       z     vdW  Elec       q    Type
REMARK                         _______ _______ _______ _____ _____    ______ ____
ROOT
ATOM      1  C   UNL     1       6.483   2.603  22.922  0.00  0.00    +0.127 A 
ATOM      2  C   UNL     1       6.278   1.335  23.486  0.00  0.00    +0.092 A 
ATOM      3  C   UNL     1       7.263   0.338  23.387  0.00  0.00    +0.147 A 
ATOM      4  O   UNL     1       6.985  -0.879  23.971  0.00  0.00    -0.451 OA
ATOM      5  C   UNL     1       7.960  -1.880  23.944  0.00  0.00    +0.181 A 
ATOM      6  C   UNL     1       9.167  -1.713  23.362  0.00  0.00    +0.208 A 
ATOM      7  C   UNL     1       9.481  -0.437  22.671  0.00  0.00    +0.238 A 
ATOM      8  O   UNL     1      10.573  -0.279  22.139  0.00  0.00    -0.283 OA
ATOM      9  C   UNL     1       8.453   0.617  22.719  0.00  0.00    +0.109 A 
ATOM     10  C   UNL     1       8.653   1.879  22.148  0.00  0.00    +0.135 A 
ATOM     11  C   UNL     1       7.675   2.872  22.251  0.00  0.00    +0.092 A 
ENDROOT
BRANCH   5  12
ATOM     12  C   UNL     1       7.575  -3.139  24.661  0.00  0.00    +0.025 A 
ATOM     13  C   UNL     1       8.052  -3.420  25.959  0.00  0.00    +0.015 A 
ATOM     14  C   UNL     1       7.574  -4.503  26.698  0.00  0.00    +0.050 A 
ATOM     15  C   UNL     1       6.658  -5.359  26.117  0.00  0.00    +0.158 A 
ATOM     16  C   UNL     1       6.231  -5.181  24.798  0.00  0.00    +0.162 A 
ATOM     17  C   UNL     1       6.692  -4.071  24.074  0.00  0.00    +0.061 A 
BRANCH  15  18
ATOM     18  O   UNL     1       6.174  -6.392  26.872  0.00  0.00    -0.503 OA
ATOM     19  H   UNL     1       6.900  -7.044  26.907  0.00  0.00    +0.292 HD
ENDBRANCH  15  18
BRANCH  16  20
ATOM     20  O   UNL     1       5.355  -6.141  24.360  0.00  0.00    -0.491 OA
ATOM     21  C   UNL     1       4.874  -6.017  23.029  0.00  0.00    +0.277 C 
ENDBRANCH  16  20
ENDBRANCH   5  12
BRANCH   1  23
ATOM     22  C   UNL     1       4.273   3.004  23.711  0.00  0.00    +0.277 C 
ATOM     23  O   UNL     1       5.459   3.499  23.088  0.00  0.00    -0.495 OA
ENDBRANCH   1  23
BRANCH   6  24
ATOM     24  O   UNL     1      10.189  -2.647  23.381  0.00  0.00    -0.501 OA
ATOM     25  H   UNL     1      10.012  -3.253  24.119  0.00  0.00    +0.292 HD
ENDBRANCH   6  24
BRANCH  10  26
ATOM     26  O   UNL     1       9.808   2.181  21.485  0.00  0.00    -0.506 OA
ATOM     27  H   UNL     1      10.033   3.119  21.573  0.00  0.00    +0.292 HD
ENDBRANCH  10  26
TORSDOF 6
ENDMDL
