MODEL 1
REMARK VINA RESULT:      -7.1      0.000      0.000
REMARK  Name = 
REMARK  18 active torsions:
REMARK  status: ('A' for Active; 'I' for Inactive)
REMARK    1  A    between atoms: C_3  and  O_54
REMARK    2  A    between atoms: C_4  and  O_53
REMARK    3  A    between atoms: C_6  and  C_7
REMARK    4  A    between atoms: C_8  and  O_20
REMARK    5  A    between atoms: C_12  and  O_19
REMARK    6  A    between atoms: C_14  and  O_18
REMARK    7  A    between atoms: O_20  and  C_21
REMARK    8  A    between atoms: C_23  and  O_52
REMARK    9  A    between atoms: C_25  and  O_35
REMARK   10  A    between atoms: C_27  and  O_34
REMARK   11  A    between atoms: C_29  and  C_32
REMARK   12  A    between atoms: C_32  and  O_33
REMARK   13  A    between atoms: O_35  and  C_36
REMARK   14  A    between atoms: C_38  and  O_51
REMARK   15  A    between atoms: C_40  and  O_50
REMARK   16  A    between atoms: C_42  and  O_49
REMARK   17  A    between atoms: C_44  and  C_47
REMARK   18  A    between atoms: C_47  and  O_48
REMARK                            x       y       z     vdW  Elec       q    Type
REMARK                         _______ _______ _______ _____ _____    ______ ____
ROOT
ATOM      1  C   UNL     1       7.410  -2.608  26.965  0.00  0.00    +0.340 C 
ATOM      2  O   UNL     1       8.615  -3.171  26.466  0.00  0.00    -0.331 OA
ATOM      3  C   UNL     1       8.941  -4.549  26.691  0.00  0.00    +0.179 C 
ATOM      4  C   UNL     1       7.749  -5.524  26.590  0.00  0.00    +0.177 C 
ATOM      5  C   UNL     1       6.522  -4.787  26.043  0.00  0.00    +0.187 C 
ATOM      6  C   UNL     1       6.243  -3.616  27.008  0.00  0.00    +0.214 C 
ENDROOT
BRANCH   6   7
ATOM      7  O   UNL     1       6.017  -4.104  28.349  0.00  0.00    -0.383 OA
ATOM      8  H   UNL     1       5.265  -4.729  28.333  0.00  0.00    +0.210 HD
ENDBRANCH   6   7
BRANCH   4   9
ATOM      9  O   UNL     1       7.497  -6.098  27.886  0.00  0.00    -0.386 OA
ATOM     10  H   UNL     1       7.769  -7.039  27.877  0.00  0.00    +0.210 HD
ENDBRANCH   4   9
BRANCH   5  11
ATOM     11  O   UNL     1       6.711  -4.295  24.698  0.00  0.00    -0.340 OA
BRANCH  11  12
ATOM     12  C   UNL     1       6.902  -5.308  23.702  0.00  0.00    +0.282 C 
ATOM     13  O   UNL     1       7.786  -4.868  22.667  0.00  0.00    -0.341 OA
ATOM     14  C   UNL     1       7.294  -3.902  21.726  0.00  0.00    +0.178 C 
ATOM     15  C   UNL     1       5.870  -4.221  21.220  0.00  0.00    +0.177 C 
ATOM     16  C   UNL     1       4.923  -4.638  22.354  0.00  0.00    +0.179 C 
ATOM     17  C   UNL     1       5.554  -5.787  23.154  0.00  0.00    +0.201 C 
BRANCH  17  18
ATOM     18  O   UNL     1       5.728  -6.970  22.368  0.00  0.00    -0.384 OA
ATOM     19  H   UNL     1       5.023  -7.598  22.644  0.00  0.00    +0.210 HD
ENDBRANCH  17  18
BRANCH  16  20
ATOM     20  O   UNL     1       4.562  -3.534  23.192  0.00  0.00    -0.386 OA
ATOM     21  H   UNL     1       4.323  -2.778  22.614  0.00  0.00    +0.210 HD
ENDBRANCH  16  20
BRANCH  15  22
ATOM     22  O   UNL     1       5.983  -5.339  20.308  0.00  0.00    -0.386 OA
ATOM     23  H   UNL     1       5.083  -5.571  20.014  0.00  0.00    +0.210 HD
ENDBRANCH  15  22
BRANCH  14  24
ATOM     24  C   UNL     1       7.513  -2.470  22.236  0.00  0.00    +0.190 C 
BRANCH  24  25
ATOM     25  O   UNL     1       8.900  -2.190  22.382  0.00  0.00    -0.392 OA
ATOM     26  H   UNL     1       9.360  -3.047  22.448  0.00  0.00    +0.210 HD
ENDBRANCH  24  25
ENDBRANCH  14  24
ENDBRANCH  11  12
ENDBRANCH   5  11
BRANCH   3  27
ATOM     27  C   UNL     1       9.966  -4.876  25.585  0.00  0.00    +0.190 C 
BRANCH  27  28
ATOM     28  O   UNL     1       9.887  -3.960  24.495  0.00  0.00    -0.392 OA
ATOM     29  H   UNL     1       8.967  -3.659  24.421  0.00  0.00    +0.210 HD
ENDBRANCH  27  28
ENDBRANCH   3  27
BRANCH   1  30
ATOM     30  O   UNL     1       6.942  -1.583  26.073  0.00  0.00    -0.453 OA
BRANCH  30  41
ATOM     31  C   UNL     1       6.964   0.750  26.568  0.00  0.00    +0.181 A 
ATOM     32  O   UNL     1       7.450   2.045  26.332  0.00  0.00    -0.451 OA
ATOM     33  C   UNL     1       8.263   2.237  25.242  0.00  0.00    +0.147 A 
ATOM     34  C   UNL     1       8.971   1.189  24.671  0.00  0.00    +0.109 A 
ATOM     35  C   UNL     1       9.797   1.408  23.562  0.00  0.00    +0.135 A 
ATOM     36  C   UNL     1       9.930   2.687  23.034  0.00  0.00    +0.091 A 
ATOM     37  C   UNL     1       9.215   3.734  23.617  0.00  0.00    +0.124 A 
ATOM     38  C   UNL     1       8.817  -0.128  25.266  0.00  0.00    +0.238 A 
ATOM     39  O   UNL     1       9.693  -0.974  25.118  0.00  0.00    -0.283 OA
ATOM     40  C   UNL     1       8.379   3.521  24.715  0.00  0.00    +0.092 A 
ATOM     41  C   UNL     1       7.548  -0.348  26.027  0.00  0.00    +0.214 A 
BRANCH  31  43
ATOM     42  C   UNL     1       5.701   0.672  28.792  0.00  0.00    +0.015 A 
ATOM     43  C   UNL     1       5.701   0.743  27.384  0.00  0.00    +0.025 A 
ATOM     44  C   UNL     1       4.442   0.783  26.756  0.00  0.00    +0.060 A 
ATOM     45  C   UNL     1       3.274   0.597  27.496  0.00  0.00    +0.159 A 
ATOM     46  C   UNL     1       3.323   0.375  28.865  0.00  0.00    +0.158 A 
ATOM     47  C   UNL     1       4.532   0.452  29.531  0.00  0.00    +0.050 A 
BRANCH  46  48
ATOM     48  O   UNL     1       2.160   0.073  29.514  0.00  0.00    -0.503 OA
ATOM     49  H   UNL     1       1.834  -0.772  29.155  0.00  0.00    +0.292 HD
ENDBRANCH  46  48
BRANCH  45  50
ATOM     50  O   UNL     1       2.068   0.594  26.854  0.00  0.00    -0.503 OA
ATOM     51  H   UNL     1       2.293   0.664  25.905  0.00  0.00    +0.292 HD
ENDBRANCH  45  50
ENDBRANCH  31  43
BRANCH  37  52
ATOM     52  O   UNL     1       9.303   5.004  23.125  0.00  0.00    -0.507 OA
ATOM     53  H   UNL     1       8.917   5.018  22.230  0.00  0.00    +0.292 HD
ENDBRANCH  37  52
BRANCH  35  54
ATOM     54  O   UNL     1      10.479   0.405  22.928  0.00  0.00    -0.506 OA
ATOM     55  H   UNL     1      10.095   0.284  22.031  0.00  0.00    +0.292 HD
ENDBRANCH  35  54
ENDBRANCH  30  41
ENDBRANCH   1  30
TORSDOF 18
ENDMDL
MODEL 2
REMARK VINA RESULT:      -7.0      2.198      4.777
REMARK  Name = 
REMARK  18 active torsions:
REMARK  status: ('A' for Active; 'I' for Inactive)
REMARK    1  A    between atoms: C_3  and  O_54
REMARK    2  A    between atoms: C_4  and  O_53
REMARK    3  A    between atoms: C_6  and  C_7
REMARK    4  A    between atoms: C_8  and  O_20
REMARK    5  A    between atoms: C_12  and  O_19
REMARK    6  A    between atoms: C_14  and  O_18
REMARK    7  A    between atoms: O_20  and  C_21
REMARK    8  A    between atoms: C_23  and  O_52
REMARK    9  A    between atoms: C_25  and  O_35
REMARK   10  A    between atoms: C_27  and  O_34
REMARK   11  A    between atoms: C_29  and  C_32
REMARK   12  A    between atoms: C_32  and  O_33
REMARK   13  A    between atoms: O_35  and  C_36
REMARK   14  A    between atoms: C_38  and  O_51
REMARK   15  A    between atoms: C_40  and  O_50
REMARK   16  A    between atoms: C_42  and  O_49
REMARK   17  A    between atoms: C_44  and  C_47
REMARK   18  A    between atoms: C_47  and  O_48
REMARK                            x       y       z     vdW  Elec       q    Type
REMARK                         _______ _______ _______ _____ _____    ______ ____
ROOT
ATOM      1  C   UNL     1       5.390  -3.629  23.978  0.00  0.00    +0.340 C 
ATOM      2  O   UNL     1       4.006  -3.553  24.287  0.00  0.00    -0.331 OA
ATOM      3  C   UNL     1       3.070  -4.493  23.745  0.00  0.00    +0.179 C 
ATOM      4  C   UNL     1       3.578  -5.949  23.670  0.00  0.00    +0.177 C 
ATOM      5  C   UNL     1       4.910  -6.071  24.419  0.00  0.00    +0.187 C 
ATOM      6  C   UNL     1       5.883  -5.075  23.755  0.00  0.00    +0.214 C 
ENDROOT
BRANCH   6   7
ATOM      7  O   UNL     1       6.034  -5.369  22.349  0.00  0.00    -0.383 OA
ATOM      8  H   UNL     1       6.779  -4.845  21.997  0.00  0.00    +0.210 HD
ENDBRANCH   6   7
BRANCH   4   9
ATOM      9  O   UNL     1       3.701  -6.336  22.289  0.00  0.00    -0.386 OA
ATOM     10  H   UNL     1       3.574  -5.546  21.724  0.00  0.00    +0.210 HD
ENDBRANCH   4   9
BRANCH   5  11
ATOM     11  O   UNL     1       4.791  -5.793  25.831  0.00  0.00    -0.340 OA
BRANCH  11  12
ATOM     12  C   UNL     1       5.794  -6.398  26.656  0.00  0.00    +0.282 C 
ATOM     13  O   UNL     1       5.222  -7.314  27.594  0.00  0.00    -0.341 OA
ATOM     14  C   UNL     1       4.497  -6.772  28.708  0.00  0.00    +0.178 C 
ATOM     15  C   UNL     1       5.219  -5.582  29.378  0.00  0.00    +0.177 C 
ATOM     16  C   UNL     1       5.778  -4.583  28.356  0.00  0.00    +0.179 C 
ATOM     17  C   UNL     1       6.654  -5.327  27.337  0.00  0.00    +0.201 C 
BRANCH  17  18
ATOM     18  O   UNL     1       7.808  -5.922  27.938  0.00  0.00    -0.384 OA
ATOM     19  H   UNL     1       8.414  -6.166  27.202  0.00  0.00    +0.210 HD
ENDBRANCH  17  18
BRANCH  16  20
ATOM     20  O   UNL     1       4.745  -3.820  27.722  0.00  0.00    -0.386 OA
ATOM     21  H   UNL     1       3.882  -4.229  27.948  0.00  0.00    +0.210 HD
ENDBRANCH  16  20
BRANCH  15  22
ATOM     22  O   UNL     1       6.336  -6.125  30.120  0.00  0.00    -0.386 OA
ATOM     23  H   UNL     1       7.095  -6.183  29.510  0.00  0.00    +0.210 HD
ENDBRANCH  15  22
BRANCH  14  24
ATOM     24  C   UNL     1       3.022  -6.539  28.351  0.00  0.00    +0.190 C 
BRANCH  24  25
ATOM     25  O   UNL     1       2.629  -7.360  27.257  0.00  0.00    -0.392 OA
ATOM     26  H   UNL     1       2.608  -8.279  27.582  0.00  0.00    +0.210 HD
ENDBRANCH  24  25
ENDBRANCH  14  24
ENDBRANCH  11  12
ENDBRANCH   5  11
BRANCH   3  27
ATOM     27  C   UNL     1       1.865  -4.419  24.706  0.00  0.00    +0.190 C 
BRANCH  27  28
ATOM     28  O   UNL     1       2.247  -3.981  26.008  0.00  0.00    -0.392 OA
ATOM     29  H   UNL     1       1.561  -4.264  26.634  0.00  0.00    +0.210 HD
ENDBRANCH  27  28
ENDBRANCH   3  27
BRANCH   1  30
ATOM     30  O   UNL     1       6.169  -3.173  25.096  0.00  0.00    -0.453 OA
BRANCH  30  41
ATOM     31  C   UNL     1       6.844  -0.932  25.559  0.00  0.00    +0.181 A 
ATOM     32  O   UNL     1       7.613   0.200  25.254  0.00  0.00    -0.451 OA
ATOM     33  C   UNL     1       8.316   0.199  24.074  0.00  0.00    +0.147 A 
ATOM     34  C   UNL     1       8.662  -0.983  23.436  0.00  0.00    +0.109 A 
ATOM     35  C   UNL     1       9.382  -0.960  22.235  0.00  0.00    +0.135 A 
ATOM     36  C   UNL     1       9.775   0.252  21.682  0.00  0.00    +0.091 A 
ATOM     37  C   UNL     1       9.424   1.435  22.333  0.00  0.00    +0.124 A 
ATOM     38  C   UNL     1       8.247  -2.229  24.058  0.00  0.00    +0.238 A 
ATOM     39  O   UNL     1       8.854  -3.267  23.818  0.00  0.00    -0.283 OA
ATOM     40  C   UNL     1       8.695   1.421  23.523  0.00  0.00    +0.092 A 
ATOM     41  C   UNL     1       7.060  -2.133  24.966  0.00  0.00    +0.214 A 
BRANCH  31  43
ATOM     42  C   UNL     1       5.946  -0.160  27.828  0.00  0.00    +0.015 A 
ATOM     43  C   UNL     1       5.725  -0.633  26.518  0.00  0.00    +0.025 A 
ATOM     44  C   UNL     1       4.384  -0.842  26.142  0.00  0.00    +0.060 A 
ATOM     45  C   UNL     1       3.360  -0.736  27.083  0.00  0.00    +0.159 A 
ATOM     46  C   UNL     1       3.633  -0.418  28.406  0.00  0.00    +0.158 A 
ATOM     47  C   UNL     1       4.922  -0.086  28.780  0.00  0.00    +0.050 A 
BRANCH  46  48
ATOM     48  O   UNL     1       2.608  -0.454  29.306  0.00  0.00    -0.503 OA
ATOM     49  H   UNL     1       2.990  -0.316  30.193  0.00  0.00    +0.292 HD
ENDBRANCH  46  48
BRANCH  45  50
ATOM     50  O   UNL     1       2.072  -0.990  26.702  0.00  0.00    -0.503 OA
ATOM     51  H   UNL     1       1.727  -1.596  27.389  0.00  0.00    +0.292 HD
ENDBRANCH  45  50
ENDBRANCH  31  43
BRANCH  37  52
ATOM     52  O   UNL     1       9.777   2.650  21.819  0.00  0.00    -0.507 OA
ATOM     53  H   UNL     1      10.124   2.518  20.919  0.00  0.00    +0.292 HD
ENDBRANCH  37  52
BRANCH  35  54
ATOM     54  O   UNL     1       9.706  -2.091  21.536  0.00  0.00    -0.506 OA
ATOM     55  H   UNL     1       9.558  -1.921  20.579  0.00  0.00    +0.292 HD
ENDBRANCH  35  54
ENDBRANCH  30  41
ENDBRANCH   1  30
TORSDOF 18
ENDMDL
MODEL 3
REMARK VINA RESULT:      -6.7      2.665      8.076
REMARK  Name = 
REMARK  18 active torsions:
REMARK  status: ('A' for Active; 'I' for Inactive)
REMARK    1  A    between atoms: C_3  and  O_54
REMARK    2  A    between atoms: C_4  and  O_53
REMARK    3  A    between atoms: C_6  and  C_7
REMARK    4  A    between atoms: C_8  and  O_20
REMARK    5  A    between atoms: C_12  and  O_19
REMARK    6  A    between atoms: C_14  and  O_18
REMARK    7  A    between atoms: O_20  and  C_21
REMARK    8  A    between atoms: C_23  and  O_52
REMARK    9  A    between atoms: C_25  and  O_35
REMARK   10  A    between atoms: C_27  and  O_34
REMARK   11  A    between atoms: C_29  and  C_32
REMARK   12  A    between atoms: C_32  and  O_33
REMARK   13  A    between atoms: O_35  and  C_36
REMARK   14  A    between atoms: C_38  and  O_51
REMARK   15  A    between atoms: C_40  and  O_50
REMARK   16  A    between atoms: C_42  and  O_49
REMARK   17  A    between atoms: C_44  and  C_47
REMARK   18  A    between atoms: C_47  and  O_48
REMARK                            x       y       z     vdW  Elec       q    Type
REMARK                         _______ _______ _______ _____ _____    ______ ____
ROOT
ATOM      1  C   UNL     1       5.798   0.261  26.417  0.00  0.00    +0.340 C 
ATOM      2  O   UNL     1       4.488   0.698  26.752  0.00  0.00    -0.331 OA
ATOM      3  C   UNL     1       4.273   1.713  27.740  0.00  0.00    +0.179 C 
ATOM      4  C   UNL     1       5.291   2.872  27.716  0.00  0.00    +0.177 C 
ATOM      5  C   UNL     1       6.173   2.760  26.467  0.00  0.00    +0.187 C 
ATOM      6  C   UNL     1       6.856   1.379  26.531  0.00  0.00    +0.214 C 
ENDROOT
BRANCH   6   7
ATOM      7  O   UNL     1       7.632   1.249  27.743  0.00  0.00    -0.383 OA
ATOM      8  H   UNL     1       7.058   0.885  28.445  0.00  0.00    +0.210 HD
ENDBRANCH   6   7
BRANCH   4   9
ATOM      9  O   UNL     1       6.070   2.843  28.927  0.00  0.00    -0.386 OA
ATOM     10  H   UNL     1       6.426   3.740  29.098  0.00  0.00    +0.210 HD
ENDBRANCH   4   9
BRANCH   5  11
ATOM     11  O   UNL     1       5.429   2.896  25.236  0.00  0.00    -0.340 OA
BRANCH  11  12
ATOM     12  C   UNL     1       6.022   3.759  24.259  0.00  0.00    +0.282 C 
ATOM     13  O   UNL     1       5.691   5.131  24.498  0.00  0.00    -0.341 OA
ATOM     14  C   UNL     1       4.353   5.561  24.203  0.00  0.00    +0.178 C 
ATOM     15  C   UNL     1       3.831   5.032  22.849  0.00  0.00    +0.177 C 
ATOM     16  C   UNL     1       4.150   3.545  22.638  0.00  0.00    +0.179 C 
ATOM     17  C   UNL     1       5.653   3.307  22.843  0.00  0.00    +0.201 C 
BRANCH  17  18
ATOM     18  O   UNL     1       6.453   3.995  21.876  0.00  0.00    -0.384 OA
ATOM     19  H   UNL     1       7.208   3.402  21.661  0.00  0.00    +0.210 HD
ENDBRANCH  17  18
BRANCH  16  20
ATOM     20  O   UNL     1       3.352   2.696  23.471  0.00  0.00    -0.386 OA
ATOM     21  H   UNL     1       3.582   1.765  23.265  0.00  0.00    +0.210 HD
ENDBRANCH  16  20
BRANCH  15  22
ATOM     22  O   UNL     1       4.507   5.779  21.810  0.00  0.00    -0.386 OA
ATOM     23  H   UNL     1       4.310   6.723  21.952  0.00  0.00    +0.210 HD
ENDBRANCH  15  22
BRANCH  14  24
ATOM     24  C   UNL     1       3.423   5.343  25.406  0.00  0.00    +0.190 C 
BRANCH  24  25
ATOM     25  O   UNL     1       2.148   4.877  24.983  0.00  0.00    -0.392 OA
ATOM     26  H   UNL     1       1.871   4.187  25.614  0.00  0.00    +0.210 HD
ENDBRANCH  24  25
ENDBRANCH  14  24
ENDBRANCH  11  12
ENDBRANCH   5  11
BRANCH   3  27
ATOM     27  C   UNL     1       2.866   2.259  27.415  0.00  0.00    +0.190 C 
BRANCH  27  28
ATOM     28  O   UNL     1       2.517   2.055  26.047  0.00  0.00    -0.392 OA
ATOM     29  H   UNL     1       2.240   2.909  25.677  0.00  0.00    +0.210 HD
ENDBRANCH  27  28
ENDBRANCH   3  27
BRANCH   1  30
ATOM     30  O   UNL     1       5.850  -0.117  25.032  0.00  0.00    -0.453 OA
BRANCH  30  41
ATOM     31  C   UNL     1       7.453  -1.564  24.020  0.00  0.00    +0.181 A 
ATOM     32  O   UNL     1       7.790  -2.788  23.424  0.00  0.00    -0.451 OA
ATOM     33  C   UNL     1       6.772  -3.661  23.130  0.00  0.00    +0.147 A 
ATOM     34  C   UNL     1       5.551  -3.600  23.787  0.00  0.00    +0.109 A 
ATOM     35  C   UNL     1       4.527  -4.503  23.475  0.00  0.00    +0.135 A 
ATOM     36  C   UNL     1       4.734  -5.484  22.513  0.00  0.00    +0.091 A 
ATOM     37  C   UNL     1       5.965  -5.539  21.860  0.00  0.00    +0.124 A 
ATOM     38  C   UNL     1       5.384  -2.570  24.798  0.00  0.00    +0.238 A 
ATOM     39  O   UNL     1       4.552  -2.713  25.688  0.00  0.00    -0.283 OA
ATOM     40  C   UNL     1       6.987  -4.634  22.157  0.00  0.00    +0.092 A 
ATOM     41  C   UNL     1       6.269  -1.372  24.652  0.00  0.00    +0.214 A 
BRANCH  31  43
ATOM     42  C   UNL     1       9.600  -0.316  24.640  0.00  0.00    +0.015 A 
ATOM     43  C   UNL     1       8.491  -0.501  23.789  0.00  0.00    +0.025 A 
ATOM     44  C   UNL     1       8.378   0.388  22.702  0.00  0.00    +0.060 A 
ATOM     45  C   UNL     1       9.236   1.481  22.588  0.00  0.00    +0.159 A 
ATOM     46  C   UNL     1      10.223   1.718  23.535  0.00  0.00    +0.158 A 
ATOM     47  C   UNL     1      10.440   0.799  24.545  0.00  0.00    +0.050 A 
BRANCH  46  48
ATOM     48  O   UNL     1      10.948   2.871  23.440  0.00  0.00    -0.503 OA
ATOM     49  H   UNL     1      10.944   3.293  24.319  0.00  0.00    +0.292 HD
ENDBRANCH  46  48
BRANCH  45  50
ATOM     50  O   UNL     1       9.074   2.353  21.549  0.00  0.00    -0.503 OA
ATOM     51  H   UNL     1       9.075   3.238  21.968  0.00  0.00    +0.292 HD
ENDBRANCH  45  50
ENDBRANCH  31  43
BRANCH  37  52
ATOM     52  O   UNL     1       6.209  -6.477  20.899  0.00  0.00    -0.507 OA
ATOM     53  H   UNL     1       7.095  -6.318  20.527  0.00  0.00    +0.292 HD
ENDBRANCH  37  52
BRANCH  35  54
ATOM     54  O   UNL     1       3.287  -4.457  24.053  0.00  0.00    -0.506 OA
ATOM     55  H   UNL     1       2.777  -5.245  23.762  0.00  0.00    +0.292 HD
ENDBRANCH  35  54
ENDBRANCH  30  41
ENDBRANCH   1  30
TORSDOF 18
ENDMDL
MODEL 4
REMARK VINA RESULT:      -6.7      2.220      7.726
REMARK  Name = 
REMARK  18 active torsions:
REMARK  status: ('A' for Active; 'I' for Inactive)
REMARK    1  A    between atoms: C_3  and  O_54
REMARK    2  A    between atoms: C_4  and  O_53
REMARK    3  A    between atoms: C_6  and  C_7
REMARK    4  A    between atoms: C_8  and  O_20
REMARK    5  A    between atoms: C_12  and  O_19
REMARK    6  A    between atoms: C_14  and  O_18
REMARK    7  A    between atoms: O_20  and  C_21
REMARK    8  A    between atoms: C_23  and  O_52
REMARK    9  A    between atoms: C_25  and  O_35
REMARK   10  A    between atoms: C_27  and  O_34
REMARK   11  A    between atoms: C_29  and  C_32
REMARK   12  A    between atoms: C_32  and  O_33
REMARK   13  A    between atoms: O_35  and  C_36
REMARK   14  A    between atoms: C_38  and  O_51
REMARK   15  A    between atoms: C_40  and  O_50
REMARK   16  A    between atoms: C_42  and  O_49
REMARK   17  A    between atoms: C_44  and  C_47
REMARK   18  A    between atoms: C_47  and  O_48
REMARK                            x       y       z     vdW  Elec       q    Type
REMARK                         _______ _______ _______ _____ _____    ______ ____
ROOT
ATOM      1  C   UNL     1       6.381  -0.238  27.150  0.00  0.00    +0.340 C 
ATOM      2  O   UNL     1       5.004   0.036  27.366  0.00  0.00    -0.331 OA
ATOM      3  C   UNL     1       4.576   0.896  28.430  0.00  0.00    +0.179 C 
ATOM      4  C   UNL     1       5.467   2.134  28.666  0.00  0.00    +0.177 C 
ATOM      5  C   UNL     1       6.491   2.258  27.532  0.00  0.00    +0.187 C 
ATOM      6  C   UNL     1       7.300   0.945  27.521  0.00  0.00    +0.214 C 
ENDROOT
BRANCH   6   7
ATOM      7  O   UNL     1       7.943   0.733  28.798  0.00  0.00    -0.383 OA
ATOM      8  H   UNL     1       8.405   1.554  29.056  0.00  0.00    +0.210 HD
ENDBRANCH   6   7
BRANCH   4   9
ATOM      9  O   UNL     1       6.102   2.021  29.953  0.00  0.00    -0.386 OA
ATOM     10  H   UNL     1       6.353   2.916  30.264  0.00  0.00    +0.210 HD
ENDBRANCH   4   9
BRANCH   5  11
ATOM     11  O   UNL     1       5.880   2.483  26.242  0.00  0.00    -0.340 OA
BRANCH  11  12
ATOM     12  C   UNL     1       6.442   3.560  25.483  0.00  0.00    +0.282 C 
ATOM     13  O   UNL     1       5.478   4.587  25.234  0.00  0.00    -0.341 OA
ATOM     14  C   UNL     1       4.445   4.323  24.273  0.00  0.00    +0.178 C 
ATOM     15  C   UNL     1       4.974   3.655  22.984  0.00  0.00    +0.177 C 
ATOM     16  C   UNL     1       5.965   2.519  23.275  0.00  0.00    +0.179 C 
ATOM     17  C   UNL     1       7.083   3.036  24.193  0.00  0.00    +0.201 C 
BRANCH  17  18
ATOM     18  O   UNL     1       7.869   4.060  23.576  0.00  0.00    -0.384 OA
ATOM     19  H   UNL     1       7.495   4.920  23.874  0.00  0.00    +0.210 HD
ENDBRANCH  17  18
BRANCH  16  20
ATOM     20  O   UNL     1       5.318   1.360  23.814  0.00  0.00    -0.386 OA
ATOM     21  H   UNL     1       5.436   0.623  23.178  0.00  0.00    +0.210 HD
ENDBRANCH  16  20
BRANCH  15  22
ATOM     22  O   UNL     1       5.678   4.673  22.235  0.00  0.00    -0.386 OA
ATOM     23  H   UNL     1       5.032   5.363  21.996  0.00  0.00    +0.210 HD
ENDBRANCH  15  22
BRANCH  14  24
ATOM     24  C   UNL     1       3.238   3.638  24.930  0.00  0.00    +0.190 C 
BRANCH  24  25
ATOM     25  O   UNL     1       2.722   2.608  24.095  0.00  0.00    -0.392 OA
ATOM     26  H   UNL     1       3.405   1.915  24.039  0.00  0.00    +0.210 HD
ENDBRANCH  24  25
ENDBRANCH  14  24
ENDBRANCH  11  12
ENDBRANCH   5  11
BRANCH   3  27
ATOM     27  C   UNL     1       3.167   1.353  27.997  0.00  0.00    +0.190 C 
BRANCH  27  28
ATOM     28  O   UNL     1       2.792   0.805  26.735  0.00  0.00    -0.392 OA
ATOM     29  H   UNL     1       2.607   1.541  26.130  0.00  0.00    +0.210 HD
ENDBRANCH  27  28
ENDBRANCH   3  27
BRANCH   1  30
ATOM     30  O   UNL     1       6.627  -0.432  25.748  0.00  0.00    -0.453 OA
BRANCH  30  41
ATOM     31  C   UNL     1       8.039  -1.757  24.354  0.00  0.00    +0.181 A 
ATOM     32  O   UNL     1       8.311  -2.955  23.677  0.00  0.00    -0.451 OA
ATOM     33  C   UNL     1       7.320  -3.905  23.629  0.00  0.00    +0.147 A 
ATOM     34  C   UNL     1       6.297  -3.934  24.566  0.00  0.00    +0.109 A 
ATOM     35  C   UNL     1       5.299  -4.914  24.500  0.00  0.00    +0.135 A 
ATOM     36  C   UNL     1       5.337  -5.881  23.504  0.00  0.00    +0.091 A 
ATOM     37  C   UNL     1       6.372  -5.845  22.568  0.00  0.00    +0.124 A 
ATOM     38  C   UNL     1       6.305  -2.914  25.601  0.00  0.00    +0.238 A 
ATOM     39  O   UNL     1       5.730  -3.117  26.665  0.00  0.00    -0.283 OA
ATOM     40  C   UNL     1       7.363  -4.863  22.619  0.00  0.00    +0.092 A 
ATOM     41  C   UNL     1       7.034  -1.653  25.259  0.00  0.00    +0.214 A 
BRANCH  31  43
ATOM     42  C   UNL     1       9.965  -0.101  24.663  0.00  0.00    +0.015 A 
ATOM     43  C   UNL     1       8.905  -0.619  23.891  0.00  0.00    +0.025 A 
ATOM     44  C   UNL     1       8.668   0.004  22.650  0.00  0.00    +0.060 A 
ATOM     45  C   UNL     1       9.351   1.168  22.299  0.00  0.00    +0.159 A 
ATOM     46  C   UNL     1      10.281   1.738  23.158  0.00  0.00    +0.158 A 
ATOM     47  C   UNL     1      10.627   1.086  24.327  0.00  0.00    +0.050 A 
BRANCH  46  48
ATOM     48  O   UNL     1      10.824   2.943  22.817  0.00  0.00    -0.503 OA
ATOM     49  H   UNL     1      10.101   3.597  22.803  0.00  0.00    +0.292 HD
ENDBRANCH  46  48
BRANCH  45  50
ATOM     50  O   UNL     1       9.068   1.778  21.110  0.00  0.00    -0.503 OA
ATOM     51  H   UNL     1       9.888   2.259  20.879  0.00  0.00    +0.292 HD
ENDBRANCH  45  50
ENDBRANCH  31  43
BRANCH  37  52
ATOM     52  O   UNL     1       6.443  -6.767  21.564  0.00  0.00    -0.507 OA
ATOM     53  H   UNL     1       6.744  -7.613  21.941  0.00  0.00    +0.292 HD
ENDBRANCH  37  52
BRANCH  35  54
ATOM     54  O   UNL     1       4.239  -4.961  25.365  0.00  0.00    -0.506 OA
ATOM     55  H   UNL     1       3.744  -5.795  25.208  0.00  0.00    +0.292 HD
ENDBRANCH  35  54
ENDBRANCH  30  41
ENDBRANCH   1  30
TORSDOF 18
ENDMDL
MODEL 5
REMARK VINA RESULT:      -6.5      2.379      8.083
REMARK  Name = 
REMARK  18 active torsions:
REMARK  status: ('A' for Active; 'I' for Inactive)
REMARK    1  A    between atoms: C_3  and  O_54
REMARK    2  A    between atoms: C_4  and  O_53
REMARK    3  A    between atoms: C_6  and  C_7
REMARK    4  A    between atoms: C_8  and  O_20
REMARK    5  A    between atoms: C_12  and  O_19
REMARK    6  A    between atoms: C_14  and  O_18
REMARK    7  A    between atoms: O_20  and  C_21
REMARK    8  A    between atoms: C_23  and  O_52
REMARK    9  A    between atoms: C_25  and  O_35
REMARK   10  A    between atoms: C_27  and  O_34
REMARK   11  A    between atoms: C_29  and  C_32
REMARK   12  A    between atoms: C_32  and  O_33
REMARK   13  A    between atoms: O_35  and  C_36
REMARK   14  A    between atoms: C_38  and  O_51
REMARK   15  A    between atoms: C_40  and  O_50
REMARK   16  A    between atoms: C_42  and  O_49
REMARK   17  A    between atoms: C_44  and  C_47
REMARK   18  A    between atoms: C_47  and  O_48
REMARK                            x       y       z     vdW  Elec       q    Type
REMARK                         _______ _______ _______ _____ _____    ______ ____
ROOT
ATOM      1  C   UNL     1       5.793   0.380  26.320  0.00  0.00    +0.340 C 
ATOM      2  O   UNL     1       4.507   0.963  26.467  0.00  0.00    -0.331 OA
ATOM      3  C   UNL     1       4.276   2.031  27.395  0.00  0.00    +0.179 C 
ATOM      4  C   UNL     1       5.409   3.075  27.481  0.00  0.00    +0.177 C 
ATOM      5  C   UNL     1       6.428   2.826  26.363  0.00  0.00    +0.187 C 
ATOM      6  C   UNL     1       6.943   1.384  26.548  0.00  0.00    +0.214 C 
ENDROOT
BRANCH   6   7
ATOM      7  O   UNL     1       7.536   1.218  27.855  0.00  0.00    -0.383 OA
ATOM      8  H   UNL     1       6.869   0.831  28.456  0.00  0.00    +0.210 HD
ENDBRANCH   6   7
BRANCH   4   9
ATOM      9  O   UNL     1       6.016   3.009  28.785  0.00  0.00    -0.386 OA
ATOM     10  H   UNL     1       5.919   3.878  29.227  0.00  0.00    +0.210 HD
ENDBRANCH   4   9
BRANCH   5  11
ATOM     11  O   UNL     1       5.869   2.994  25.042  0.00  0.00    -0.340 OA
BRANCH  11  12
ATOM     12  C   UNL     1       6.830   3.117  23.987  0.00  0.00    +0.282 C 
ATOM     13  O   UNL     1       7.702   4.232  24.196  0.00  0.00    -0.341 OA
ATOM     14  C   UNL     1       7.171   5.550  23.993  0.00  0.00    +0.178 C 
ATOM     15  C   UNL     1       6.322   5.669  22.707  0.00  0.00    +0.177 C 
ATOM     16  C   UNL     1       5.355   4.490  22.531  0.00  0.00    +0.179 C 
ATOM     17  C   UNL     1       6.133   3.169  22.623  0.00  0.00    +0.201 C 
BRANCH  17  18
ATOM     18  O   UNL     1       7.088   3.021  21.569  0.00  0.00    -0.384 OA
ATOM     19  H   UNL     1       6.751   2.307  20.981  0.00  0.00    +0.210 HD
ENDBRANCH  17  18
BRANCH  16  20
ATOM     20  O   UNL     1       4.265   4.540  23.458  0.00  0.00    -0.386 OA
ATOM     21  H   UNL     1       3.627   3.836  23.216  0.00  0.00    +0.210 HD
ENDBRANCH  16  20
BRANCH  15  22
ATOM     22  O   UNL     1       7.240   5.657  21.588  0.00  0.00    -0.386 OA
ATOM     23  H   UNL     1       7.482   6.581  21.396  0.00  0.00    +0.210 HD
ENDBRANCH  15  22
BRANCH  14  24
ATOM     24  C   UNL     1       6.516   6.087  25.273  0.00  0.00    +0.190 C 
BRANCH  24  25
ATOM     25  O   UNL     1       5.392   6.903  24.965  0.00  0.00    -0.392 OA
ATOM     26  H   UNL     1       4.869   6.991  25.783  0.00  0.00    +0.210 HD
ENDBRANCH  24  25
ENDBRANCH  14  24
ENDBRANCH  11  12
ENDBRANCH   5  11
BRANCH   3  27
ATOM     27  C   UNL     1       2.992   2.709  26.874  0.00  0.00    +0.190 C 
BRANCH  27  28
ATOM     28  O   UNL     1       2.876   2.615  25.455  0.00  0.00    -0.392 OA
ATOM     29  H   UNL     1       1.938   2.704  25.223  0.00  0.00    +0.210 HD
ENDBRANCH  27  28
ENDBRANCH   3  27
BRANCH   1  30
ATOM     30  O   UNL     1       5.983  -0.052  24.963  0.00  0.00    -0.453 OA
BRANCH  30  41
ATOM     31  C   UNL     1       7.590  -1.612  24.140  0.00  0.00    +0.181 A 
ATOM     32  O   UNL     1       7.914  -2.877  23.629  0.00  0.00    -0.451 OA
ATOM     33  C   UNL     1       6.881  -3.721  23.301  0.00  0.00    +0.147 A 
ATOM     34  C   UNL     1       5.620  -3.576  23.861  0.00  0.00    +0.109 A 
ATOM     35  C   UNL     1       4.583  -4.451  23.515  0.00  0.00    +0.135 A 
ATOM     36  C   UNL     1       4.814  -5.486  22.618  0.00  0.00    +0.091 A 
ATOM     37  C   UNL     1       6.086  -5.623  22.061  0.00  0.00    +0.124 A 
ATOM     38  C   UNL     1       5.427  -2.492  24.808  0.00  0.00    +0.238 A 
ATOM     39  O   UNL     1       4.527  -2.556  25.640  0.00  0.00    -0.283 OA
ATOM     40  C   UNL     1       7.123  -4.748  22.392  0.00  0.00    +0.092 A 
ATOM     41  C   UNL     1       6.373  -1.340  24.673  0.00  0.00    +0.214 A 
BRANCH  31  43
ATOM     42  C   UNL     1       9.663  -0.328  24.919  0.00  0.00    +0.015 A 
ATOM     43  C   UNL     1       8.688  -0.605  23.938  0.00  0.00    +0.025 A 
ATOM     44  C   UNL     1       8.771   0.136  22.743  0.00  0.00    +0.060 A 
ATOM     45  C   UNL     1       9.675   1.190  22.624  0.00  0.00    +0.159 A 
ATOM     46  C   UNL     1      10.517   1.533  23.674  0.00  0.00    +0.158 A 
ATOM     47  C   UNL     1      10.547   0.751  24.813  0.00  0.00    +0.050 A 
BRANCH  46  48
ATOM     48  O   UNL     1      11.289   2.652  23.546  0.00  0.00    -0.503 OA
ATOM     49  H   UNL     1      11.651   2.658  22.641  0.00  0.00    +0.292 HD
ENDBRANCH  46  48
BRANCH  45  50
ATOM     50  O   UNL     1       9.703   1.922  21.471  0.00  0.00    -0.503 OA
ATOM     51  H   UNL     1      10.234   1.384  20.850  0.00  0.00    +0.292 HD
ENDBRANCH  45  50
ENDBRANCH  31  43
BRANCH  37  52
ATOM     52  O   UNL     1       6.357  -6.618  21.166  0.00  0.00    -0.507 OA
ATOM     53  H   UNL     1       7.190  -7.051  21.426  0.00  0.00    +0.292 HD
ENDBRANCH  37  52
BRANCH  35  54
ATOM     54  O   UNL     1       3.307  -4.326  23.998  0.00  0.00    -0.506 OA
ATOM     55  H   UNL     1       2.719  -4.922  23.483  0.00  0.00    +0.292 HD
ENDBRANCH  35  54
ENDBRANCH  30  41
ENDBRANCH   1  30
TORSDOF 18
ENDMDL
MODEL 6
REMARK VINA RESULT:      -6.5      2.415      6.906
REMARK  Name = 
REMARK  18 active torsions:
REMARK  status: ('A' for Active; 'I' for Inactive)
REMARK    1  A    between atoms: C_3  and  O_54
REMARK    2  A    between atoms: C_4  and  O_53
REMARK    3  A    between atoms: C_6  and  C_7
REMARK    4  A    between atoms: C_8  and  O_20
REMARK    5  A    between atoms: C_12  and  O_19
REMARK    6  A    between atoms: C_14  and  O_18
REMARK    7  A    between atoms: O_20  and  C_21
REMARK    8  A    between atoms: C_23  and  O_52
REMARK    9  A    between atoms: C_25  and  O_35
REMARK   10  A    between atoms: C_27  and  O_34
REMARK   11  A    between atoms: C_29  and  C_32
REMARK   12  A    between atoms: C_32  and  O_33
REMARK   13  A    between atoms: O_35  and  C_36
REMARK   14  A    between atoms: C_38  and  O_51
REMARK   15  A    between atoms: C_40  and  O_50
REMARK   16  A    between atoms: C_42  and  O_49
REMARK   17  A    between atoms: C_44  and  C_47
REMARK   18  A    between atoms: C_47  and  O_48
REMARK                            x       y       z     vdW  Elec       q    Type
REMARK                         _______ _______ _______ _____ _____    ______ ____
ROOT
ATOM      1  C   UNL     1       7.800  -1.645  24.101  0.00  0.00    +0.340 C 
ATOM      2  O   UNL     1       8.887  -0.999  24.748  0.00  0.00    -0.331 OA
ATOM      3  C   UNL     1      10.137  -0.796  24.077  0.00  0.00    +0.179 C 
ATOM      4  C   UNL     1      10.022  -0.406  22.588  0.00  0.00    +0.177 C 
ATOM      5  C   UNL     1       8.558  -0.108  22.243  0.00  0.00    +0.187 C 
ATOM      6  C   UNL     1       7.757  -1.382  22.581  0.00  0.00    +0.214 C 
ENDROOT
BRANCH   6   7
ATOM      7  O   UNL     1       8.260  -2.513  21.836  0.00  0.00    -0.383 OA
ATOM      8  H   UNL     1       7.823  -2.532  20.961  0.00  0.00    +0.210 HD
ENDBRANCH   6   7
BRANCH   4   9
ATOM      9  O   UNL     1      10.559  -1.468  21.779  0.00  0.00    -0.386 OA
ATOM     10  H   UNL     1       9.832  -2.073  21.524  0.00  0.00    +0.210 HD
ENDBRANCH   4   9
BRANCH   5  11
ATOM     11  O   UNL     1       8.028   1.025  22.964  0.00  0.00    -0.340 OA
BRANCH  11  12
ATOM     12  C   UNL     1       7.087   1.823  22.235  0.00  0.00    +0.282 C 
ATOM     13  O   UNL     1       7.672   3.050  21.789  0.00  0.00    -0.341 OA
ATOM     14  C   UNL     1       7.924   4.071  22.767  0.00  0.00    +0.178 C 
ATOM     15  C   UNL     1       6.747   4.274  23.745  0.00  0.00    +0.177 C 
ATOM     16  C   UNL     1       6.169   2.946  24.254  0.00  0.00    +0.179 C 
ATOM     17  C   UNL     1       5.815   2.049  23.059  0.00  0.00    +0.201 C 
BRANCH  17  18
ATOM     18  O   UNL     1       4.784   2.608  22.241  0.00  0.00    -0.384 OA
ATOM     19  H   UNL     1       4.155   3.058  22.849  0.00  0.00    +0.210 HD
ENDBRANCH  17  18
BRANCH  16  20
ATOM     20  O   UNL     1       7.046   2.292  25.178  0.00  0.00    -0.386 OA
ATOM     21  H   UNL     1       6.725   2.476  26.086  0.00  0.00    +0.210 HD
ENDBRANCH  16  20
BRANCH  15  22
ATOM     22  O   UNL     1       5.700   4.959  23.017  0.00  0.00    -0.386 OA
ATOM     23  H   UNL     1       5.600   4.512  22.156  0.00  0.00    +0.210 HD
ENDBRANCH  15  22
BRANCH  14  24
ATOM     24  C   UNL     1       9.304   3.890  23.415  0.00  0.00    +0.190 C 
BRANCH  24  25
ATOM     25  O   UNL     1      10.139   3.066  22.610  0.00  0.00    -0.392 OA
ATOM     26  H   UNL     1       9.916   3.254  21.680  0.00  0.00    +0.210 HD
ENDBRANCH  24  25
ENDBRANCH  14  24
ENDBRANCH  11  12
ENDBRANCH   5  11
BRANCH   3  27
ATOM     27  C   UNL     1      10.799   0.358  24.860  0.00  0.00    +0.190 C 
BRANCH  27  28
ATOM     28  O   UNL     1       9.854   1.359  25.235  0.00  0.00    -0.392 OA
ATOM     29  H   UNL     1       9.113   0.921  25.684  0.00  0.00    +0.210 HD
ENDBRANCH  27  28
ENDBRANCH   3  27
BRANCH   1  30
ATOM     30  O   UNL     1       6.556  -1.105  24.575  0.00  0.00    -0.453 OA
BRANCH  30  41
ATOM     31  C   UNL     1       5.025  -1.646  26.323  0.00  0.00    +0.181 A 
ATOM     32  O   UNL     1       4.215  -2.573  26.994  0.00  0.00    -0.451 OA
ATOM     33  C   UNL     1       4.315  -3.894  26.632  0.00  0.00    +0.147 A 
ATOM     34  C   UNL     1       4.798  -4.270  25.386  0.00  0.00    +0.109 A 
ATOM     35  C   UNL     1       4.888  -5.623  25.036  0.00  0.00    +0.135 A 
ATOM     36  C   UNL     1       4.475  -6.603  25.930  0.00  0.00    +0.091 A 
ATOM     37  C   UNL     1       3.990  -6.214  27.180  0.00  0.00    +0.124 A 
ATOM     38  C   UNL     1       5.202  -3.213  24.475  0.00  0.00    +0.238 A 
ATOM     39  O   UNL     1       5.218  -3.418  23.266  0.00  0.00    -0.283 OA
ATOM     40  C   UNL     1       3.908  -4.868  27.541  0.00  0.00    +0.092 A 
ATOM     41  C   UNL     1       5.588  -1.918  25.119  0.00  0.00    +0.214 A 
BRANCH  31  43
ATOM     42  C   UNL     1       4.340   0.669  27.172  0.00  0.00    +0.015 A 
ATOM     43  C   UNL     1       5.263  -0.396  27.123  0.00  0.00    +0.025 A 
ATOM     44  C   UNL     1       6.457  -0.227  27.852  0.00  0.00    +0.060 A 
ATOM     45  C   UNL     1       6.757   0.998  28.447  0.00  0.00    +0.159 A 
ATOM     46  C   UNL     1       5.889   2.076  28.342  0.00  0.00    +0.158 A 
ATOM     47  C   UNL     1       4.655   1.909  27.741  0.00  0.00    +0.050 A 
BRANCH  46  48
ATOM     48  O   UNL     1       6.293   3.283  28.835  0.00  0.00    -0.503 OA
ATOM     49  H   UNL     1       5.591   3.930  28.640  0.00  0.00    +0.292 HD
ENDBRANCH  46  48
BRANCH  45  50
ATOM     50  O   UNL     1       7.943   1.148  29.108  0.00  0.00    -0.503 OA
ATOM     51  H   UNL     1       7.728   0.963  30.044  0.00  0.00    +0.292 HD
ENDBRANCH  45  50
ENDBRANCH  31  43
BRANCH  37  52
ATOM     52  O   UNL     1       3.585  -7.142  28.095  0.00  0.00    -0.507 OA
ATOM     53  H   UNL     1       4.117  -7.949  27.976  0.00  0.00    +0.292 HD
ENDBRANCH  37  52
BRANCH  35  54
ATOM     54  O   UNL     1       5.402  -6.054  23.843  0.00  0.00    -0.506 OA
ATOM     55  H   UNL     1       4.925  -5.599  23.114  0.00  0.00    +0.292 HD
ENDBRANCH  35  54
ENDBRANCH  30  41
ENDBRANCH   1  30
TORSDOF 18
ENDMDL
MODEL 7
REMARK VINA RESULT:      -6.5      2.122      7.182
REMARK  Name = 
REMARK  18 active torsions:
REMARK  status: ('A' for Active; 'I' for Inactive)
REMARK    1  A    between atoms: C_3  and  O_54
REMARK    2  A    between atoms: C_4  and  O_53
REMARK    3  A    between atoms: C_6  and  C_7
REMARK    4  A    between atoms: C_8  and  O_20
REMARK    5  A    between atoms: C_12  and  O_19
REMARK    6  A    between atoms: C_14  and  O_18
REMARK    7  A    between atoms: O_20  and  C_21
REMARK    8  A    between atoms: C_23  and  O_52
REMARK    9  A    between atoms: C_25  and  O_35
REMARK   10  A    between atoms: C_27  and  O_34
REMARK   11  A    between atoms: C_29  and  C_32
REMARK   12  A    between atoms: C_32  and  O_33
REMARK   13  A    between atoms: O_35  and  C_36
REMARK   14  A    between atoms: C_38  and  O_51
REMARK   15  A    between atoms: C_40  and  O_50
REMARK   16  A    between atoms: C_42  and  O_49
REMARK   17  A    between atoms: C_44  and  C_47
REMARK   18  A    between atoms: C_47  and  O_48
REMARK                            x       y       z     vdW  Elec       q    Type
REMARK                         _______ _______ _______ _____ _____    ______ ____
ROOT
ATOM      1  C   UNL     1       7.752  -1.749  24.157  0.00  0.00    +0.340 C 
ATOM      2  O   UNL     1       8.849  -1.106  24.791  0.00  0.00    -0.331 OA
ATOM      3  C   UNL     1      10.082  -0.881  24.095  0.00  0.00    +0.179 C 
ATOM      4  C   UNL     1       9.929  -0.465  22.616  0.00  0.00    +0.177 C 
ATOM      5  C   UNL     1       8.455  -0.174  22.311  0.00  0.00    +0.187 C 
ATOM      6  C   UNL     1       7.672  -1.459  22.644  0.00  0.00    +0.214 C 
ENDROOT
BRANCH   6   7
ATOM      7  O   UNL     1       8.166  -2.573  21.867  0.00  0.00    -0.383 OA
ATOM      8  H   UNL     1       7.466  -3.252  21.811  0.00  0.00    +0.210 HD
ENDBRANCH   6   7
BRANCH   4   9
ATOM      9  O   UNL     1      10.455  -1.508  21.776  0.00  0.00    -0.386 OA
ATOM     10  H   UNL     1       9.919  -2.319  21.900  0.00  0.00    +0.210 HD
ENDBRANCH   4   9
BRANCH   5  11
ATOM     11  O   UNL     1       7.933   0.943  23.064  0.00  0.00    -0.340 OA
BRANCH  11  12
ATOM     12  C   UNL     1       6.989   1.761  22.363  0.00  0.00    +0.282 C 
ATOM     13  O   UNL     1       7.587   2.975  21.900  0.00  0.00    -0.341 OA
ATOM     14  C   UNL     1       7.888   3.990  22.870  0.00  0.00    +0.178 C 
ATOM     15  C   UNL     1       6.744   4.218  23.882  0.00  0.00    +0.177 C 
ATOM     16  C   UNL     1       6.154   2.902  24.408  0.00  0.00    +0.179 C 
ATOM     17  C   UNL     1       5.747   2.013  23.223  0.00  0.00    +0.201 C 
BRANCH  17  18
ATOM     18  O   UNL     1       4.704   2.594  22.435  0.00  0.00    -0.384 OA
ATOM     19  H   UNL     1       5.141   3.182  21.779  0.00  0.00    +0.210 HD
ENDBRANCH  17  18
BRANCH  16  20
ATOM     20  O   UNL     1       7.044   2.229  25.306  0.00  0.00    -0.386 OA
ATOM     21  H   UNL     1       6.544   1.509  25.747  0.00  0.00    +0.210 HD
ENDBRANCH  16  20
BRANCH  15  22
ATOM     22  O   UNL     1       5.692   4.925  23.184  0.00  0.00    -0.386 OA
ATOM     23  H   UNL     1       5.047   4.262  22.876  0.00  0.00    +0.210 HD
ENDBRANCH  15  22
BRANCH  14  24
ATOM     24  C   UNL     1       9.282   3.779  23.478  0.00  0.00    +0.190 C 
BRANCH  24  25
ATOM     25  O   UNL     1      10.138   3.105  22.564  0.00  0.00    -0.392 OA
ATOM     26  H   UNL     1       9.760   3.227  21.673  0.00  0.00    +0.210 HD
ENDBRANCH  24  25
ENDBRANCH  14  24
ENDBRANCH  11  12
ENDBRANCH   5  11
BRANCH   3  27
ATOM     27  C   UNL     1      10.753   0.264  24.883  0.00  0.00    +0.190 C 
BRANCH  27  28
ATOM     28  O   UNL     1       9.793   1.143  25.468  0.00  0.00    -0.392 OA
ATOM     29  H   UNL     1       8.918   0.734  25.380  0.00  0.00    +0.210 HD
ENDBRANCH  27  28
ENDBRANCH   3  27
BRANCH   1  30
ATOM     30  O   UNL     1       6.515  -1.228  24.669  0.00  0.00    -0.453 OA
BRANCH  30  41
ATOM     31  C   UNL     1       5.455  -2.878  26.027  0.00  0.00    +0.181 A 
ATOM     32  O   UNL     1       4.735  -3.237  27.176  0.00  0.00    -0.451 OA
ATOM     33  C   UNL     1       4.252  -2.227  27.972  0.00  0.00    +0.147 A 
ATOM     34  C   UNL     1       4.813  -0.959  27.956  0.00  0.00    +0.109 A 
ATOM     35  C   UNL     1       4.307   0.055  28.779  0.00  0.00    +0.135 A 
ATOM     36  C   UNL     1       3.247  -0.209  29.636  0.00  0.00    +0.091 A 
ATOM     37  C   UNL     1       2.691  -1.488  29.647  0.00  0.00    +0.124 A 
ATOM     38  C   UNL     1       5.932  -0.731  27.057  0.00  0.00    +0.238 A 
ATOM     39  O   UNL     1       6.728   0.174  27.285  0.00  0.00    -0.283 OA
ATOM     40  C   UNL     1       3.182  -2.501  28.820  0.00  0.00    +0.092 A 
ATOM     41  C   UNL     1       6.011  -1.650  25.878  0.00  0.00    +0.214 A 
BRANCH  31  43
ATOM     42  C   UNL     1       6.614  -4.615  24.548  0.00  0.00    +0.015 A 
ATOM     43  C   UNL     1       5.445  -3.954  24.976  0.00  0.00    +0.025 A 
ATOM     44  C   UNL     1       4.243  -4.332  24.348  0.00  0.00    +0.060 A 
ATOM     45  C   UNL     1       4.256  -5.196  23.254  0.00  0.00    +0.159 A 
ATOM     46  C   UNL     1       5.448  -5.709  22.762  0.00  0.00    +0.158 A 
ATOM     47  C   UNL     1       6.632  -5.457  23.429  0.00  0.00    +0.050 A 
BRANCH  46  48
ATOM     48  O   UNL     1       5.411  -6.447  21.613  0.00  0.00    -0.503 OA
ATOM     49  H   UNL     1       4.988  -5.900  20.926  0.00  0.00    +0.292 HD
ENDBRANCH  46  48
BRANCH  45  50
ATOM     50  O   UNL     1       3.079  -5.510  22.634  0.00  0.00    -0.503 OA
ATOM     51  H   UNL     1       3.347  -5.859  21.760  0.00  0.00    +0.292 HD
ENDBRANCH  45  50
ENDBRANCH  31  43
BRANCH  37  52
ATOM     52  O   UNL     1       1.640  -1.791  30.464  0.00  0.00    -0.507 OA
ATOM     53  H   UNL     1       1.987  -2.192  31.280  0.00  0.00    +0.292 HD
ENDBRANCH  37  52
BRANCH  35  54
ATOM     54  O   UNL     1       4.788   1.337  28.768  0.00  0.00    -0.506 OA
ATOM     55  H   UNL     1       4.486   1.791  29.586  0.00  0.00    +0.292 HD
ENDBRANCH  35  54
ENDBRANCH  30  41
ENDBRANCH   1  30
TORSDOF 18
ENDMDL
MODEL 8
REMARK VINA RESULT:      -6.5      1.822      2.889
REMARK  Name = 
REMARK  18 active torsions:
REMARK  status: ('A' for Active; 'I' for Inactive)
REMARK    1  A    between atoms: C_3  and  O_54
REMARK    2  A    between atoms: C_4  and  O_53
REMARK    3  A    between atoms: C_6  and  C_7
REMARK    4  A    between atoms: C_8  and  O_20
REMARK    5  A    between atoms: C_12  and  O_19
REMARK    6  A    between atoms: C_14  and  O_18
REMARK    7  A    between atoms: O_20  and  C_21
REMARK    8  A    between atoms: C_23  and  O_52
REMARK    9  A    between atoms: C_25  and  O_35
REMARK   10  A    between atoms: C_27  and  O_34
REMARK   11  A    between atoms: C_29  and  C_32
REMARK   12  A    between atoms: C_32  and  O_33
REMARK   13  A    between atoms: O_35  and  C_36
REMARK   14  A    between atoms: C_38  and  O_51
REMARK   15  A    between atoms: C_40  and  O_50
REMARK   16  A    between atoms: C_42  and  O_49
REMARK   17  A    between atoms: C_44  and  C_47
REMARK   18  A    between atoms: C_47  and  O_48
REMARK                            x       y       z     vdW  Elec       q    Type
REMARK                         _______ _______ _______ _____ _____    ______ ____
ROOT
ATOM      1  C   UNL     1       5.039  -1.688  26.330  0.00  0.00    +0.340 C 
ATOM      2  O   UNL     1       6.142  -2.490  26.729  0.00  0.00    -0.331 OA
ATOM      3  C   UNL     1       5.949  -3.807  27.261  0.00  0.00    +0.179 C 
ATOM      4  C   UNL     1       4.840  -4.631  26.575  0.00  0.00    +0.177 C 
ATOM      5  C   UNL     1       4.356  -3.900  25.317  0.00  0.00    +0.187 C 
ATOM      6  C   UNL     1       3.860  -2.514  25.775  0.00  0.00    +0.214 C 
ENDROOT
BRANCH   6   7
ATOM      7  O   UNL     1       2.804  -2.648  26.752  0.00  0.00    -0.383 OA
ATOM      8  H   UNL     1       3.109  -3.242  27.465  0.00  0.00    +0.210 HD
ENDBRANCH   6   7
BRANCH   4   9
ATOM      9  O   UNL     1       3.769  -4.855  27.511  0.00  0.00    -0.386 OA
ATOM     10  H   UNL     1       4.036  -4.509  28.388  0.00  0.00    +0.210 HD
ENDBRANCH   4   9
BRANCH   5  11
ATOM     11  O   UNL     1       5.386  -3.760  24.315  0.00  0.00    -0.340 OA
BRANCH  11  12
ATOM     12  C   UNL     1       4.916  -3.715  22.962  0.00  0.00    +0.282 C 
ATOM     13  O   UNL     1       4.245  -4.926  22.598  0.00  0.00    -0.341 OA
ATOM     14  C   UNL     1       5.043  -6.099  22.382  0.00  0.00    +0.178 C 
ATOM     15  C   UNL     1       6.309  -5.823  21.540  0.00  0.00    +0.177 C 
ATOM     16  C   UNL     1       7.043  -4.550  21.982  0.00  0.00    +0.179 C 
ATOM     17  C   UNL     1       6.060  -3.370  22.003  0.00  0.00    +0.201 C 
BRANCH  17  18
ATOM     18  O   UNL     1       5.545  -3.064  20.703  0.00  0.00    -0.384 OA
ATOM     19  H   UNL     1       5.288  -2.115  20.718  0.00  0.00    +0.210 HD
ENDBRANCH  17  18
BRANCH  16  20
ATOM     20  O   UNL     1       7.709  -4.717  23.239  0.00  0.00    -0.386 OA
ATOM     21  H   UNL     1       7.030  -4.902  23.922  0.00  0.00    +0.210 HD
ENDBRANCH  16  20
BRANCH  15  22
ATOM     22  O   UNL     1       5.877  -5.629  20.172  0.00  0.00    -0.386 OA
ATOM     23  H   UNL     1       5.277  -4.860  20.159  0.00  0.00    +0.210 HD
ENDBRANCH  15  22
BRANCH  14  24
ATOM     24  C   UNL     1       5.271  -6.864  23.693  0.00  0.00    +0.190 C 
BRANCH  24  25
ATOM     25  O   UNL     1       4.078  -7.511  24.118  0.00  0.00    -0.392 OA
ATOM     26  H   UNL     1       3.735  -8.010  23.354  0.00  0.00    +0.210 HD
ENDBRANCH  24  25
ENDBRANCH  14  24
ENDBRANCH  11  12
ENDBRANCH   5  11
BRANCH   3  27
ATOM     27  C   UNL     1       7.311  -4.500  27.047  0.00  0.00    +0.190 C 
BRANCH  27  28
ATOM     28  O   UNL     1       8.027  -3.941  25.946  0.00  0.00    -0.392 OA
ATOM     29  H   UNL     1       8.370  -4.672  25.408  0.00  0.00    +0.210 HD
ENDBRANCH  27  28
ENDBRANCH   3  27
BRANCH   1  30
ATOM     30  O   UNL     1       5.417  -0.850  25.226  0.00  0.00    -0.453 OA
BRANCH  30  41
ATOM     31  C   UNL     1       6.795   0.972  25.915  0.00  0.00    +0.181 A 
ATOM     32  O   UNL     1       7.925   1.784  25.739  0.00  0.00    -0.451 OA
ATOM     33  C   UNL     1       8.654   1.628  24.585  0.00  0.00    +0.147 A 
ATOM     34  C   UNL     1       8.608   0.452  23.851  0.00  0.00    +0.109 A 
ATOM     35  C   UNL     1       9.363   0.313  22.680  0.00  0.00    +0.135 A 
ATOM     36  C   UNL     1      10.183   1.350  22.253  0.00  0.00    +0.091 A 
ATOM     37  C   UNL     1      10.224   2.528  23.000  0.00  0.00    +0.124 A 
ATOM     38  C   UNL     1       7.752  -0.614  24.343  0.00  0.00    +0.238 A 
ATOM     39  O   UNL     1       7.977  -1.778  24.026  0.00  0.00    -0.283 OA
ATOM     40  C   UNL     1       9.464   2.679  24.161  0.00  0.00    +0.092 A 
ATOM     41  C   UNL     1       6.619  -0.180  25.219  0.00  0.00    +0.214 A 
BRANCH  31  43
ATOM     42  C   UNL     1       4.710   2.363  26.430  0.00  0.00    +0.015 A 
ATOM     43  C   UNL     1       5.792   1.569  26.862  0.00  0.00    +0.025 A 
ATOM     44  C   UNL     1       5.913   1.373  28.251  0.00  0.00    +0.060 A 
ATOM     45  C   UNL     1       5.093   2.068  29.139  0.00  0.00    +0.159 A 
ATOM     46  C   UNL     1       4.137   2.964  28.679  0.00  0.00    +0.158 A 
ATOM     47  C   UNL     1       3.909   3.087  27.322  0.00  0.00    +0.050 A 
BRANCH  46  48
ATOM     48  O   UNL     1       3.453   3.709  29.596  0.00  0.00    -0.503 OA
ATOM     49  H   UNL     1       2.586   3.284  29.733  0.00  0.00    +0.292 HD
ENDBRANCH  46  48
BRANCH  45  50
ATOM     50  O   UNL     1       5.263   1.895  30.484  0.00  0.00    -0.503 OA
ATOM     51  H   UNL     1       4.434   2.228  30.882  0.00  0.00    +0.292 HD
ENDBRANCH  45  50
ENDBRANCH  31  43
BRANCH  37  52
ATOM     52  O   UNL     1      11.004   3.579  22.612  0.00  0.00    -0.507 OA
ATOM     53  H   UNL     1      11.887   3.473  23.010  0.00  0.00    +0.292 HD
ENDBRANCH  37  52
BRANCH  35  54
ATOM     54  O   UNL     1       9.319  -0.804  21.889  0.00  0.00    -0.506 OA
ATOM     55  H   UNL     1       8.779  -1.488  22.344  0.00  0.00    +0.292 HD
ENDBRANCH  35  54
ENDBRANCH  30  41
ENDBRANCH   1  30
TORSDOF 18
ENDMDL
MODEL 9
REMARK VINA RESULT:      -6.3      2.459      6.548
REMARK  Name = 
REMARK  18 active torsions:
REMARK  status: ('A' for Active; 'I' for Inactive)
REMARK    1  A    between atoms: C_3  and  O_54
REMARK    2  A    between atoms: C_4  and  O_53
REMARK    3  A    between atoms: C_6  and  C_7
REMARK    4  A    between atoms: C_8  and  O_20
REMARK    5  A    between atoms: C_12  and  O_19
REMARK    6  A    between atoms: C_14  and  O_18
REMARK    7  A    between atoms: O_20  and  C_21
REMARK    8  A    between atoms: C_23  and  O_52
REMARK    9  A    between atoms: C_25  and  O_35
REMARK   10  A    between atoms: C_27  and  O_34
REMARK   11  A    between atoms: C_29  and  C_32
REMARK   12  A    between atoms: C_32  and  O_33
REMARK   13  A    between atoms: O_35  and  C_36
REMARK   14  A    between atoms: C_38  and  O_51
REMARK   15  A    between atoms: C_40  and  O_50
REMARK   16  A    between atoms: C_42  and  O_49
REMARK   17  A    between atoms: C_44  and  C_47
REMARK   18  A    between atoms: C_47  and  O_48
REMARK                            x       y       z     vdW  Elec       q    Type
REMARK                         _______ _______ _______ _____ _____    ______ ____
ROOT
ATOM      1  C   UNL     1       4.788  -3.421  24.127  0.00  0.00    +0.340 C 
ATOM      2  O   UNL     1       3.432  -3.557  24.529  0.00  0.00    -0.331 OA
ATOM      3  C   UNL     1       2.601  -4.599  24.002  0.00  0.00    +0.179 C 
ATOM      4  C   UNL     1       3.302  -5.963  23.823  0.00  0.00    +0.177 C 
ATOM      5  C   UNL     1       4.688  -5.922  24.477  0.00  0.00    +0.187 C 
ATOM      6  C   UNL     1       5.461  -4.772  23.802  0.00  0.00    +0.214 C 
ENDROOT
BRANCH   6   7
ATOM      7  O   UNL     1       5.551  -4.986  22.376  0.00  0.00    -0.383 OA
ATOM      8  H   UNL     1       6.257  -4.414  22.016  0.00  0.00    +0.210 HD
ENDBRANCH   6   7
BRANCH   4   9
ATOM      9  O   UNL     1       3.379  -6.274  22.420  0.00  0.00    -0.386 OA
ATOM     10  H   UNL     1       3.834  -7.135  22.308  0.00  0.00    +0.210 HD
ENDBRANCH   4   9
BRANCH   5  11
ATOM     11  O   UNL     1       4.632  -5.721  25.906  0.00  0.00    -0.340 OA
BRANCH  11  12
ATOM     12  C   UNL     1       5.708  -6.311  26.645  0.00  0.00    +0.282 C 
ATOM     13  O   UNL     1       5.236  -7.318  27.546  0.00  0.00    -0.341 OA
ATOM     14  C   UNL     1       4.534  -6.892  28.724  0.00  0.00    +0.178 C 
ATOM     15  C   UNL     1       5.215  -5.702  29.437  0.00  0.00    +0.177 C 
ATOM     16  C   UNL     1       5.664  -4.609  28.457  0.00  0.00    +0.179 C 
ATOM     17  C   UNL     1       6.533  -5.233  27.355  0.00  0.00    +0.201 C 
BRANCH  17  18
ATOM     18  O   UNL     1       7.748  -5.790  27.865  0.00  0.00    -0.384 OA
ATOM     19  H   UNL     1       7.738  -5.643  28.838  0.00  0.00    +0.210 HD
ENDBRANCH  17  18
BRANCH  16  20
ATOM     20  O   UNL     1       4.558  -3.875  27.920  0.00  0.00    -0.386 OA
ATOM     21  H   UNL     1       4.898  -3.283  27.216  0.00  0.00    +0.210 HD
ENDBRANCH  16  20
BRANCH  15  22
ATOM     22  O   UNL     1       6.397  -6.218  30.093  0.00  0.00    -0.386 OA
ATOM     23  H   UNL     1       6.360  -7.191  30.043  0.00  0.00    +0.210 HD
ENDBRANCH  15  22
BRANCH  14  24
ATOM     24  C   UNL     1       3.033  -6.731  28.447  0.00  0.00    +0.190 C 
BRANCH  24  25
ATOM     25  O   UNL     1       2.639  -7.500  27.317  0.00  0.00    -0.392 OA
ATOM     26  H   UNL     1       3.282  -8.228  27.229  0.00  0.00    +0.210 HD
ENDBRANCH  24  25
ENDBRANCH  14  24
ENDBRANCH  11  12
ENDBRANCH   5  11
BRANCH   3  27
ATOM     27  C   UNL     1       1.469  -4.737  25.042  0.00  0.00    +0.190 C 
BRANCH  27  28
ATOM     28  O   UNL     1       1.859  -4.248  26.324  0.00  0.00    -0.392 OA
ATOM     29  H   UNL     1       1.995  -5.011  26.908  0.00  0.00    +0.210 HD
ENDBRANCH  27  28
ENDBRANCH   3  27
BRANCH   1  30
ATOM     30  O   UNL     1       5.572  -2.904  25.213  0.00  0.00    -0.453 OA
BRANCH  30  41
ATOM     31  C   UNL     1       6.553  -0.731  25.111  0.00  0.00    +0.181 A 
ATOM     32  O   UNL     1       6.682   0.576  25.604  0.00  0.00    -0.451 OA
ATOM     33  C   UNL     1       6.056   0.880  26.788  0.00  0.00    +0.147 A 
ATOM     34  C   UNL     1       4.977   0.141  27.249  0.00  0.00    +0.109 A 
ATOM     35  C   UNL     1       4.351   0.471  28.458  0.00  0.00    +0.135 A 
ATOM     36  C   UNL     1       4.797   1.559  29.198  0.00  0.00    +0.091 A 
ATOM     37  C   UNL     1       5.883   2.297  28.724  0.00  0.00    +0.124 A 
ATOM     38  C   UNL     1       4.531  -0.977  26.435  0.00  0.00    +0.238 A 
ATOM     39  O   UNL     1       3.379  -1.386  26.532  0.00  0.00    -0.283 OA
ATOM     40  C   UNL     1       6.519   1.966  27.526  0.00  0.00    +0.092 A 
ATOM     41  C   UNL     1       5.563  -1.562  25.522  0.00  0.00    +0.214 A 
BRANCH  31  43
ATOM     42  C   UNL     1       8.590  -2.143  24.471  0.00  0.00    +0.015 A 
ATOM     43  C   UNL     1       7.670  -1.114  24.180  0.00  0.00    +0.025 A 
ATOM     44  C   UNL     1       7.858  -0.427  22.966  0.00  0.00    +0.060 A 
ATOM     45  C   UNL     1       8.993  -0.659  22.189  0.00  0.00    +0.159 A 
ATOM     46  C   UNL     1       9.958  -1.573  22.588  0.00  0.00    +0.158 A 
ATOM     47  C   UNL     1       9.745  -2.352  23.709  0.00  0.00    +0.050 A 
BRANCH  46  48
ATOM     48  O   UNL     1      11.106  -1.665  21.853  0.00  0.00    -0.503 OA
ATOM     49  H   UNL     1      11.020  -2.441  21.269  0.00  0.00    +0.292 HD
ENDBRANCH  46  48
BRANCH  45  50
ATOM     50  O   UNL     1       9.174   0.055  21.038  0.00  0.00    -0.503 OA
ATOM     51  H   UNL     1      10.104   0.357  21.079  0.00  0.00    +0.292 HD
ENDBRANCH  45  50
ENDBRANCH  31  43
BRANCH  37  52
ATOM     52  O   UNL     1       6.364   3.366  29.424  0.00  0.00    -0.507 OA
ATOM     53  H   UNL     1       5.790   4.134  29.251  0.00  0.00    +0.292 HD
ENDBRANCH  37  52
BRANCH  35  54
ATOM     54  O   UNL     1       3.316  -0.252  28.986  0.00  0.00    -0.506 OA
ATOM     55  H   UNL     1       3.462  -0.346  29.954  0.00  0.00    +0.292 HD
ENDBRANCH  35  54
ENDBRANCH  30  41
ENDBRANCH   1  30
TORSDOF 18
ENDMDL
