MODEL 1
REMARK VINA RESULT:      -7.8      0.000      0.000
REMARK  Name = 
REMARK  11 active torsions:
REMARK  status: ('A' for Active; 'I' for Inactive)
REMARK    1  A    between atoms: C_2  and  O_35
REMARK    2  A    between atoms: C_4  and  O_34
REMARK    3  A    between atoms: C_6  and  O_33
REMARK    4  A    between atoms: C_8  and  C_10
REMARK    5  A    between atoms: C_8  and  O_32
REMARK    6  A    between atoms: C_11  and  O_31
REMARK    7  A    between atoms: C_15  and  O_16
REMARK    8  A    between atoms: C_18  and  C_23
REMARK    9  A    between atoms: C_19  and  O_22
REMARK   10  A    between atoms: C_25  and  O_30
REMARK   11  A    between atoms: C_26  and  O_29
REMARK                            x       y       z     vdW  Elec       q    Type
REMARK                         _______ _______ _______ _____ _____    ______ ____
ROOT
ATOM      1  C   UNL     1       7.850  -2.081  24.245  0.00  0.00    +0.097 A 
ATOM      2  C   UNL     1       8.746  -1.824  25.295  0.00  0.00    +0.132 A 
ATOM      3  C   UNL     1       9.338  -0.563  25.457  0.00  0.00    +0.093 A 
ATOM      4  C   UNL     1       9.017   0.480  24.582  0.00  0.00    +0.147 A 
ATOM      5  O   UNL     1       9.726   1.649  24.716  0.00  0.00    -0.451 OA
ATOM      6  C   UNL     1       9.493   2.664  23.805  0.00  0.00    +0.181 A 
ATOM      7  C   UNL     1       8.550   2.644  22.846  0.00  0.00    +0.208 A 
ATOM      8  C   UNL     1       7.729   1.413  22.696  0.00  0.00    +0.238 A 
ATOM      9  O   UNL     1       6.895   1.338  21.798  0.00  0.00    -0.283 OA
ATOM     10  C   UNL     1       8.027   0.298  23.623  0.00  0.00    +0.110 A 
ATOM     11  C   UNL     1       7.423  -0.960  23.496  0.00  0.00    +0.143 A 
ENDROOT
BRANCH   1  14
ATOM     12  C   UNL     1       6.745  -4.648  21.829  0.00  0.00    +0.197 C 
ATOM     13  O   UNL     1       7.224  -3.451  22.416  0.00  0.00    -0.340 OA
ATOM     14  C   UNL     1       7.402  -3.496  23.848  0.00  0.00    +0.230 C 
ATOM     15  C   UNL     1       6.093  -3.936  24.583  0.00  0.00    +0.209 C 
ATOM     16  C   UNL     1       5.492  -5.190  23.916  0.00  0.00    +0.179 C 
ATOM     17  C   UNL     1       5.391  -5.034  22.398  0.00  0.00    +0.171 C 
BRANCH  14  18
ATOM     18  O   UNL     1       8.476  -4.406  24.091  0.00  0.00    -0.359 OA
ATOM     19  H   UNL     1       9.315  -3.925  24.034  0.00  0.00    +0.213 HD
ENDBRANCH  14  18
BRANCH  15  20
ATOM     20  O   UNL     1       6.335  -4.245  25.971  0.00  0.00    -0.383 OA
ATOM     21  H   UNL     1       6.813  -5.096  26.014  0.00  0.00    +0.210 HD
ENDBRANCH  15  20
BRANCH  16  22
ATOM     22  O   UNL     1       4.176  -5.469  24.422  0.00  0.00    -0.386 OA
ATOM     23  H   UNL     1       3.629  -5.657  23.634  0.00  0.00    +0.210 HD
ENDBRANCH  16  22
BRANCH  17  24
ATOM     24  O   UNL     1       4.945  -6.270  21.834  0.00  0.00    -0.387 OA
ATOM     25  H   UNL     1       4.333  -6.054  21.107  0.00  0.00    +0.210 HD
ENDBRANCH  17  24
ENDBRANCH   1  14
BRANCH   6  26
ATOM     26  C   UNL     1      10.412   3.805  23.936  0.00  0.00    +0.025 A 
ATOM     27  C   UNL     1       9.950   5.033  24.435  0.00  0.00    +0.015 A 
ATOM     28  C   UNL     1      10.798   6.143  24.472  0.00  0.00    +0.050 A 
ATOM     29  C   UNL     1      12.101   6.018  24.011  0.00  0.00    +0.158 A 
ATOM     30  C   UNL     1      12.569   4.804  23.513  0.00  0.00    +0.159 A 
ATOM     31  C   UNL     1      11.734   3.693  23.473  0.00  0.00    +0.060 A 
BRANCH  29  32
ATOM     32  O   UNL     1      12.923   7.107  24.039  0.00  0.00    -0.503 OA
ATOM     33  H   UNL     1      13.826   6.742  23.954  0.00  0.00    +0.292 HD
ENDBRANCH  29  32
BRANCH  30  34
ATOM     34  O   UNL     1      13.859   4.762  23.062  0.00  0.00    -0.503 OA
ATOM     35  H   UNL     1      13.926   5.308  22.260  0.00  0.00    +0.292 HD
ENDBRANCH  30  34
ENDBRANCH   6  26
BRANCH   2  36
ATOM     36  O   UNL     1       9.038  -2.817  26.192  0.00  0.00    -0.506 OA
ATOM     37  H   UNL     1       8.454  -2.734  26.966  0.00  0.00    +0.292 HD
ENDBRANCH   2  36
BRANCH   7  38
ATOM     38  O   UNL     1       8.309   3.681  21.956  0.00  0.00    -0.501 OA
ATOM     39  H   UNL     1       9.144   3.975  21.560  0.00  0.00    +0.292 HD
ENDBRANCH   7  38
BRANCH  11  40
ATOM     40  O   UNL     1       6.377  -1.104  22.624  0.00  0.00    -0.505 OA
ATOM     41  H   UNL     1       5.893  -0.255  22.636  0.00  0.00    +0.292 HD
ENDBRANCH  11  40
TORSDOF 11
ENDMDL
MODEL 2
REMARK VINA RESULT:      -7.3      2.040      9.395
REMARK  Name = 
REMARK  11 active torsions:
REMARK  status: ('A' for Active; 'I' for Inactive)
REMARK    1  A    between atoms: C_2  and  O_35
REMARK    2  A    between atoms: C_4  and  O_34
REMARK    3  A    between atoms: C_6  and  O_33
REMARK    4  A    between atoms: C_8  and  C_10
REMARK    5  A    between atoms: C_8  and  O_32
REMARK    6  A    between atoms: C_11  and  O_31
REMARK    7  A    between atoms: C_15  and  O_16
REMARK    8  A    between atoms: C_18  and  C_23
REMARK    9  A    between atoms: C_19  and  O_22
REMARK   10  A    between atoms: C_25  and  O_30
REMARK   11  A    between atoms: C_26  and  O_29
REMARK                            x       y       z     vdW  Elec       q    Type
REMARK                         _______ _______ _______ _____ _____    ______ ____
ROOT
ATOM      1  C   UNL     1       8.162   0.858  23.960  0.00  0.00    +0.097 A 
ATOM      2  C   UNL     1       6.875   0.818  24.520  0.00  0.00    +0.132 A 
ATOM      3  C   UNL     1       6.280  -0.394  24.897  0.00  0.00    +0.093 A 
ATOM      4  C   UNL     1       6.981  -1.595  24.746  0.00  0.00    +0.147 A 
ATOM      5  O   UNL     1       6.295  -2.756  25.012  0.00  0.00    -0.451 OA
ATOM      6  C   UNL     1       6.935  -3.961  24.783  0.00  0.00    +0.181 A 
ATOM      7  C   UNL     1       8.221  -4.099  24.411  0.00  0.00    +0.208 A 
ATOM      8  C   UNL     1       9.012  -2.865  24.156  0.00  0.00    +0.238 A 
ATOM      9  O   UNL     1      10.173  -2.952  23.764  0.00  0.00    -0.283 OA
ATOM     10  C   UNL     1       8.307  -1.575  24.330  0.00  0.00    +0.110 A 
ATOM     11  C   UNL     1       8.896  -0.351  23.988  0.00  0.00    +0.143 A 
ENDROOT
BRANCH   1  14
ATOM     12  C   UNL     1      10.399   3.792  23.757  0.00  0.00    +0.197 C 
ATOM     13  O   UNL     1       9.761   2.594  24.166  0.00  0.00    -0.340 OA
ATOM     14  C   UNL     1       8.742   2.102  23.269  0.00  0.00    +0.230 C 
ATOM     15  C   UNL     1       7.652   3.185  22.976  0.00  0.00    +0.209 C 
ATOM     16  C   UNL     1       8.310   4.532  22.611  0.00  0.00    +0.179 C 
ATOM     17  C   UNL     1       9.397   4.924  23.613  0.00  0.00    +0.171 C 
BRANCH  14  18
ATOM     18  O   UNL     1       9.418   1.696  22.078  0.00  0.00    -0.359 OA
ATOM     19  H   UNL     1       8.762   1.519  21.388  0.00  0.00    +0.213 HD
ENDBRANCH  14  18
BRANCH  15  20
ATOM     20  O   UNL     1       6.794   2.801  21.883  0.00  0.00    -0.383 OA
ATOM     21  H   UNL     1       6.349   3.604  21.548  0.00  0.00    +0.210 HD
ENDBRANCH  15  20
BRANCH  16  22
ATOM     22  O   UNL     1       7.340   5.591  22.570  0.00  0.00    -0.386 OA
ATOM     23  H   UNL     1       6.489   5.174  22.809  0.00  0.00    +0.210 HD
ENDBRANCH  16  22
BRANCH  17  24
ATOM     24  O   UNL     1      10.047   6.111  23.150  0.00  0.00    -0.387 OA
ATOM     25  H   UNL     1      10.973   6.072  23.453  0.00  0.00    +0.210 HD
ENDBRANCH  17  24
ENDBRANCH   1  14
BRANCH   6  26
ATOM     26  C   UNL     1       6.067  -5.137  24.945  0.00  0.00    +0.025 A 
ATOM     27  C   UNL     1       5.365  -5.656  23.846  0.00  0.00    +0.015 A 
ATOM     28  C   UNL     1       4.468  -6.714  24.018  0.00  0.00    +0.050 A 
ATOM     29  C   UNL     1       4.278  -7.244  25.285  0.00  0.00    +0.158 A 
ATOM     30  C   UNL     1       4.968  -6.736  26.383  0.00  0.00    +0.159 A 
ATOM     31  C   UNL     1       5.864  -5.684  26.224  0.00  0.00    +0.060 A 
BRANCH  29  32
ATOM     32  O   UNL     1       3.393  -8.270  25.451  0.00  0.00    -0.503 OA
ATOM     33  H   UNL     1       3.022  -8.427  24.559  0.00  0.00    +0.292 HD
ENDBRANCH  29  32
BRANCH  30  34
ATOM     34  O   UNL     1       4.717  -7.298  27.604  0.00  0.00    -0.503 OA
ATOM     35  H   UNL     1       5.551  -7.346  28.103  0.00  0.00    +0.292 HD
ENDBRANCH  30  34
ENDBRANCH   6  26
BRANCH   2  36
ATOM     36  O   UNL     1       6.190   1.987  24.721  0.00  0.00    -0.506 OA
ATOM     37  H   UNL     1       6.731   2.588  25.263  0.00  0.00    +0.292 HD
ENDBRANCH   2  36
BRANCH   7  38
ATOM     38  O   UNL     1       8.858  -5.314  24.212  0.00  0.00    -0.501 OA
ATOM     39  H   UNL     1       8.544  -5.961  24.864  0.00  0.00    +0.292 HD
ENDBRANCH   7  38
BRANCH  11  40
ATOM     40  O   UNL     1      10.230  -0.323  23.681  0.00  0.00    -0.505 OA
ATOM     41  H   UNL     1      10.707  -0.361  24.534  0.00  0.00    +0.292 HD
ENDBRANCH  11  40
TORSDOF 11
ENDMDL
MODEL 3
REMARK VINA RESULT:      -7.1      2.305      9.001
REMARK  Name = 
REMARK  11 active torsions:
REMARK  status: ('A' for Active; 'I' for Inactive)
REMARK    1  A    between atoms: C_2  and  O_35
REMARK    2  A    between atoms: C_4  and  O_34
REMARK    3  A    between atoms: C_6  and  O_33
REMARK    4  A    between atoms: C_8  and  C_10
REMARK    5  A    between atoms: C_8  and  O_32
REMARK    6  A    between atoms: C_11  and  O_31
REMARK    7  A    between atoms: C_15  and  O_16
REMARK    8  A    between atoms: C_18  and  C_23
REMARK    9  A    between atoms: C_19  and  O_22
REMARK   10  A    between atoms: C_25  and  O_30
REMARK   11  A    between atoms: C_26  and  O_29
REMARK                            x       y       z     vdW  Elec       q    Type
REMARK                         _______ _______ _______ _____ _____    ______ ____
ROOT
ATOM      1  C   UNL     1       8.666   1.488  24.166  0.00  0.00    +0.097 A 
ATOM      2  C   UNL     1       8.117   1.407  25.456  0.00  0.00    +0.132 A 
ATOM      3  C   UNL     1       7.758   0.174  26.019  0.00  0.00    +0.093 A 
ATOM      4  C   UNL     1       7.973  -1.011  25.308  0.00  0.00    +0.147 A 
ATOM      5  O   UNL     1       7.483  -2.169  25.861  0.00  0.00    -0.451 OA
ATOM      6  C   UNL     1       7.601  -3.342  25.136  0.00  0.00    +0.181 A 
ATOM      7  C   UNL     1       8.250  -3.467  23.965  0.00  0.00    +0.208 A 
ATOM      8  C   UNL     1       8.835  -2.245  23.354  0.00  0.00    +0.238 A 
ATOM      9  O   UNL     1       9.389  -2.311  22.259  0.00  0.00    -0.283 OA
ATOM     10  C   UNL     1       8.646  -0.975  24.093  0.00  0.00    +0.110 A 
ATOM     11  C   UNL     1       9.026   0.263  23.559  0.00  0.00    +0.143 A 
ENDROOT
BRANCH   1  14
ATOM     12  C   UNL     1       9.525   5.068  23.853  0.00  0.00    +0.197 C 
ATOM     13  O   UNL     1       9.364   3.746  24.337  0.00  0.00    -0.340 OA
ATOM     14  C   UNL     1       8.806   2.809  23.392  0.00  0.00    +0.230 C 
ATOM     15  C   UNL     1       7.442   3.309  22.812  0.00  0.00    +0.209 C 
ATOM     16  C   UNL     1       7.554   4.777  22.353  0.00  0.00    +0.179 C 
ATOM     17  C   UNL     1       8.194   5.660  23.424  0.00  0.00    +0.171 C 
BRANCH  14  18
ATOM     18  O   UNL     1       9.787   2.640  22.367  0.00  0.00    -0.359 OA
ATOM     19  H   UNL     1       9.625   3.289  21.666  0.00  0.00    +0.213 HD
ENDBRANCH  14  18
BRANCH  15  20
ATOM     20  O   UNL     1       7.020   2.521  21.680  0.00  0.00    -0.383 OA
ATOM     21  H   UNL     1       7.817   2.153  21.251  0.00  0.00    +0.210 HD
ENDBRANCH  15  20
BRANCH  16  22
ATOM     22  O   UNL     1       6.262   5.324  22.039  0.00  0.00    -0.386 OA
ATOM     23  H   UNL     1       6.009   4.918  21.187  0.00  0.00    +0.210 HD
ENDBRANCH  16  22
BRANCH  17  24
ATOM     24  O   UNL     1       8.380   6.974  22.891  0.00  0.00    -0.387 OA
ATOM     25  H   UNL     1       8.349   7.599  23.639  0.00  0.00    +0.210 HD
ENDBRANCH  17  24
ENDBRANCH   1  14
BRANCH   6  26
ATOM     26  C   UNL     1       6.906  -4.488  25.741  0.00  0.00    +0.025 A 
ATOM     27  C   UNL     1       5.792  -5.059  25.103  0.00  0.00    +0.015 A 
ATOM     28  C   UNL     1       5.075  -6.086  25.722  0.00  0.00    +0.050 A 
ATOM     29  C   UNL     1       5.474  -6.536  26.972  0.00  0.00    +0.158 A 
ATOM     30  C   UNL     1       6.577  -5.976  27.614  0.00  0.00    +0.159 A 
ATOM     31  C   UNL     1       7.298  -4.954  27.007  0.00  0.00    +0.060 A 
BRANCH  29  32
ATOM     32  O   UNL     1       4.765  -7.532  27.577  0.00  0.00    -0.503 OA
ATOM     33  H   UNL     1       3.831  -7.346  27.354  0.00  0.00    +0.292 HD
ENDBRANCH  29  32
BRANCH  30  34
ATOM     34  O   UNL     1       6.900  -6.460  28.851  0.00  0.00    -0.503 OA
ATOM     35  H   UNL     1       7.822  -6.769  28.834  0.00  0.00    +0.292 HD
ENDBRANCH  30  34
ENDBRANCH   6  26
BRANCH   2  36
ATOM     36  O   UNL     1       7.941   2.551  26.188  0.00  0.00    -0.506 OA
ATOM     37  H   UNL     1       8.487   2.504  26.993  0.00  0.00    +0.292 HD
ENDBRANCH   2  36
BRANCH   7  38
ATOM     38  O   UNL     1       8.384  -4.656  23.262  0.00  0.00    -0.501 OA
ATOM     39  H   UNL     1       9.254  -5.047  23.441  0.00  0.00    +0.292 HD
ENDBRANCH   7  38
BRANCH  11  40
ATOM     40  O   UNL     1       9.780   0.285  22.416  0.00  0.00    -0.505 OA
ATOM     41  H   UNL     1      10.707   0.162  22.699  0.00  0.00    +0.292 HD
ENDBRANCH  11  40
TORSDOF 11
ENDMDL
MODEL 4
REMARK VINA RESULT:      -6.9      2.138      9.200
REMARK  Name = 
REMARK  11 active torsions:
REMARK  status: ('A' for Active; 'I' for Inactive)
REMARK    1  A    between atoms: C_2  and  O_35
REMARK    2  A    between atoms: C_4  and  O_34
REMARK    3  A    between atoms: C_6  and  O_33
REMARK    4  A    between atoms: C_8  and  C_10
REMARK    5  A    between atoms: C_8  and  O_32
REMARK    6  A    between atoms: C_11  and  O_31
REMARK    7  A    between atoms: C_15  and  O_16
REMARK    8  A    between atoms: C_18  and  C_23
REMARK    9  A    between atoms: C_19  and  O_22
REMARK   10  A    between atoms: C_25  and  O_30
REMARK   11  A    between atoms: C_26  and  O_29
REMARK                            x       y       z     vdW  Elec       q    Type
REMARK                         _______ _______ _______ _____ _____    ______ ____
ROOT
ATOM      1  C   UNL     1       8.506   1.426  24.447  0.00  0.00    +0.097 A 
ATOM      2  C   UNL     1       7.752   1.150  25.599  0.00  0.00    +0.132 A 
ATOM      3  C   UNL     1       7.194  -0.117  25.820  0.00  0.00    +0.093 A 
ATOM      4  C   UNL     1       7.410  -1.148  24.899  0.00  0.00    +0.147 A 
ATOM      5  O   UNL     1       6.732  -2.325  25.108  0.00  0.00    -0.451 OA
ATOM      6  C   UNL     1       6.856  -3.328  24.164  0.00  0.00    +0.181 A 
ATOM      7  C   UNL     1       7.670  -3.291  23.094  0.00  0.00    +0.208 A 
ATOM      8  C   UNL     1       8.456  -2.051  22.856  0.00  0.00    +0.238 A 
ATOM      9  O   UNL     1       9.170  -1.960  21.860  0.00  0.00    -0.283 OA
ATOM     10  C   UNL     1       8.270  -0.948  23.826  0.00  0.00    +0.110 A 
ATOM     11  C   UNL     1       8.843   0.316  23.638  0.00  0.00    +0.143 A 
ENDROOT
BRANCH   1  14
ATOM     12  C   UNL     1       8.931   5.055  24.996  0.00  0.00    +0.197 C 
ATOM     13  O   UNL     1       8.693   3.670  25.183  0.00  0.00    -0.340 OA
ATOM     14  C   UNL     1       8.891   2.849  24.012  0.00  0.00    +0.230 C 
ATOM     15  C   UNL     1       8.042   3.352  22.798  0.00  0.00    +0.209 C 
ATOM     16  C   UNL     1       8.206   4.875  22.616  0.00  0.00    +0.179 C 
ATOM     17  C   UNL     1       8.012   5.629  23.932  0.00  0.00    +0.171 C 
BRANCH  14  18
ATOM     18  O   UNL     1      10.291   2.882  23.730  0.00  0.00    -0.359 OA
ATOM     19  H   UNL     1      10.748   3.327  24.458  0.00  0.00    +0.213 HD
ENDBRANCH  14  18
BRANCH  15  20
ATOM     20  O   UNL     1       8.437   2.713  21.567  0.00  0.00    -0.383 OA
ATOM     21  H   UNL     1       7.700   2.144  21.270  0.00  0.00    +0.210 HD
ENDBRANCH  15  20
BRANCH  16  22
ATOM     22  O   UNL     1       7.261   5.391  21.664  0.00  0.00    -0.386 OA
ATOM     23  H   UNL     1       7.003   6.269  22.006  0.00  0.00    +0.210 HD
ENDBRANCH  16  22
BRANCH  17  24
ATOM     24  O   UNL     1       8.299   7.014  23.719  0.00  0.00    -0.387 OA
ATOM     25  H   UNL     1       8.965   7.278  24.380  0.00  0.00    +0.210 HD
ENDBRANCH  17  24
ENDBRANCH   1  14
BRANCH   6  26
ATOM     26  C   UNL     1       5.969  -4.478  24.398  0.00  0.00    +0.025 A 
ATOM     27  C   UNL     1       6.096  -5.245  25.567  0.00  0.00    +0.015 A 
ATOM     28  C   UNL     1       5.318  -6.392  25.746  0.00  0.00    +0.050 A 
ATOM     29  C   UNL     1       4.420  -6.766  24.756  0.00  0.00    +0.158 A 
ATOM     30  C   UNL     1       4.287  -6.012  23.592  0.00  0.00    +0.159 A 
ATOM     31  C   UNL     1       5.055  -4.868  23.404  0.00  0.00    +0.060 A 
BRANCH  29  32
ATOM     32  O   UNL     1       3.670  -7.892  24.930  0.00  0.00    -0.503 OA
ATOM     33  H   UNL     1       4.283  -8.543  25.327  0.00  0.00    +0.292 HD
ENDBRANCH  29  32
BRANCH  30  34
ATOM     34  O   UNL     1       3.394  -6.451  22.654  0.00  0.00    -0.503 OA
ATOM     35  H   UNL     1       3.552  -7.397  22.492  0.00  0.00    +0.292 HD
ENDBRANCH  30  34
ENDBRANCH   6  26
BRANCH   2  36
ATOM     36  O   UNL     1       7.568   2.131  26.536  0.00  0.00    -0.506 OA
ATOM     37  H   UNL     1       6.653   2.093  26.867  0.00  0.00    +0.292 HD
ENDBRANCH   2  36
BRANCH   7  38
ATOM     38  O   UNL     1       7.805  -4.316  22.170  0.00  0.00    -0.501 OA
ATOM     39  H   UNL     1       6.993  -4.393  21.644  0.00  0.00    +0.292 HD
ENDBRANCH   7  38
BRANCH  11  40
ATOM     40  O   UNL     1       9.770   0.479  22.642  0.00  0.00    -0.505 OA
ATOM     41  H   UNL     1      10.427   1.117  22.983  0.00  0.00    +0.292 HD
ENDBRANCH  11  40
TORSDOF 11
ENDMDL
MODEL 5
REMARK VINA RESULT:      -6.9      1.577      9.313
REMARK  Name = 
REMARK  11 active torsions:
REMARK  status: ('A' for Active; 'I' for Inactive)
REMARK    1  A    between atoms: C_2  and  O_35
REMARK    2  A    between atoms: C_4  and  O_34
REMARK    3  A    between atoms: C_6  and  O_33
REMARK    4  A    between atoms: C_8  and  C_10
REMARK    5  A    between atoms: C_8  and  O_32
REMARK    6  A    between atoms: C_11  and  O_31
REMARK    7  A    between atoms: C_15  and  O_16
REMARK    8  A    between atoms: C_18  and  C_23
REMARK    9  A    between atoms: C_19  and  O_22
REMARK   10  A    between atoms: C_25  and  O_30
REMARK   11  A    between atoms: C_26  and  O_29
REMARK                            x       y       z     vdW  Elec       q    Type
REMARK                         _______ _______ _______ _____ _____    ______ ____
ROOT
ATOM      1  C   UNL     1       8.383   3.109  23.917  0.00  0.00    +0.097 A 
ATOM      2  C   UNL     1       7.012   3.056  23.620  0.00  0.00    +0.132 A 
ATOM      3  C   UNL     1       6.329   1.835  23.541  0.00  0.00    +0.093 A 
ATOM      4  C   UNL     1       7.006   0.636  23.790  0.00  0.00    +0.147 A 
ATOM      5  O   UNL     1       6.313  -0.530  23.570  0.00  0.00    -0.451 OA
ATOM      6  C   UNL     1       6.985  -1.730  23.720  0.00  0.00    +0.181 A 
ATOM      7  C   UNL     1       8.249  -1.860  24.163  0.00  0.00    +0.208 A 
ATOM      8  C   UNL     1       9.020  -0.623  24.456  0.00  0.00    +0.238 A 
ATOM      9  O   UNL     1      10.193  -0.701  24.811  0.00  0.00    -0.283 OA
ATOM     10  C   UNL     1       8.325   0.664  24.226  0.00  0.00    +0.110 A 
ATOM     11  C   UNL     1       8.982   1.897  24.330  0.00  0.00    +0.143 A 
ENDROOT
BRANCH   1  14
ATOM     12  C   UNL     1      11.533   4.904  23.201  0.00  0.00    +0.197 C 
ATOM     13  O   UNL     1      10.548   3.897  23.363  0.00  0.00    -0.340 OA
ATOM     14  C   UNL     1       9.237   4.374  23.734  0.00  0.00    +0.230 C 
ATOM     15  C   UNL     1       9.282   5.256  25.025  0.00  0.00    +0.209 C 
ATOM     16  C   UNL     1      10.402   6.310  24.922  0.00  0.00    +0.179 C 
ATOM     17  C   UNL     1      11.730   5.689  24.485  0.00  0.00    +0.171 C 
BRANCH  14  18
ATOM     18  O   UNL     1       8.743   5.105  22.610  0.00  0.00    -0.359 OA
ATOM     19  H   UNL     1       7.832   5.380  22.789  0.00  0.00    +0.213 HD
ENDBRANCH  14  18
BRANCH  15  20
ATOM     20  O   UNL     1       8.037   5.952  25.243  0.00  0.00    -0.383 OA
ATOM     21  H   UNL     1       8.064   6.351  26.134  0.00  0.00    +0.210 HD
ENDBRANCH  15  20
BRANCH  16  22
ATOM     22  O   UNL     1      10.614   6.970  26.182  0.00  0.00    -0.386 OA
ATOM     23  H   UNL     1      10.316   7.891  26.045  0.00  0.00    +0.210 HD
ENDBRANCH  16  22
BRANCH  17  24
ATOM     24  O   UNL     1      12.688   6.733  24.290  0.00  0.00    -0.387 OA
ATOM     25  H   UNL     1      12.568   7.376  25.014  0.00  0.00    +0.210 HD
ENDBRANCH  17  24
ENDBRANCH   1  14
BRANCH   6  26
ATOM     26  C   UNL     1       6.205  -2.906  23.308  0.00  0.00    +0.025 A 
ATOM     27  C   UNL     1       5.236  -3.450  24.166  0.00  0.00    +0.015 A 
ATOM     28  C   UNL     1       4.561  -4.622  23.815  0.00  0.00    +0.050 A 
ATOM     29  C   UNL     1       4.858  -5.242  22.610  0.00  0.00    +0.158 A 
ATOM     30  C   UNL     1       5.818  -4.711  21.751  0.00  0.00    +0.159 A 
ATOM     31  C   UNL     1       6.495  -3.545  22.090  0.00  0.00    +0.060 A 
BRANCH  29  32
ATOM     32  O   UNL     1       4.204  -6.392  22.276  0.00  0.00    -0.503 OA
ATOM     33  H   UNL     1       3.881  -6.241  21.365  0.00  0.00    +0.292 HD
ENDBRANCH  29  32
BRANCH  30  34
ATOM     34  O   UNL     1       6.068  -5.386  20.589  0.00  0.00    -0.503 OA
ATOM     35  H   UNL     1       5.227  -5.520  20.119  0.00  0.00    +0.292 HD
ENDBRANCH  30  34
ENDBRANCH   6  26
BRANCH   2  36
ATOM     36  O   UNL     1       6.319   4.221  23.420  0.00  0.00    -0.506 OA
ATOM     37  H   UNL     1       5.365   4.043  23.489  0.00  0.00    +0.292 HD
ENDBRANCH   2  36
BRANCH   7  38
ATOM     38  O   UNL     1       8.902  -3.072  24.334  0.00  0.00    -0.501 OA
ATOM     39  H   UNL     1       8.286  -3.730  24.692  0.00  0.00    +0.292 HD
ENDBRANCH   7  38
BRANCH  11  40
ATOM     40  O   UNL     1      10.245   1.928  24.860  0.00  0.00    -0.505 OA
ATOM     41  H   UNL     1      10.751   1.229  24.400  0.00  0.00    +0.292 HD
ENDBRANCH  11  40
TORSDOF 11
ENDMDL
MODEL 6
REMARK VINA RESULT:      -6.8      2.402      9.652
REMARK  Name = 
REMARK  11 active torsions:
REMARK  status: ('A' for Active; 'I' for Inactive)
REMARK    1  A    between atoms: C_2  and  O_35
REMARK    2  A    between atoms: C_4  and  O_34
REMARK    3  A    between atoms: C_6  and  O_33
REMARK    4  A    between atoms: C_8  and  C_10
REMARK    5  A    between atoms: C_8  and  O_32
REMARK    6  A    between atoms: C_11  and  O_31
REMARK    7  A    between atoms: C_15  and  O_16
REMARK    8  A    between atoms: C_18  and  C_23
REMARK    9  A    between atoms: C_19  and  O_22
REMARK   10  A    between atoms: C_25  and  O_30
REMARK   11  A    between atoms: C_26  and  O_29
REMARK                            x       y       z     vdW  Elec       q    Type
REMARK                         _______ _______ _______ _____ _____    ______ ____
ROOT
ATOM      1  C   UNL     1       8.821  -1.780  24.144  0.00  0.00    +0.097 A 
ATOM      2  C   UNL     1       8.258  -1.735  25.430  0.00  0.00    +0.132 A 
ATOM      3  C   UNL     1       7.236  -2.617  25.810  0.00  0.00    +0.093 A 
ATOM      4  C   UNL     1       6.779  -3.588  24.913  0.00  0.00    +0.147 A 
ATOM      5  O   UNL     1       5.692  -4.334  25.301  0.00  0.00    -0.451 OA
ATOM      6  C   UNL     1       5.162  -5.237  24.397  0.00  0.00    +0.181 A 
ATOM      7  C   UNL     1       5.684  -5.525  23.191  0.00  0.00    +0.208 A 
ATOM      8  C   UNL     1       6.888  -4.771  22.751  0.00  0.00    +0.238 A 
ATOM      9  O   UNL     1       7.361  -4.968  21.635  0.00  0.00    -0.283 OA
ATOM     10  C   UNL     1       7.413  -3.751  23.688  0.00  0.00    +0.110 A 
ATOM     11  C   UNL     1       8.453  -2.881  23.337  0.00  0.00    +0.143 A 
ENDROOT
BRANCH   1  14
ATOM     12  C   UNL     1      10.946   1.228  24.436  0.00  0.00    +0.197 C 
ATOM     13  O   UNL     1      10.144   0.097  24.728  0.00  0.00    -0.340 OA
ATOM     14  C   UNL     1       9.722  -0.670  23.580  0.00  0.00    +0.230 C 
ATOM     15  C   UNL     1       8.985   0.219  22.525  0.00  0.00    +0.209 C 
ATOM     16  C   UNL     1       9.787   1.506  22.245  0.00  0.00    +0.179 C 
ATOM     17  C   UNL     1      10.209   2.206  23.538  0.00  0.00    +0.171 C 
BRANCH  14  18
ATOM     18  O   UNL     1      10.903  -1.265  23.039  0.00  0.00    -0.359 OA
ATOM     19  H   UNL     1      11.277  -0.673  22.371  0.00  0.00    +0.213 HD
ENDBRANCH  14  18
BRANCH  15  20
ATOM     20  O   UNL     1       8.806  -0.473  21.272  0.00  0.00    -0.383 OA
ATOM     21  H   UNL     1       8.916  -1.430  21.434  0.00  0.00    +0.210 HD
ENDBRANCH  15  20
BRANCH  16  22
ATOM     22  O   UNL     1       9.022   2.438  21.464  0.00  0.00    -0.386 OA
ATOM     23  H   UNL     1       8.250   2.668  22.018  0.00  0.00    +0.210 HD
ENDBRANCH  16  22
BRANCH  17  24
ATOM     24  O   UNL     1      11.050   3.316  23.211  0.00  0.00    -0.387 OA
ATOM     25  H   UNL     1      11.423   3.147  22.326  0.00  0.00    +0.210 HD
ENDBRANCH  17  24
ENDBRANCH   1  14
BRANCH   6  26
ATOM     26  C   UNL     1       3.911  -5.866  24.847  0.00  0.00    +0.025 A 
ATOM     27  C   UNL     1       2.877  -5.082  25.384  0.00  0.00    +0.015 A 
ATOM     28  C   UNL     1       1.727  -5.687  25.898  0.00  0.00    +0.050 A 
ATOM     29  C   UNL     1       1.618  -7.070  25.873  0.00  0.00    +0.158 A 
ATOM     30  C   UNL     1       2.638  -7.857  25.343  0.00  0.00    +0.159 A 
ATOM     31  C   UNL     1       3.786  -7.266  24.828  0.00  0.00    +0.060 A 
BRANCH  29  32
ATOM     32  O   UNL     1       0.498  -7.657  26.385  0.00  0.00    -0.503 OA
ATOM     33  H   UNL     1      -0.188  -7.528  25.700  0.00  0.00    +0.292 HD
ENDBRANCH  29  32
BRANCH  30  34
ATOM     34  O   UNL     1       2.467  -9.213  25.367  0.00  0.00    -0.503 OA
ATOM     35  H   UNL     1       2.426  -9.539  24.452  0.00  0.00    +0.292 HD
ENDBRANCH  30  34
ENDBRANCH   6  26
BRANCH   2  36
ATOM     36  O   UNL     1       8.724  -0.824  26.340  0.00  0.00    -0.506 OA
ATOM     37  H   UNL     1       8.174  -0.859  27.142  0.00  0.00    +0.292 HD
ENDBRANCH   2  36
BRANCH   7  38
ATOM     38  O   UNL     1       5.157  -6.453  22.306  0.00  0.00    -0.501 OA
ATOM     39  H   UNL     1       5.714  -6.505  21.513  0.00  0.00    +0.292 HD
ENDBRANCH   7  38
BRANCH  11  40
ATOM     40  O   UNL     1       9.144  -3.112  22.177  0.00  0.00    -0.505 OA
ATOM     41  H   UNL     1       9.017  -4.059  21.968  0.00  0.00    +0.292 HD
ENDBRANCH  11  40
TORSDOF 11
ENDMDL
MODEL 7
REMARK VINA RESULT:      -6.7      2.624     10.087
REMARK  Name = 
REMARK  11 active torsions:
REMARK  status: ('A' for Active; 'I' for Inactive)
REMARK    1  A    between atoms: C_2  and  O_35
REMARK    2  A    between atoms: C_4  and  O_34
REMARK    3  A    between atoms: C_6  and  O_33
REMARK    4  A    between atoms: C_8  and  C_10
REMARK    5  A    between atoms: C_8  and  O_32
REMARK    6  A    between atoms: C_11  and  O_31
REMARK    7  A    between atoms: C_15  and  O_16
REMARK    8  A    between atoms: C_18  and  C_23
REMARK    9  A    between atoms: C_19  and  O_22
REMARK   10  A    between atoms: C_25  and  O_30
REMARK   11  A    between atoms: C_26  and  O_29
REMARK                            x       y       z     vdW  Elec       q    Type
REMARK                         _______ _______ _______ _____ _____    ______ ____
ROOT
ATOM      1  C   UNL     1       6.589  -1.099  24.288  0.00  0.00    +0.097 A 
ATOM      2  C   UNL     1       5.626  -1.233  25.301  0.00  0.00    +0.132 A 
ATOM      3  C   UNL     1       4.865  -2.403  25.434  0.00  0.00    +0.093 A 
ATOM      4  C   UNL     1       5.078  -3.481  24.568  0.00  0.00    +0.147 A 
ATOM      5  O   UNL     1       4.214  -4.544  24.669  0.00  0.00    -0.451 OA
ATOM      6  C   UNL     1       4.345  -5.582  23.764  0.00  0.00    +0.181 A 
ATOM      7  C   UNL     1       5.320  -5.690  22.842  0.00  0.00    +0.208 A 
ATOM      8  C   UNL     1       6.303  -4.580  22.730  0.00  0.00    +0.238 A 
ATOM      9  O   UNL     1       7.174  -4.618  21.865  0.00  0.00    -0.283 OA
ATOM     10  C   UNL     1       6.120  -3.434  23.650  0.00  0.00    +0.110 A 
ATOM     11  C   UNL     1       6.891  -2.268  23.552  0.00  0.00    +0.143 A 
ENDROOT
BRANCH   1  14
ATOM     12  C   UNL     1       8.019   1.339  21.909  0.00  0.00    +0.197 C 
ATOM     13  O   UNL     1       7.377   0.211  22.478  0.00  0.00    -0.340 OA
ATOM     14  C   UNL     1       7.238   0.243  23.915  0.00  0.00    +0.230 C 
ATOM     15  C   UNL     1       8.612   0.461  24.628  0.00  0.00    +0.209 C 
ATOM     16  C   UNL     1       9.382   1.628  23.978  0.00  0.00    +0.179 C 
ATOM     17  C   UNL     1       9.427   1.501  22.455  0.00  0.00    +0.171 C 
BRANCH  14  18
ATOM     18  O   UNL     1       6.317   1.297  24.206  0.00  0.00    -0.359 OA
ATOM     19  H   UNL     1       5.415   0.953  24.142  0.00  0.00    +0.213 HD
ENDBRANCH  14  18
BRANCH  15  20
ATOM     20  O   UNL     1       8.447   0.764  26.029  0.00  0.00    -0.383 OA
ATOM     21  H   UNL     1       8.633  -0.048  26.540  0.00  0.00    +0.210 HD
ENDBRANCH  15  20
BRANCH  16  22
ATOM     22  O   UNL     1      10.735   1.692  24.459  0.00  0.00    -0.386 OA
ATOM     23  H   UNL     1      11.257   2.056  23.717  0.00  0.00    +0.210 HD
ENDBRANCH  16  22
BRANCH  17  24
ATOM     24  O   UNL     1      10.043   2.671  21.910  0.00  0.00    -0.387 OA
ATOM     25  H   UNL     1      10.069   3.342  22.618  0.00  0.00    +0.210 HD
ENDBRANCH  17  24
ENDBRANCH   1  14
BRANCH   6  26
ATOM     26  C   UNL     1       3.278  -6.590  23.854  0.00  0.00    +0.025 A 
ATOM     27  C   UNL     1       3.238  -7.486  24.935  0.00  0.00    +0.015 A 
ATOM     28  C   UNL     1       2.281  -8.502  24.973  0.00  0.00    +0.050 A 
ATOM     29  C   UNL     1       1.370  -8.618  23.933  0.00  0.00    +0.158 A 
ATOM     30  C   UNL     1       1.401  -7.735  22.856  0.00  0.00    +0.159 A 
ATOM     31  C   UNL     1       2.349  -6.719  22.808  0.00  0.00    +0.060 A 
BRANCH  29  32
ATOM     32  O   UNL     1       0.443  -9.619  23.970  0.00  0.00    -0.503 OA
ATOM     33  H   UNL     1      -0.204  -9.386  23.274  0.00  0.00    +0.292 HD
ENDBRANCH  29  32
BRANCH  30  34
ATOM     34  O   UNL     1       0.482  -7.921  21.860  0.00  0.00    -0.503 OA
ATOM     35  H   UNL     1       0.241  -7.053  21.493  0.00  0.00    +0.292 HD
ENDBRANCH  30  34
ENDBRANCH   6  26
BRANCH   2  36
ATOM     36  O   UNL     1       5.434  -0.209  26.190  0.00  0.00    -0.506 OA
ATOM     37  H   UNL     1       4.784   0.417  25.825  0.00  0.00    +0.292 HD
ENDBRANCH   2  36
BRANCH   7  38
ATOM     38  O   UNL     1       5.455  -6.750  21.959  0.00  0.00    -0.501 OA
ATOM     39  H   UNL     1       5.584  -7.575  22.453  0.00  0.00    +0.292 HD
ENDBRANCH   7  38
BRANCH  11  40
ATOM     40  O   UNL     1       7.981  -2.265  22.721  0.00  0.00    -0.505 OA
ATOM     41  H   UNL     1       8.395  -3.146  22.813  0.00  0.00    +0.292 HD
ENDBRANCH  11  40
TORSDOF 11
ENDMDL
MODEL 8
REMARK VINA RESULT:      -6.6      2.600      9.880
REMARK  Name = 
REMARK  11 active torsions:
REMARK  status: ('A' for Active; 'I' for Inactive)
REMARK    1  A    between atoms: C_2  and  O_35
REMARK    2  A    between atoms: C_4  and  O_34
REMARK    3  A    between atoms: C_6  and  O_33
REMARK    4  A    between atoms: C_8  and  C_10
REMARK    5  A    between atoms: C_8  and  O_32
REMARK    6  A    between atoms: C_11  and  O_31
REMARK    7  A    between atoms: C_15  and  O_16
REMARK    8  A    between atoms: C_18  and  C_23
REMARK    9  A    between atoms: C_19  and  O_22
REMARK   10  A    between atoms: C_25  and  O_30
REMARK   11  A    between atoms: C_26  and  O_29
REMARK                            x       y       z     vdW  Elec       q    Type
REMARK                         _______ _______ _______ _____ _____    ______ ____
ROOT
ATOM      1  C   UNL     1       7.535  -0.236  25.152  0.00  0.00    +0.097 A 
ATOM      2  C   UNL     1       6.194  -0.172  24.740  0.00  0.00    +0.132 A 
ATOM      3  C   UNL     1       5.339  -1.276  24.863  0.00  0.00    +0.093 A 
ATOM      4  C   UNL     1       5.808  -2.465  25.435  0.00  0.00    +0.147 A 
ATOM      5  O   UNL     1       4.961  -3.546  25.408  0.00  0.00    -0.451 OA
ATOM      6  C   UNL     1       5.432  -4.758  25.883  0.00  0.00    +0.181 A 
ATOM      7  C   UNL     1       6.629  -4.950  26.467  0.00  0.00    +0.208 A 
ATOM      8  C   UNL     1       7.558  -3.793  26.556  0.00  0.00    +0.238 A 
ATOM      9  O   UNL     1       8.679  -3.943  27.034  0.00  0.00    -0.283 OA
ATOM     10  C   UNL     1       7.084  -2.513  25.982  0.00  0.00    +0.110 A 
ATOM     11  C   UNL     1       7.914  -1.388  25.878  0.00  0.00    +0.143 A 
ENDROOT
BRANCH   1  14
ATOM     12  C   UNL     1       8.759   3.236  24.832  0.00  0.00    +0.197 C 
ATOM     13  O   UNL     1       7.986   2.091  25.146  0.00  0.00    -0.340 OA
ATOM     14  C   UNL     1       8.582   0.827  24.782  0.00  0.00    +0.230 C 
ATOM     15  C   UNL     1       8.969   0.781  23.267  0.00  0.00    +0.209 C 
ATOM     16  C   UNL     1       9.739   2.055  22.865  0.00  0.00    +0.179 C 
ATOM     17  C   UNL     1       9.028   3.323  23.340  0.00  0.00    +0.171 C 
BRANCH  14  18
ATOM     18  O   UNL     1       9.723   0.664  25.625  0.00  0.00    -0.359 OA
ATOM     19  H   UNL     1      10.276   1.456  25.564  0.00  0.00    +0.213 HD
ENDBRANCH  14  18
BRANCH  15  20
ATOM     20  O   UNL     1       9.803  -0.356  22.961  0.00  0.00    -0.383 OA
ATOM     21  H   UNL     1       9.388  -0.847  22.225  0.00  0.00    +0.210 HD
ENDBRANCH  15  20
BRANCH  16  22
ATOM     22  O   UNL     1       9.897   2.141  21.440  0.00  0.00    -0.386 OA
ATOM     23  H   UNL     1      10.628   2.774  21.298  0.00  0.00    +0.210 HD
ENDBRANCH  16  22
BRANCH  17  24
ATOM     24  O   UNL     1       9.852   4.455  23.046  0.00  0.00    -0.387 OA
ATOM     25  H   UNL     1      10.526   4.164  22.404  0.00  0.00    +0.210 HD
ENDBRANCH  17  24
ENDBRANCH   1  14
BRANCH   6  26
ATOM     26  C   UNL     1       4.510  -5.882  25.663  0.00  0.00    +0.025 A 
ATOM     27  C   UNL     1       4.378  -6.453  24.387  0.00  0.00    +0.015 A 
ATOM     28  C   UNL     1       3.435  -7.458  24.158  0.00  0.00    +0.050 A 
ATOM     29  C   UNL     1       2.629  -7.885  25.203  0.00  0.00    +0.158 A 
ATOM     30  C   UNL     1       2.751  -7.325  26.473  0.00  0.00    +0.159 A 
ATOM     31  C   UNL     1       3.687  -6.325  26.713  0.00  0.00    +0.060 A 
BRANCH  29  32
ATOM     32  O   UNL     1       1.703  -8.859  24.972  0.00  0.00    -0.503 OA
ATOM     33  H   UNL     1       2.186  -9.554  24.482  0.00  0.00    +0.292 HD
ENDBRANCH  29  32
BRANCH  30  34
ATOM     34  O   UNL     1       1.912  -7.786  27.449  0.00  0.00    -0.503 OA
ATOM     35  H   UNL     1       1.673  -8.706  27.246  0.00  0.00    +0.292 HD
ENDBRANCH  30  34
ENDBRANCH   6  26
BRANCH   2  36
ATOM     36  O   UNL     1       5.702   0.997  24.223  0.00  0.00    -0.506 OA
ATOM     37  H   UNL     1       5.247   0.810  23.382  0.00  0.00    +0.292 HD
ENDBRANCH   2  36
BRANCH   7  38
ATOM     38  O   UNL     1       7.077  -6.165  26.963  0.00  0.00    -0.501 OA
ATOM     39  H   UNL     1       7.989  -6.323  26.672  0.00  0.00    +0.292 HD
ENDBRANCH   7  38
BRANCH  11  40
ATOM     40  O   UNL     1       9.129  -1.405  26.511  0.00  0.00    -0.505 OA
ATOM     41  H   UNL     1       9.085  -2.128  27.166  0.00  0.00    +0.292 HD
ENDBRANCH  11  40
TORSDOF 11
ENDMDL
MODEL 9
REMARK VINA RESULT:      -6.4      2.023      9.033
REMARK  Name = 
REMARK  11 active torsions:
REMARK  status: ('A' for Active; 'I' for Inactive)
REMARK    1  A    between atoms: C_2  and  O_35
REMARK    2  A    between atoms: C_4  and  O_34
REMARK    3  A    between atoms: C_6  and  O_33
REMARK    4  A    between atoms: C_8  and  C_10
REMARK    5  A    between atoms: C_8  and  O_32
REMARK    6  A    between atoms: C_11  and  O_31
REMARK    7  A    between atoms: C_15  and  O_16
REMARK    8  A    between atoms: C_18  and  C_23
REMARK    9  A    between atoms: C_19  and  O_22
REMARK   10  A    between atoms: C_25  and  O_30
REMARK   11  A    between atoms: C_26  and  O_29
REMARK                            x       y       z     vdW  Elec       q    Type
REMARK                         _______ _______ _______ _____ _____    ______ ____
ROOT
ATOM      1  C   UNL     1       9.284   0.537  23.612  0.00  0.00    +0.097 A 
ATOM      2  C   UNL     1       9.872   0.053  24.792  0.00  0.00    +0.132 A 
ATOM      3  C   UNL     1       9.397  -1.106  25.422  0.00  0.00    +0.093 A 
ATOM      4  C   UNL     1       8.337  -1.824  24.859  0.00  0.00    +0.147 A 
ATOM      5  O   UNL     1       7.836  -2.874  25.591  0.00  0.00    -0.451 OA
ATOM      6  C   UNL     1       6.729  -3.544  25.102  0.00  0.00    +0.181 A 
ATOM      7  C   UNL     1       6.150  -3.318  23.908  0.00  0.00    +0.208 A 
ATOM      8  C   UNL     1       6.690  -2.219  23.065  0.00  0.00    +0.238 A 
ATOM      9  O   UNL     1       6.155  -1.949  21.993  0.00  0.00    -0.283 OA
ATOM     10  C   UNL     1       7.830  -1.453  23.620  0.00  0.00    +0.110 A 
ATOM     11  C   UNL     1       8.338  -0.310  22.990  0.00  0.00    +0.143 A 
ENDROOT
BRANCH   1  14
ATOM     12  C   UNL     1      11.203   3.684  23.359  0.00  0.00    +0.197 C 
ATOM     13  O   UNL     1      10.781   2.373  23.689  0.00  0.00    -0.340 OA
ATOM     14  C   UNL     1       9.565   1.938  23.044  0.00  0.00    +0.230 C 
ATOM     15  C   UNL     1       8.384   2.932  23.297  0.00  0.00    +0.209 C 
ATOM     16  C   UNL     1       8.831   4.383  23.031  0.00  0.00    +0.179 C 
ATOM     17  C   UNL     1      10.149   4.710  23.735  0.00  0.00    +0.171 C 
BRANCH  14  18
ATOM     18  O   UNL     1       9.869   1.819  21.653  0.00  0.00    -0.359 OA
ATOM     19  H   UNL     1      10.806   2.020  21.517  0.00  0.00    +0.213 HD
ENDBRANCH  14  18
BRANCH  15  20
ATOM     20  O   UNL     1       7.256   2.652  22.442  0.00  0.00    -0.383 OA
ATOM     21  H   UNL     1       7.077   3.448  21.904  0.00  0.00    +0.210 HD
ENDBRANCH  15  20
BRANCH  16  22
ATOM     22  O   UNL     1       7.842   5.324  23.480  0.00  0.00    -0.386 OA
ATOM     23  H   UNL     1       7.230   4.808  24.041  0.00  0.00    +0.210 HD
ENDBRANCH  16  22
BRANCH  17  24
ATOM     24  O   UNL     1      10.568   6.022  23.349  0.00  0.00    -0.387 OA
ATOM     25  H   UNL     1      10.283   6.159  22.427  0.00  0.00    +0.210 HD
ENDBRANCH  17  24
ENDBRANCH   1  14
BRANCH   6  26
ATOM     26  C   UNL     1       6.177  -4.541  26.032  0.00  0.00    +0.025 A 
ATOM     27  C   UNL     1       6.516  -4.505  27.393  0.00  0.00    +0.015 A 
ATOM     28  C   UNL     1       6.068  -5.506  28.259  0.00  0.00    +0.050 A 
ATOM     29  C   UNL     1       5.285  -6.536  27.759  0.00  0.00    +0.158 A 
ATOM     30  C   UNL     1       4.943  -6.582  26.409  0.00  0.00    +0.159 A 
ATOM     31  C   UNL     1       5.383  -5.590  25.539  0.00  0.00    +0.060 A 
BRANCH  29  32
ATOM     32  O   UNL     1       4.858  -7.517  28.605  0.00  0.00    -0.503 OA
ATOM     33  H   UNL     1       5.093  -7.197  29.499  0.00  0.00    +0.292 HD
ENDBRANCH  29  32
BRANCH  30  34
ATOM     34  O   UNL     1       4.182  -7.636  25.986  0.00  0.00    -0.503 OA
ATOM     35  H   UNL     1       3.622  -7.932  26.723  0.00  0.00    +0.292 HD
ENDBRANCH  30  34
ENDBRANCH   6  26
BRANCH   2  36
ATOM     36  O   UNL     1      10.943   0.714  25.333  0.00  0.00    -0.506 OA
ATOM     37  H   UNL     1      11.726   0.572  24.773  0.00  0.00    +0.292 HD
ENDBRANCH   2  36
BRANCH   7  38
ATOM     38  O   UNL     1       5.057  -4.016  23.419  0.00  0.00    -0.501 OA
ATOM     39  H   UNL     1       4.298  -3.417  23.328  0.00  0.00    +0.292 HD
ENDBRANCH   7  38
BRANCH  11  40
ATOM     40  O   UNL     1       7.911  -0.009  21.724  0.00  0.00    -0.505 OA
ATOM     41  H   UNL     1       8.710   0.235  21.217  0.00  0.00    +0.292 HD
ENDBRANCH  11  40
TORSDOF 11
ENDMDL
