MODEL 1
REMARK VINA RESULT:      -8.0      0.000      0.000
REMARK  Name = 
REMARK  10 active torsions:
REMARK  status: ('A' for Active; 'I' for Inactive)
REMARK    1  A    between atoms: C_1  and  C_2
REMARK    2  A    between atoms: C_2  and  C_4
REMARK    3  A    between atoms: C_4  and  O_6
REMARK    4  A    between atoms: O_6  and  C_7
REMARK    5  A    between atoms: C_8  and  O_28
REMARK    6  A    between atoms: C_12  and  O_13
REMARK    7  A    between atoms: C_15  and  C_20
REMARK    8  A    between atoms: C_16  and  O_19
REMARK    9  A    between atoms: C_22  and  O_27
REMARK   10  A    between atoms: C_23  and  O_26
REMARK                            x       y       z     vdW  Elec       q    Type
REMARK                         _______ _______ _______ _____ _____    ______ ____
ROOT
ATOM      1  C   UNL     1       8.239  -2.181  23.483  0.00  0.00    +0.215 A 
ATOM      2  C   UNL     1       9.581  -2.109  23.859  0.00  0.00    +0.166 A 
ATOM      3  C   UNL     1      10.223  -0.875  23.943  0.00  0.00    +0.096 A 
ATOM      4  C   UNL     1       9.524   0.293  23.609  0.00  0.00    +0.147 A 
ATOM      5  O   UNL     1      10.214   1.481  23.735  0.00  0.00    -0.451 OA
ATOM      6  C   UNL     1       9.585   2.666  23.367  0.00  0.00    +0.181 A 
ATOM      7  C   UNL     1       8.351   2.707  22.818  0.00  0.00    +0.208 A 
ATOM      8  C   UNL     1       7.557   1.461  22.701  0.00  0.00    +0.238 A 
ATOM      9  O   UNL     1       6.443   1.491  22.193  0.00  0.00    -0.283 OA
ATOM     10  C   UNL     1       8.200   0.217  23.161  0.00  0.00    +0.113 A 
ATOM     11  C   UNL     1       7.553  -1.028  23.100  0.00  0.00    +0.178 A 
ENDROOT
BRANCH   6  12
ATOM     12  C   UNL     1      10.407   3.900  23.557  0.00  0.00    +0.025 A 
ATOM     13  C   UNL     1       9.890   5.052  24.179  0.00  0.00    +0.015 A 
ATOM     14  C   UNL     1      10.719   6.149  24.474  0.00  0.00    +0.050 A 
ATOM     15  C   UNL     1      12.069   6.086  24.167  0.00  0.00    +0.158 A 
ATOM     16  C   UNL     1      12.588   4.982  23.508  0.00  0.00    +0.159 A 
ATOM     17  C   UNL     1      11.757   3.927  23.152  0.00  0.00    +0.060 A 
BRANCH  15  18
ATOM     18  O   UNL     1      12.897   7.108  24.533  0.00  0.00    -0.503 OA
ATOM     19  H   UNL     1      13.388   7.335  23.717  0.00  0.00    +0.292 HD
ENDBRANCH  15  18
BRANCH  16  20
ATOM     20  O   UNL     1      13.933   4.948  23.268  0.00  0.00    -0.503 OA
ATOM     21  H   UNL     1      14.171   4.045  22.991  0.00  0.00    +0.292 HD
ENDBRANCH  16  20
ENDBRANCH   6  12
BRANCH   2  22
ATOM     22  O   UNL     1      10.264  -3.270  24.105  0.00  0.00    -0.503 OA
ATOM     23  H   UNL     1       9.974  -3.954  23.477  0.00  0.00    +0.292 HD
ENDBRANCH   2  22
BRANCH   7  24
ATOM     24  O   UNL     1       7.756   3.854  22.322  0.00  0.00    -0.501 OA
ATOM     25  H   UNL     1       7.407   4.348  23.083  0.00  0.00    +0.292 HD
ENDBRANCH   7  24
BRANCH  11  26
ATOM     26  O   UNL     1       6.268  -1.136  22.648  0.00  0.00    -0.503 OA
ATOM     27  H   UNL     1       5.659  -1.084  23.404  0.00  0.00    +0.292 HD
ENDBRANCH  11  26
BRANCH   1  28
ATOM     28  O   UNL     1       7.592  -3.416  23.319  0.00  0.00    -0.413 OA
BRANCH  28  29
ATOM     29  C   UNL     1       6.838  -3.797  24.405  0.00  0.00    +0.380 C 
ATOM     30  O   UNL     1       5.753  -3.360  24.764  0.00  0.00    -0.241 OA
BRANCH  29  32
ATOM     31  C   UNL     1       7.191  -5.126  26.577  0.00  0.00    +0.099 C 
ATOM     32  C   UNL     1       7.611  -4.881  25.158  0.00  0.00    +0.237 C 
ATOM     33  O   UNL     1       8.524  -5.496  24.619  0.00  0.00    -0.285 OA
ENDBRANCH  29  32
ENDBRANCH  28  29
ENDBRANCH   1  28
TORSDOF 9
ENDMDL
MODEL 2
REMARK VINA RESULT:      -7.5      2.012      9.202
REMARK  Name = 
REMARK  10 active torsions:
REMARK  status: ('A' for Active; 'I' for Inactive)
REMARK    1  A    between atoms: C_1  and  C_2
REMARK    2  A    between atoms: C_2  and  C_4
REMARK    3  A    between atoms: C_4  and  O_6
REMARK    4  A    between atoms: O_6  and  C_7
REMARK    5  A    between atoms: C_8  and  O_28
REMARK    6  A    between atoms: C_12  and  O_13
REMARK    7  A    between atoms: C_15  and  C_20
REMARK    8  A    between atoms: C_16  and  O_19
REMARK    9  A    between atoms: C_22  and  O_27
REMARK   10  A    between atoms: C_23  and  O_26
REMARK                            x       y       z     vdW  Elec       q    Type
REMARK                         _______ _______ _______ _____ _____    ______ ____
ROOT
ATOM      1  C   UNL     1       8.462   0.615  22.804  0.00  0.00    +0.215 A 
ATOM      2  C   UNL     1       7.066   0.563  22.802  0.00  0.00    +0.166 A 
ATOM      3  C   UNL     1       6.405  -0.586  23.230  0.00  0.00    +0.096 A 
ATOM      4  C   UNL     1       7.147  -1.706  23.627  0.00  0.00    +0.147 A 
ATOM      5  O   UNL     1       6.427  -2.801  24.058  0.00  0.00    -0.451 OA
ATOM      6  C   UNL     1       7.112  -3.958  24.413  0.00  0.00    +0.181 A 
ATOM      7  C   UNL     1       8.451  -4.093  24.286  0.00  0.00    +0.208 A 
ATOM      8  C   UNL     1       9.269  -2.930  23.864  0.00  0.00    +0.238 A 
ATOM      9  O   UNL     1      10.481  -3.050  23.734  0.00  0.00    -0.283 OA
ATOM     10  C   UNL     1       8.545  -1.683  23.559  0.00  0.00    +0.113 A 
ATOM     11  C   UNL     1       9.206  -0.514  23.148  0.00  0.00    +0.178 A 
ENDROOT
BRANCH   6  12
ATOM     12  C   UNL     1       6.247  -5.082  24.886  0.00  0.00    +0.025 A 
ATOM     13  C   UNL     1       6.100  -5.386  26.253  0.00  0.00    +0.015 A 
ATOM     14  C   UNL     1       5.174  -6.354  26.683  0.00  0.00    +0.050 A 
ATOM     15  C   UNL     1       4.381  -7.002  25.749  0.00  0.00    +0.158 A 
ATOM     16  C   UNL     1       4.546  -6.754  24.395  0.00  0.00    +0.159 A 
ATOM     17  C   UNL     1       5.509  -5.851  23.963  0.00  0.00    +0.060 A 
BRANCH  15  18
ATOM     18  O   UNL     1       3.417  -7.875  26.165  0.00  0.00    -0.503 OA
ATOM     19  H   UNL     1       3.212  -8.415  25.375  0.00  0.00    +0.292 HD
ENDBRANCH  15  18
BRANCH  16  20
ATOM     20  O   UNL     1       3.710  -7.384  23.517  0.00  0.00    -0.503 OA
ATOM     21  H   UNL     1       4.030  -7.213  22.613  0.00  0.00    +0.292 HD
ENDBRANCH  16  20
ENDBRANCH   6  12
BRANCH   2  22
ATOM     22  O   UNL     1       6.364   1.642  22.337  0.00  0.00    -0.503 OA
ATOM     23  H   UNL     1       6.959   2.409  22.266  0.00  0.00    +0.292 HD
ENDBRANCH   2  22
BRANCH   7  24
ATOM     24  O   UNL     1       9.141  -5.272  24.505  0.00  0.00    -0.501 OA
ATOM     25  H   UNL     1       8.895  -5.588  25.392  0.00  0.00    +0.292 HD
ENDBRANCH   7  24
BRANCH  11  26
ATOM     26  O   UNL     1      10.569  -0.468  23.053  0.00  0.00    -0.503 OA
ATOM     27  H   UNL     1      10.931  -1.352  23.237  0.00  0.00    +0.292 HD
ENDBRANCH  11  26
BRANCH   1  28
ATOM     28  O   UNL     1       9.151   1.731  22.308  0.00  0.00    -0.413 OA
BRANCH  28  29
ATOM     29  C   UNL     1       9.700   2.527  23.287  0.00  0.00    +0.380 C 
ATOM     30  O   UNL     1      10.747   2.361  23.898  0.00  0.00    -0.241 OA
BRANCH  29  32
ATOM     31  C   UNL     1       8.807   4.316  24.901  0.00  0.00    +0.099 C 
ATOM     32  C   UNL     1       8.741   3.692  23.540  0.00  0.00    +0.237 C 
ATOM     33  O   UNL     1       7.966   4.072  22.670  0.00  0.00    -0.285 OA
ENDBRANCH  29  32
ENDBRANCH  28  29
ENDBRANCH   1  28
TORSDOF 9
ENDMDL
MODEL 3
REMARK VINA RESULT:      -7.4      1.901      8.540
REMARK  Name = 
REMARK  10 active torsions:
REMARK  status: ('A' for Active; 'I' for Inactive)
REMARK    1  A    between atoms: C_1  and  C_2
REMARK    2  A    between atoms: C_2  and  C_4
REMARK    3  A    between atoms: C_4  and  O_6
REMARK    4  A    between atoms: O_6  and  C_7
REMARK    5  A    between atoms: C_8  and  O_28
REMARK    6  A    between atoms: C_12  and  O_13
REMARK    7  A    between atoms: C_15  and  C_20
REMARK    8  A    between atoms: C_16  and  O_19
REMARK    9  A    between atoms: C_22  and  O_27
REMARK   10  A    between atoms: C_23  and  O_26
REMARK                            x       y       z     vdW  Elec       q    Type
REMARK                         _______ _______ _______ _____ _____    ______ ____
ROOT
ATOM      1  C   UNL     1       9.279   3.248  23.704  0.00  0.00    +0.215 A 
ATOM      2  C   UNL     1       8.543   3.185  24.889  0.00  0.00    +0.166 A 
ATOM      3  C   UNL     1       8.032   1.968  25.335  0.00  0.00    +0.096 A 
ATOM      4  C   UNL     1       8.225   0.811  24.568  0.00  0.00    +0.147 A 
ATOM      5  O   UNL     1       7.710  -0.361  25.080  0.00  0.00    -0.451 OA
ATOM      6  C   UNL     1       7.828  -1.529  24.334  0.00  0.00    +0.181 A 
ATOM      7  C   UNL     1       8.359  -1.562  23.092  0.00  0.00    +0.208 A 
ATOM      8  C   UNL     1       8.961  -0.334  22.518  0.00  0.00    +0.238 A 
ATOM      9  O   UNL     1       9.432  -0.355  21.388  0.00  0.00    -0.283 OA
ATOM     10  C   UNL     1       8.900   0.885  23.343  0.00  0.00    +0.113 A 
ATOM     11  C   UNL     1       9.432   2.111  22.910  0.00  0.00    +0.178 A 
ENDROOT
BRANCH   6  12
ATOM     12  C   UNL     1       7.256  -2.749  24.982  0.00  0.00    +0.025 A 
ATOM     13  C   UNL     1       5.970  -3.227  24.668  0.00  0.00    +0.015 A 
ATOM     14  C   UNL     1       5.508  -4.452  25.182  0.00  0.00    +0.050 A 
ATOM     15  C   UNL     1       6.340  -5.209  25.993  0.00  0.00    +0.158 A 
ATOM     16  C   UNL     1       7.590  -4.733  26.355  0.00  0.00    +0.159 A 
ATOM     17  C   UNL     1       8.021  -3.490  25.906  0.00  0.00    +0.060 A 
BRANCH  15  18
ATOM     18  O   UNL     1       5.934  -6.440  26.420  0.00  0.00    -0.503 OA
ATOM     19  H   UNL     1       5.679  -6.916  25.603  0.00  0.00    +0.292 HD
ENDBRANCH  15  18
BRANCH  16  20
ATOM     20  O   UNL     1       8.390  -5.536  27.118  0.00  0.00    -0.503 OA
ATOM     21  H   UNL     1       8.784  -4.993  27.825  0.00  0.00    +0.292 HD
ENDBRANCH  16  20
ENDBRANCH   6  12
BRANCH   2  22
ATOM     22  O   UNL     1       8.301   4.341  25.581  0.00  0.00    -0.503 OA
ATOM     23  H   UNL     1       7.637   4.869  25.105  0.00  0.00    +0.292 HD
ENDBRANCH   2  22
BRANCH   7  24
ATOM     24  O   UNL     1       8.369  -2.681  22.277  0.00  0.00    -0.501 OA
ATOM     25  H   UNL     1       8.760  -3.407  22.792  0.00  0.00    +0.292 HD
ENDBRANCH   7  24
BRANCH  11  26
ATOM     26  O   UNL     1      10.077   2.217  21.710  0.00  0.00    -0.503 OA
ATOM     27  H   UNL     1      10.148   3.157  21.470  0.00  0.00    +0.292 HD
ENDBRANCH  11  26
BRANCH   1  28
ATOM     28  O   UNL     1       9.741   4.472  23.196  0.00  0.00    -0.413 OA
BRANCH  28  29
ATOM     29  C   UNL     1      11.024   4.786  23.581  0.00  0.00    +0.380 C 
ATOM     30  O   UNL     1      12.048   4.142  23.399  0.00  0.00    -0.241 OA
BRANCH  29  32
ATOM     31  C   UNL     1      12.286   6.623  24.862  0.00  0.00    +0.099 C 
ATOM     32  C   UNL     1      10.975   6.111  24.344  0.00  0.00    +0.237 C 
ATOM     33  O   UNL     1       9.915   6.701  24.518  0.00  0.00    -0.285 OA
ENDBRANCH  29  32
ENDBRANCH  28  29
ENDBRANCH   1  28
TORSDOF 9
ENDMDL
MODEL 4
REMARK VINA RESULT:      -7.3      2.542      4.886
REMARK  Name = 
REMARK  10 active torsions:
REMARK  status: ('A' for Active; 'I' for Inactive)
REMARK    1  A    between atoms: C_1  and  C_2
REMARK    2  A    between atoms: C_2  and  C_4
REMARK    3  A    between atoms: C_4  and  O_6
REMARK    4  A    between atoms: O_6  and  C_7
REMARK    5  A    between atoms: C_8  and  O_28
REMARK    6  A    between atoms: C_12  and  O_13
REMARK    7  A    between atoms: C_15  and  C_20
REMARK    8  A    between atoms: C_16  and  O_19
REMARK    9  A    between atoms: C_22  and  O_27
REMARK   10  A    between atoms: C_23  and  O_26
REMARK                            x       y       z     vdW  Elec       q    Type
REMARK                         _______ _______ _______ _____ _____    ______ ____
ROOT
ATOM      1  C   UNL     1       6.206  -5.497  25.976  0.00  0.00    +0.215 A 
ATOM      2  C   UNL     1       6.624  -4.664  27.015  0.00  0.00    +0.166 A 
ATOM      3  C   UNL     1       7.251  -3.451  26.735  0.00  0.00    +0.096 A 
ATOM      4  C   UNL     1       7.496  -3.088  25.404  0.00  0.00    +0.147 A 
ATOM      5  O   UNL     1       8.101  -1.865  25.199  0.00  0.00    -0.451 OA
ATOM      6  C   UNL     1       8.414  -1.480  23.901  0.00  0.00    +0.181 A 
ATOM      7  C   UNL     1       8.225  -2.278  22.827  0.00  0.00    +0.208 A 
ATOM      8  C   UNL     1       7.541  -3.583  22.994  0.00  0.00    +0.238 A 
ATOM      9  O   UNL     1       7.378  -4.316  22.026  0.00  0.00    -0.283 OA
ATOM     10  C   UNL     1       7.144  -3.956  24.363  0.00  0.00    +0.113 A 
ATOM     11  C   UNL     1       6.493  -5.166  24.651  0.00  0.00    +0.178 A 
ENDROOT
BRANCH   6  12
ATOM     12  C   UNL     1       9.049  -0.131  23.781  0.00  0.00    +0.025 A 
ATOM     13  C   UNL     1      10.302   0.157  24.354  0.00  0.00    +0.015 A 
ATOM     14  C   UNL     1      10.943   1.384  24.110  0.00  0.00    +0.050 A 
ATOM     15  C   UNL     1      10.342   2.316  23.277  0.00  0.00    +0.158 A 
ATOM     16  C   UNL     1       9.085   2.072  22.745  0.00  0.00    +0.159 A 
ATOM     17  C   UNL     1       8.418   0.890  23.041  0.00  0.00    +0.060 A 
BRANCH  15  18
ATOM     18  O   UNL     1      10.999   3.470  22.963  0.00  0.00    -0.503 OA
ATOM     19  H   UNL     1      10.619   3.747  22.105  0.00  0.00    +0.292 HD
ENDBRANCH  15  18
BRANCH  16  20
ATOM     20  O   UNL     1       8.554   3.000  21.893  0.00  0.00    -0.503 OA
ATOM     21  H   UNL     1       8.076   3.663  22.423  0.00  0.00    +0.292 HD
ENDBRANCH  16  20
ENDBRANCH   6  12
BRANCH   2  22
ATOM     22  O   UNL     1       6.443  -5.075  28.308  0.00  0.00    -0.503 OA
ATOM     23  H   UNL     1       6.734  -5.999  28.397  0.00  0.00    +0.292 HD
ENDBRANCH   2  22
BRANCH   7  24
ATOM     24  O   UNL     1       8.648  -1.974  21.544  0.00  0.00    -0.501 OA
ATOM     25  H   UNL     1       8.034  -2.411  20.929  0.00  0.00    +0.292 HD
ENDBRANCH   7  24
BRANCH  11  26
ATOM     26  O   UNL     1       6.155  -6.042  23.658  0.00  0.00    -0.503 OA
ATOM     27  H   UNL     1       5.983  -6.916  24.049  0.00  0.00    +0.292 HD
ENDBRANCH  11  26
BRANCH   1  28
ATOM     28  O   UNL     1       5.640  -6.755  26.232  0.00  0.00    -0.413 OA
BRANCH  28  29
ATOM     29  C   UNL     1       4.316  -6.706  26.600  0.00  0.00    +0.380 C 
ATOM     30  O   UNL     1       3.844  -6.465  27.703  0.00  0.00    -0.241 OA
BRANCH  29  32
ATOM     31  C   UNL     1       2.178  -6.305  25.229  0.00  0.00    +0.099 C 
ATOM     32  C   UNL     1       3.473  -7.049  25.370  0.00  0.00    +0.237 C 
ATOM     33  O   UNL     1       3.847  -7.892  24.563  0.00  0.00    -0.285 OA
ENDBRANCH  29  32
ENDBRANCH  28  29
ENDBRANCH   1  28
TORSDOF 9
ENDMDL
MODEL 5
REMARK VINA RESULT:      -7.3      2.272      9.440
REMARK  Name = 
REMARK  10 active torsions:
REMARK  status: ('A' for Active; 'I' for Inactive)
REMARK    1  A    between atoms: C_1  and  C_2
REMARK    2  A    between atoms: C_2  and  C_4
REMARK    3  A    between atoms: C_4  and  O_6
REMARK    4  A    between atoms: O_6  and  C_7
REMARK    5  A    between atoms: C_8  and  O_28
REMARK    6  A    between atoms: C_12  and  O_13
REMARK    7  A    between atoms: C_15  and  C_20
REMARK    8  A    between atoms: C_16  and  O_19
REMARK    9  A    between atoms: C_22  and  O_27
REMARK   10  A    between atoms: C_23  and  O_26
REMARK                            x       y       z     vdW  Elec       q    Type
REMARK                         _______ _______ _______ _____ _____    ______ ____
ROOT
ATOM      1  C   UNL     1       8.308  -0.534  23.146  0.00  0.00    +0.215 A 
ATOM      2  C   UNL     1       6.943  -0.448  23.426  0.00  0.00    +0.166 A 
ATOM      3  C   UNL     1       6.323  -1.420  24.210  0.00  0.00    +0.096 A 
ATOM      4  C   UNL     1       7.069  -2.508  24.683  0.00  0.00    +0.147 A 
ATOM      5  O   UNL     1       6.396  -3.421  25.469  0.00  0.00    -0.451 OA
ATOM      6  C   UNL     1       7.075  -4.547  25.921  0.00  0.00    +0.181 A 
ATOM      7  C   UNL     1       8.347  -4.835  25.566  0.00  0.00    +0.208 A 
ATOM      8  C   UNL     1       9.122  -3.863  24.757  0.00  0.00    +0.238 A 
ATOM      9  O   UNL     1      10.271  -4.125  24.422  0.00  0.00    -0.283 OA
ATOM     10  C   UNL     1       8.421  -2.636  24.341  0.00  0.00    +0.113 A 
ATOM     11  C   UNL     1       9.044  -1.641  23.570  0.00  0.00    +0.178 A 
ENDROOT
BRANCH   6  12
ATOM     12  C   UNL     1       6.268  -5.466  26.780  0.00  0.00    +0.025 A 
ATOM     13  C   UNL     1       6.469  -5.556  28.171  0.00  0.00    +0.015 A 
ATOM     14  C   UNL     1       5.607  -6.319  28.978  0.00  0.00    +0.050 A 
ATOM     15  C   UNL     1       4.532  -6.976  28.399  0.00  0.00    +0.158 A 
ATOM     16  C   UNL     1       4.346  -6.942  27.026  0.00  0.00    +0.159 A 
ATOM     17  C   UNL     1       5.237  -6.247  26.218  0.00  0.00    +0.060 A 
BRANCH  15  18
ATOM     18  O   UNL     1       3.639  -7.642  29.188  0.00  0.00    -0.503 OA
ATOM     19  H   UNL     1       2.761  -7.346  28.874  0.00  0.00    +0.292 HD
ENDBRANCH  15  18
BRANCH  16  20
ATOM     20  O   UNL     1       3.246  -7.566  26.508  0.00  0.00    -0.503 OA
ATOM     21  H   UNL     1       3.247  -7.436  25.543  0.00  0.00    +0.292 HD
ENDBRANCH  16  20
ENDBRANCH   6  12
BRANCH   2  22
ATOM     22  O   UNL     1       6.220   0.582  22.889  0.00  0.00    -0.503 OA
ATOM     23  H   UNL     1       6.278   0.546  21.919  0.00  0.00    +0.292 HD
ENDBRANCH   2  22
BRANCH   7  24
ATOM     24  O   UNL     1       9.001  -6.010  25.893  0.00  0.00    -0.501 OA
ATOM     25  H   UNL     1       8.341  -6.724  25.862  0.00  0.00    +0.292 HD
ENDBRANCH   7  24
BRANCH  11  26
ATOM     26  O   UNL     1      10.356  -1.748  23.205  0.00  0.00    -0.503 OA
ATOM     27  H   UNL     1      10.500  -1.245  22.384  0.00  0.00    +0.292 HD
ENDBRANCH  11  26
BRANCH   1  28
ATOM     28  O   UNL     1       8.939   0.390  22.300  0.00  0.00    -0.413 OA
BRANCH  28  29
ATOM     29  C   UNL     1       9.634   1.371  22.967  0.00  0.00    +0.380 C 
ATOM     30  O   UNL     1      10.659   1.258  23.627  0.00  0.00    -0.241 OA
BRANCH  29  32
ATOM     31  C   UNL     1       9.299   3.818  23.679  0.00  0.00    +0.099 C 
ATOM     32  C   UNL     1       8.881   2.690  22.785  0.00  0.00    +0.237 C 
ATOM     33  O   UNL     1       7.983   2.795  21.956  0.00  0.00    -0.285 OA
ENDBRANCH  29  32
ENDBRANCH  28  29
ENDBRANCH   1  28
TORSDOF 9
ENDMDL
MODEL 6
REMARK VINA RESULT:      -7.2      3.307      6.195
REMARK  Name = 
REMARK  10 active torsions:
REMARK  status: ('A' for Active; 'I' for Inactive)
REMARK    1  A    between atoms: C_1  and  C_2
REMARK    2  A    between atoms: C_2  and  C_4
REMARK    3  A    between atoms: C_4  and  O_6
REMARK    4  A    between atoms: O_6  and  C_7
REMARK    5  A    between atoms: C_8  and  O_28
REMARK    6  A    between atoms: C_12  and  O_13
REMARK    7  A    between atoms: C_15  and  C_20
REMARK    8  A    between atoms: C_16  and  O_19
REMARK    9  A    between atoms: C_22  and  O_27
REMARK   10  A    between atoms: C_23  and  O_26
REMARK                            x       y       z     vdW  Elec       q    Type
REMARK                         _______ _______ _______ _____ _____    ______ ____
ROOT
ATOM      1  C   UNL     1       4.927  -6.477  24.295  0.00  0.00    +0.215 A 
ATOM      2  C   UNL     1       4.704  -5.881  23.053  0.00  0.00    +0.166 A 
ATOM      3  C   UNL     1       5.358  -4.698  22.713  0.00  0.00    +0.096 A 
ATOM      4  C   UNL     1       6.213  -4.087  23.640  0.00  0.00    +0.147 A 
ATOM      5  O   UNL     1       6.843  -2.931  23.229  0.00  0.00    -0.451 OA
ATOM      6  C   UNL     1       7.660  -2.256  24.128  0.00  0.00    +0.181 A 
ATOM      7  C   UNL     1       7.813  -2.634  25.416  0.00  0.00    +0.208 A 
ATOM      8  C   UNL     1       7.188  -3.892  25.891  0.00  0.00    +0.238 A 
ATOM      9  O   UNL     1       7.312  -4.233  27.061  0.00  0.00    -0.283 OA
ATOM     10  C   UNL     1       6.381  -4.644  24.914  0.00  0.00    +0.113 A 
ATOM     11  C   UNL     1       5.736  -5.847  25.242  0.00  0.00    +0.178 A 
ENDROOT
BRANCH   6  12
ATOM     12  C   UNL     1       8.313  -1.026  23.584  0.00  0.00    +0.025 A 
ATOM     13  C   UNL     1       9.713  -0.892  23.514  0.00  0.00    +0.015 A 
ATOM     14  C   UNL     1      10.303   0.210  22.872  0.00  0.00    +0.050 A 
ATOM     15  C   UNL     1       9.495   1.169  22.279  0.00  0.00    +0.158 A 
ATOM     16  C   UNL     1       8.115   1.083  22.381  0.00  0.00    +0.159 A 
ATOM     17  C   UNL     1       7.530   0.032  23.077  0.00  0.00    +0.060 A 
BRANCH  15  18
ATOM     18  O   UNL     1      10.060   2.192  21.575  0.00  0.00    -0.503 OA
ATOM     19  H   UNL     1      10.595   2.682  22.232  0.00  0.00    +0.292 HD
ENDBRANCH  15  18
BRANCH  16  20
ATOM     20  O   UNL     1       7.361   2.027  21.742  0.00  0.00    -0.503 OA
ATOM     21  H   UNL     1       7.347   1.815  20.791  0.00  0.00    +0.292 HD
ENDBRANCH  16  20
ENDBRANCH   6  12
BRANCH   2  22
ATOM     22  O   UNL     1       3.806  -6.455  22.194  0.00  0.00    -0.503 OA
ATOM     23  H   UNL     1       3.021  -5.885  22.119  0.00  0.00    +0.292 HD
ENDBRANCH   2  22
BRANCH   7  24
ATOM     24  O   UNL     1       8.513  -1.909  26.365  0.00  0.00    -0.501 OA
ATOM     25  H   UNL     1       9.061  -1.264  25.886  0.00  0.00    +0.292 HD
ENDBRANCH   7  24
BRANCH  11  26
ATOM     26  O   UNL     1       5.866  -6.404  26.483  0.00  0.00    -0.503 OA
ATOM     27  H   UNL     1       5.158  -7.059  26.614  0.00  0.00    +0.292 HD
ENDBRANCH  11  26
BRANCH   1  28
ATOM     28  O   UNL     1       4.225  -7.626  24.690  0.00  0.00    -0.413 OA
BRANCH  28  29
ATOM     29  C   UNL     1       2.962  -7.369  25.169  0.00  0.00    +0.380 C 
ATOM     30  O   UNL     1       2.630  -6.584  26.047  0.00  0.00    -0.241 OA
BRANCH  29  32
ATOM     31  C   UNL     1       1.458  -9.453  25.204  0.00  0.00    +0.099 C 
ATOM     32  C   UNL     1       1.983  -8.283  24.429  0.00  0.00    +0.237 C 
ATOM     33  O   UNL     1       1.665  -8.058  23.266  0.00  0.00    -0.285 OA
ENDBRANCH  29  32
ENDBRANCH  28  29
ENDBRANCH   1  28
TORSDOF 9
ENDMDL
MODEL 7
REMARK VINA RESULT:      -7.2      2.512      4.215
REMARK  Name = 
REMARK  10 active torsions:
REMARK  status: ('A' for Active; 'I' for Inactive)
REMARK    1  A    between atoms: C_1  and  C_2
REMARK    2  A    between atoms: C_2  and  C_4
REMARK    3  A    between atoms: C_4  and  O_6
REMARK    4  A    between atoms: O_6  and  C_7
REMARK    5  A    between atoms: C_8  and  O_28
REMARK    6  A    between atoms: C_12  and  O_13
REMARK    7  A    between atoms: C_15  and  C_20
REMARK    8  A    between atoms: C_16  and  O_19
REMARK    9  A    between atoms: C_22  and  O_27
REMARK   10  A    between atoms: C_23  and  O_26
REMARK                            x       y       z     vdW  Elec       q    Type
REMARK                         _______ _______ _______ _____ _____    ______ ____
ROOT
ATOM      1  C   UNL     1       6.544  -4.671  23.225  0.00  0.00    +0.215 A 
ATOM      2  C   UNL     1       6.369  -3.810  22.139  0.00  0.00    +0.166 A 
ATOM      3  C   UNL     1       6.885  -2.517  22.178  0.00  0.00    +0.096 A 
ATOM      4  C   UNL     1       7.548  -2.068  23.329  0.00  0.00    +0.147 A 
ATOM      5  O   UNL     1       8.051  -0.784  23.289  0.00  0.00    -0.451 OA
ATOM      6  C   UNL     1       8.671  -0.271  24.423  0.00  0.00    +0.181 A 
ATOM      7  C   UNL     1       8.741  -0.941  25.594  0.00  0.00    +0.208 A 
ATOM      8  C   UNL     1       8.250  -2.338  25.672  0.00  0.00    +0.238 A 
ATOM      9  O   UNL     1       8.299  -2.946  26.734  0.00  0.00    -0.283 OA
ATOM     10  C   UNL     1       7.659  -2.905  24.446  0.00  0.00    +0.113 A 
ATOM     11  C   UNL     1       7.156  -4.214  24.392  0.00  0.00    +0.178 A 
ENDROOT
BRANCH   6  12
ATOM     12  C   UNL     1       9.200   1.119  24.276  0.00  0.00    +0.025 A 
ATOM     13  C   UNL     1      10.457   1.382  23.697  0.00  0.00    +0.015 A 
ATOM     14  C   UNL     1      10.873   2.700  23.441  0.00  0.00    +0.050 A 
ATOM     15  C   UNL     1      10.026   3.756  23.743  0.00  0.00    +0.158 A 
ATOM     16  C   UNL     1       8.806   3.521  24.359  0.00  0.00    +0.159 A 
ATOM     17  C   UNL     1       8.423   2.225  24.679  0.00  0.00    +0.060 A 
BRANCH  15  18
ATOM     18  O   UNL     1      10.384   5.030  23.412  0.00  0.00    -0.503 OA
ATOM     19  H   UNL     1      11.218   4.932  22.909  0.00  0.00    +0.292 HD
ENDBRANCH  15  18
BRANCH  16  20
ATOM     20  O   UNL     1       7.987   4.589  24.595  0.00  0.00    -0.503 OA
ATOM     21  H   UNL     1       7.078   4.258  24.708  0.00  0.00    +0.292 HD
ENDBRANCH  16  20
ENDBRANCH   6  12
BRANCH   2  22
ATOM     22  O   UNL     1       5.652  -4.245  21.058  0.00  0.00    -0.503 OA
ATOM     23  H   UNL     1       6.211  -4.821  20.510  0.00  0.00    +0.292 HD
ENDBRANCH   2  22
BRANCH   7  24
ATOM     24  O   UNL     1       9.233  -0.405  26.772  0.00  0.00    -0.501 OA
ATOM     25  H   UNL     1       9.704  -1.118  27.237  0.00  0.00    +0.292 HD
ENDBRANCH   7  24
BRANCH  11  26
ATOM     26  O   UNL     1       7.233  -5.046  25.474  0.00  0.00    -0.503 OA
ATOM     27  H   UNL     1       6.333  -5.267  25.770  0.00  0.00    +0.292 HD
ENDBRANCH  11  26
BRANCH   1  28
ATOM     28  O   UNL     1       5.970  -5.951  23.240  0.00  0.00    -0.413 OA
BRANCH  28  29
ATOM     29  C   UNL     1       4.610  -5.949  23.448  0.00  0.00    +0.380 C 
ATOM     30  O   UNL     1       3.748  -5.362  22.809  0.00  0.00    -0.241 OA
BRANCH  29  32
ATOM     31  C   UNL     1       3.058  -7.611  24.647  0.00  0.00    +0.099 C 
ATOM     32  C   UNL     1       4.321  -6.804  24.683  0.00  0.00    +0.237 C 
ATOM     33  O   UNL     1       5.086  -6.809  25.641  0.00  0.00    -0.285 OA
ENDBRANCH  29  32
ENDBRANCH  28  29
ENDBRANCH   1  28
TORSDOF 9
ENDMDL
MODEL 8
REMARK VINA RESULT:      -7.2      2.576      9.058
REMARK  Name = 
REMARK  10 active torsions:
REMARK  status: ('A' for Active; 'I' for Inactive)
REMARK    1  A    between atoms: C_1  and  C_2
REMARK    2  A    between atoms: C_2  and  C_4
REMARK    3  A    between atoms: C_4  and  O_6
REMARK    4  A    between atoms: O_6  and  C_7
REMARK    5  A    between atoms: C_8  and  O_28
REMARK    6  A    between atoms: C_12  and  O_13
REMARK    7  A    between atoms: C_15  and  C_20
REMARK    8  A    between atoms: C_16  and  O_19
REMARK    9  A    between atoms: C_22  and  O_27
REMARK   10  A    between atoms: C_23  and  O_26
REMARK                            x       y       z     vdW  Elec       q    Type
REMARK                         _______ _______ _______ _____ _____    ______ ____
ROOT
ATOM      1  C   UNL     1       9.808  -0.769  23.760  0.00  0.00    +0.215 A 
ATOM      2  C   UNL     1       9.561  -0.403  25.085  0.00  0.00    +0.166 A 
ATOM      3  C   UNL     1       8.761  -1.204  25.897  0.00  0.00    +0.096 A 
ATOM      4  C   UNL     1       8.171  -2.359  25.367  0.00  0.00    +0.147 A 
ATOM      5  O   UNL     1       7.408  -3.115  26.234  0.00  0.00    -0.451 OA
ATOM      6  C   UNL     1       6.757  -4.243  25.746  0.00  0.00    +0.181 A 
ATOM      7  C   UNL     1       6.772  -4.599  24.443  0.00  0.00    +0.208 A 
ATOM      8  C   UNL     1       7.611  -3.841  23.484  0.00  0.00    +0.238 A 
ATOM      9  O   UNL     1       7.618  -4.151  22.299  0.00  0.00    -0.283 OA
ATOM     10  C   UNL     1       8.358  -2.689  24.019  0.00  0.00    +0.113 A 
ATOM     11  C   UNL     1       9.183  -1.890  23.212  0.00  0.00    +0.178 A 
ENDROOT
BRANCH   6  12
ATOM     12  C   UNL     1       5.972  -5.006  26.765  0.00  0.00    +0.025 A 
ATOM     13  C   UNL     1       4.565  -5.049  26.743  0.00  0.00    +0.015 A 
ATOM     14  C   UNL     1       3.854  -5.884  27.623  0.00  0.00    +0.050 A 
ATOM     15  C   UNL     1       4.549  -6.691  28.511  0.00  0.00    +0.158 A 
ATOM     16  C   UNL     1       5.932  -6.625  28.583  0.00  0.00    +0.159 A 
ATOM     17  C   UNL     1       6.634  -5.749  27.764  0.00  0.00    +0.060 A 
BRANCH  15  18
ATOM     18  O   UNL     1       3.870  -7.571  29.303  0.00  0.00    -0.503 OA
ATOM     19  H   UNL     1       4.462  -7.727  30.067  0.00  0.00    +0.292 HD
ENDBRANCH  15  18
BRANCH  16  20
ATOM     20  O   UNL     1       6.574  -7.473  29.441  0.00  0.00    -0.503 OA
ATOM     21  H   UNL     1       7.510  -7.525  29.177  0.00  0.00    +0.292 HD
ENDBRANCH  16  20
ENDBRANCH   6  12
BRANCH   2  22
ATOM     22  O   UNL     1      10.085   0.770  25.557  0.00  0.00    -0.503 OA
ATOM     23  H   UNL     1      10.902   0.583  26.050  0.00  0.00    +0.292 HD
ENDBRANCH   2  22
BRANCH   7  24
ATOM     24  O   UNL     1       6.028  -5.638  23.909  0.00  0.00    -0.501 OA
ATOM     25  H   UNL     1       6.551  -6.450  24.019  0.00  0.00    +0.292 HD
ENDBRANCH   7  24
BRANCH  11  26
ATOM     26  O   UNL     1       9.368  -2.175  21.888  0.00  0.00    -0.503 OA
ATOM     27  H   UNL     1      10.124  -1.662  21.555  0.00  0.00    +0.292 HD
ENDBRANCH  11  26
BRANCH   1  28
ATOM     28  O   UNL     1      10.549   0.057  22.901  0.00  0.00    -0.413 OA
BRANCH  28  29
ATOM     29  C   UNL     1       9.776   0.890  22.127  0.00  0.00    +0.380 C 
ATOM     30  O   UNL     1       9.205   0.633  21.075  0.00  0.00    -0.241 OA
BRANCH  29  32
ATOM     31  C   UNL     1       8.446   2.990  22.782  0.00  0.00    +0.099 C 
ATOM     32  C   UNL     1       9.761   2.269  22.789  0.00  0.00    +0.237 C 
ATOM     33  O   UNL     1      10.778   2.744  23.282  0.00  0.00    -0.285 OA
ENDBRANCH  29  32
ENDBRANCH  28  29
ENDBRANCH   1  28
TORSDOF 9
ENDMDL
MODEL 9
REMARK VINA RESULT:      -7.2      2.623      9.179
REMARK  Name = 
REMARK  10 active torsions:
REMARK  status: ('A' for Active; 'I' for Inactive)
REMARK    1  A    between atoms: C_1  and  C_2
REMARK    2  A    between atoms: C_2  and  C_4
REMARK    3  A    between atoms: C_4  and  O_6
REMARK    4  A    between atoms: O_6  and  C_7
REMARK    5  A    between atoms: C_8  and  O_28
REMARK    6  A    between atoms: C_12  and  O_13
REMARK    7  A    between atoms: C_15  and  C_20
REMARK    8  A    between atoms: C_16  and  O_19
REMARK    9  A    between atoms: C_22  and  O_27
REMARK   10  A    between atoms: C_23  and  O_26
REMARK                            x       y       z     vdW  Elec       q    Type
REMARK                         _______ _______ _______ _____ _____    ______ ____
ROOT
ATOM      1  C   UNL     1       8.864  -0.220  22.690  0.00  0.00    +0.215 A 
ATOM      2  C   UNL     1       9.422  -1.467  22.403  0.00  0.00    +0.166 A 
ATOM      3  C   UNL     1       8.728  -2.636  22.713  0.00  0.00    +0.096 A 
ATOM      4  C   UNL     1       7.483  -2.554  23.351  0.00  0.00    +0.147 A 
ATOM      5  O   UNL     1       6.843  -3.748  23.608  0.00  0.00    -0.451 OA
ATOM      6  C   UNL     1       5.629  -3.727  24.286  0.00  0.00    +0.181 A 
ATOM      7  C   UNL     1       5.075  -2.596  24.776  0.00  0.00    +0.208 A 
ATOM      8  C   UNL     1       5.706  -1.286  24.488  0.00  0.00    +0.238 A 
ATOM      9  O   UNL     1       5.216  -0.258  24.939  0.00  0.00    -0.283 OA
ATOM     10  C   UNL     1       6.955  -1.306  23.705  0.00  0.00    +0.113 A 
ATOM     11  C   UNL     1       7.649  -0.133  23.370  0.00  0.00    +0.178 A 
ENDROOT
BRANCH   6  12
ATOM     12  C   UNL     1       5.005  -5.069  24.501  0.00  0.00    +0.025 A 
ATOM     13  C   UNL     1       5.198  -5.801  25.688  0.00  0.00    +0.015 A 
ATOM     14  C   UNL     1       4.491  -6.993  25.926  0.00  0.00    +0.050 A 
ATOM     15  C   UNL     1       3.575  -7.443  24.987  0.00  0.00    +0.158 A 
ATOM     16  C   UNL     1       3.408  -6.765  23.790  0.00  0.00    +0.159 A 
ATOM     17  C   UNL     1       4.157  -5.626  23.521  0.00  0.00    +0.060 A 
BRANCH  15  18
ATOM     18  O   UNL     1       2.819  -8.548  25.252  0.00  0.00    -0.503 OA
ATOM     19  H   UNL     1       2.833  -8.631  26.227  0.00  0.00    +0.292 HD
ENDBRANCH  15  18
BRANCH  16  20
ATOM     20  O   UNL     1       2.461  -7.221  22.917  0.00  0.00    -0.503 OA
ATOM     21  H   UNL     1       1.745  -6.563  22.870  0.00  0.00    +0.292 HD
ENDBRANCH  16  20
ENDBRANCH   6  12
BRANCH   2  22
ATOM     22  O   UNL     1      10.673  -1.523  21.851  0.00  0.00    -0.503 OA
ATOM     23  H   UNL     1      11.262  -0.908  22.322  0.00  0.00    +0.292 HD
ENDBRANCH   2  22
BRANCH   7  24
ATOM     24  O   UNL     1       3.939  -2.562  25.566  0.00  0.00    -0.501 OA
ATOM     25  H   UNL     1       3.174  -2.646  24.971  0.00  0.00    +0.292 HD
ENDBRANCH   7  24
BRANCH  11  26
ATOM     26  O   UNL     1       7.169   1.098  23.721  0.00  0.00    -0.503 OA
ATOM     27  H   UNL     1       7.696   1.446  24.461  0.00  0.00    +0.292 HD
ENDBRANCH  11  26
BRANCH   1  28
ATOM     28  O   UNL     1       9.574   0.968  22.456  0.00  0.00    -0.413 OA
BRANCH  28  29
ATOM     29  C   UNL     1      10.388   1.344  23.499  0.00  0.00    +0.380 C 
ATOM     30  O   UNL     1      11.141   0.644  24.163  0.00  0.00    -0.241 OA
BRANCH  29  32
ATOM     31  C   UNL     1      11.308   3.739  23.350  0.00  0.00    +0.099 C 
ATOM     32  C   UNL     1      10.177   2.839  23.746  0.00  0.00    +0.237 C 
ATOM     33  O   UNL     1       9.138   3.255  24.248  0.00  0.00    -0.285 OA
ENDBRANCH  29  32
ENDBRANCH  28  29
ENDBRANCH   1  28
TORSDOF 9
ENDMDL
