MODEL 1
REMARK VINA RESULT:      -7.3      0.000      0.000
REMARK  Name = 
REMARK  22 active torsions:
REMARK  status: ('A' for Active; 'I' for Inactive)
REMARK    1  A    between atoms: C_1  and  C_2
REMARK    2  A    between atoms: C_4  and  O_64
REMARK    3  A    between atoms: C_6  and  O_63
REMARK    4  A    between atoms: C_8  and  O_51
REMARK    5  A    between atoms: C_10  and  O_13
REMARK    6  A    between atoms: O_13  and  C_14
REMARK    7  A    between atoms: C_14  and  C_15
REMARK    8  A    between atoms: C_17  and  O_50
REMARK    9  A    between atoms: C_19  and  O_49
REMARK   10  A    between atoms: C_21  and  O_48
REMARK   11  A    between atoms: C_23  and  O_26
REMARK   12  A    between atoms: O_26  and  C_27
REMARK   13  A    between atoms: C_28  and  C_40
REMARK   14  A    between atoms: C_32  and  O_39
REMARK   15  A    between atoms: C_34  and  O_38
REMARK   16  A    between atoms: C_42  and  O_47
REMARK   17  A    between atoms: C_43  and  O_46
REMARK   18  A    between atoms: O_51  and  C_52
REMARK   19  A    between atoms: C_54  and  O_62
REMARK   20  A    between atoms: C_56  and  C_59
REMARK   21  A    between atoms: C_56  and  O_61
REMARK   22  A    between atoms: C_59  and  O_60
REMARK                            x       y       z     vdW  Elec       q    Type
REMARK                         _______ _______ _______ _____ _____    ______ ____
ROOT
ATOM      1  C   UNL     1       5.569   0.463  26.436  0.00  0.00    +0.179 C 
ATOM      2  O   UNL     1       5.764   0.262  24.997  0.00  0.00    -0.331 OA
ATOM      3  C   UNL     1       5.919   1.554  24.342  0.00  0.00    +0.340 C 
ATOM      4  C   UNL     1       4.588   2.340  24.361  0.00  0.00    +0.214 C 
ATOM      5  C   UNL     1       4.312   2.598  25.866  0.00  0.00    +0.180 C 
ATOM      6  C   UNL     1       4.296   1.302  26.695  0.00  0.00    +0.177 C 
ENDROOT
BRANCH   6   7
ATOM      7  O   UNL     1       4.179   1.695  28.070  0.00  0.00    -0.386 OA
ATOM      8  H   UNL     1       3.240   1.834  28.285  0.00  0.00    +0.210 HD
ENDBRANCH   6   7
BRANCH   5   9
ATOM      9  O   UNL     1       3.090   3.312  26.079  0.00  0.00    -0.386 OA
ATOM     10  H   UNL     1       2.521   3.056  25.324  0.00  0.00    +0.210 HD
ENDBRANCH   5   9
BRANCH   4  11
ATOM     11  O   UNL     1       4.717   3.586  23.655  0.00  0.00    -0.383 OA
ATOM     12  H   UNL     1       5.242   3.424  22.850  0.00  0.00    +0.210 HD
ENDBRANCH   4  11
BRANCH   3  13
ATOM     13  O   UNL     1       6.602   1.531  23.062  0.00  0.00    -0.453 OA
BRANCH  13  14
ATOM     14  C   UNL     1       7.871   2.172  22.944  0.00  0.00    +0.214 A 
ATOM     15  C   UNL     1       7.967   3.712  22.813  0.00  0.00    +0.238 A 
ATOM     16  O   UNL     1       7.051   4.443  22.458  0.00  0.00    -0.283 OA
ATOM     17  C   UNL     1       9.212   4.386  23.170  0.00  0.00    +0.109 A 
ATOM     18  C   UNL     1      10.354   3.607  23.212  0.00  0.00    +0.147 A 
ATOM     19  C   UNL     1      11.576   4.220  23.579  0.00  0.00    +0.092 A 
ATOM     20  C   UNL     1      11.606   5.581  23.980  0.00  0.00    +0.124 A 
ATOM     21  C   UNL     1      10.459   6.351  23.949  0.00  0.00    +0.091 A 
ATOM     22  O   UNL     1      10.309   2.221  23.095  0.00  0.00    -0.451 OA
ATOM     23  C   UNL     1       9.255   5.759  23.554  0.00  0.00    +0.135 A 
ATOM     24  C   UNL     1       9.058   1.515  23.158  0.00  0.00    +0.181 A 
BRANCH  24  25
ATOM     25  C   UNL     1       9.249   0.023  23.585  0.00  0.00    +0.025 A 
ATOM     26  C   UNL     1       9.946  -0.886  22.740  0.00  0.00    +0.015 A 
ATOM     27  C   UNL     1      10.167  -2.248  23.057  0.00  0.00    +0.050 A 
ATOM     28  C   UNL     1       9.646  -2.759  24.232  0.00  0.00    +0.158 A 
ATOM     29  C   UNL     1       8.968  -1.928  25.102  0.00  0.00    +0.159 A 
ATOM     30  C   UNL     1       8.764  -0.561  24.793  0.00  0.00    +0.060 A 
BRANCH  29  31
ATOM     31  O   UNL     1       8.466  -2.515  26.235  0.00  0.00    -0.503 OA
ATOM     32  H   UNL     1       7.679  -2.014  26.511  0.00  0.00    +0.292 HD
ENDBRANCH  29  31
BRANCH  28  33
ATOM     33  O   UNL     1       9.859  -4.074  24.551  0.00  0.00    -0.503 OA
ATOM     34  H   UNL     1      10.588  -4.063  25.221  0.00  0.00    +0.292 HD
ENDBRANCH  28  33
ENDBRANCH  24  25
BRANCH  23  35
ATOM     35  O   UNL     1       8.116   6.496  23.765  0.00  0.00    -0.506 OA
ATOM     36  H   UNL     1       7.362   5.873  23.755  0.00  0.00    +0.292 HD
ENDBRANCH  23  35
BRANCH  20  37
ATOM     37  O   UNL     1      12.659   6.106  24.680  0.00  0.00    -0.507 OA
ATOM     38  H   UNL     1      12.471   6.994  25.023  0.00  0.00    +0.292 HD
ENDBRANCH  20  37
ENDBRANCH  13  14
ENDBRANCH   3  13
BRANCH   1  39
ATOM     39  C   UNL     1       5.509  -0.870  27.236  0.00  0.00    +0.197 C 
BRANCH  39  40
ATOM     40  O   UNL     1       5.411  -1.970  26.340  0.00  0.00    -0.346 OA
BRANCH  40  44
ATOM     41  C   UNL     1       4.593  -5.006  29.353  0.00  0.00    +0.041 C 
ATOM     42  C   UNL     1       5.823  -4.919  28.458  0.00  0.00    +0.149 C 
ATOM     43  O   UNL     1       5.992  -3.597  27.911  0.00  0.00    -0.343 OA
ATOM     44  C   UNL     1       5.022  -3.228  26.931  0.00  0.00    +0.282 C 
ATOM     45  C   UNL     1       4.931  -4.287  25.795  0.00  0.00    +0.208 C 
ATOM     46  C   UNL     1       4.781  -5.712  26.298  0.00  0.00    +0.179 C 
ATOM     47  C   UNL     1       5.856  -5.982  27.347  0.00  0.00    +0.174 C 
BRANCH  47  48
ATOM     48  O   UNL     1       7.156  -5.955  26.726  0.00  0.00    -0.387 OA
ATOM     49  H   UNL     1       7.600  -5.126  26.995  0.00  0.00    +0.210 HD
ENDBRANCH  47  48
BRANCH  46  50
ATOM     50  O   UNL     1       3.454  -5.898  26.791  0.00  0.00    -0.386 OA
ATOM     51  H   UNL     1       3.197  -6.794  26.481  0.00  0.00    +0.210 HD
ENDBRANCH  46  50
BRANCH  45  52
ATOM     52  O   UNL     1       3.821  -4.058  24.900  0.00  0.00    -0.338 OA
BRANCH  52  53
ATOM     53  C   UNL     1       4.220  -4.160  23.544  0.00  0.00    +0.282 C 
ATOM     54  O   UNL     1       4.175  -5.528  23.092  0.00  0.00    -0.346 OA
ATOM     55  C   UNL     1       5.167  -5.677  22.066  0.00  0.00    +0.202 C 
ATOM     56  C   UNL     1       5.982  -4.413  22.089  0.00  0.00    +0.142 C 
ATOM     57  C   UNL     1       5.661  -3.702  23.362  0.00  0.00    +0.206 C 
BRANCH  57  58
ATOM     58  O   UNL     1       5.887  -2.281  23.253  0.00  0.00    -0.384 OA
ATOM     59  H   UNL     1       6.852  -2.140  23.182  0.00  0.00    +0.210 HD
ENDBRANCH  57  58
BRANCH  56  60
ATOM     60  O   UNL     1       5.539  -3.556  21.050  0.00  0.00    -0.381 OA
ATOM     61  H   UNL     1       4.843  -3.980  20.503  0.00  0.00    +0.210 HD
ENDBRANCH  56  60
BRANCH  56  62
ATOM     62  C   UNL     1       7.460  -4.732  22.047  0.00  0.00    +0.195 C 
BRANCH  62  63
ATOM     63  O   UNL     1       7.786  -5.510  23.179  0.00  0.00    -0.392 OA
ATOM     64  H   UNL     1       8.624  -5.924  22.981  0.00  0.00    +0.210 HD
ENDBRANCH  62  63
ENDBRANCH  56  62
ENDBRANCH  52  53
ENDBRANCH  45  52
ENDBRANCH  40  44
ENDBRANCH  39  40
ENDBRANCH   1  39
TORSDOF 21
ENDMDL
MODEL 2
REMARK VINA RESULT:      -7.1      1.993      5.520
REMARK  Name = 
REMARK  22 active torsions:
REMARK  status: ('A' for Active; 'I' for Inactive)
REMARK    1  A    between atoms: C_1  and  C_2
REMARK    2  A    between atoms: C_4  and  O_64
REMARK    3  A    between atoms: C_6  and  O_63
REMARK    4  A    between atoms: C_8  and  O_51
REMARK    5  A    between atoms: C_10  and  O_13
REMARK    6  A    between atoms: O_13  and  C_14
REMARK    7  A    between atoms: C_14  and  C_15
REMARK    8  A    between atoms: C_17  and  O_50
REMARK    9  A    between atoms: C_19  and  O_49
REMARK   10  A    between atoms: C_21  and  O_48
REMARK   11  A    between atoms: C_23  and  O_26
REMARK   12  A    between atoms: O_26  and  C_27
REMARK   13  A    between atoms: C_28  and  C_40
REMARK   14  A    between atoms: C_32  and  O_39
REMARK   15  A    between atoms: C_34  and  O_38
REMARK   16  A    between atoms: C_42  and  O_47
REMARK   17  A    between atoms: C_43  and  O_46
REMARK   18  A    between atoms: O_51  and  C_52
REMARK   19  A    between atoms: C_54  and  O_62
REMARK   20  A    between atoms: C_56  and  C_59
REMARK   21  A    between atoms: C_56  and  O_61
REMARK   22  A    between atoms: C_59  and  O_60
REMARK                            x       y       z     vdW  Elec       q    Type
REMARK                         _______ _______ _______ _____ _____    ______ ____
ROOT
ATOM      1  C   UNL     1       8.423  -1.906  24.227  0.00  0.00    +0.179 C 
ATOM      2  O   UNL     1       9.119  -0.859  24.982  0.00  0.00    -0.331 OA
ATOM      3  C   UNL     1       8.901   0.431  24.340  0.00  0.00    +0.340 C 
ATOM      4  C   UNL     1       9.636   0.496  22.982  0.00  0.00    +0.214 C 
ATOM      5  C   UNL     1       8.946  -0.591  22.114  0.00  0.00    +0.180 C 
ATOM      6  C   UNL     1       8.966  -1.977  22.781  0.00  0.00    +0.177 C 
ENDROOT
BRANCH   6   7
ATOM      7  O   UNL     1       8.177  -2.843  21.950  0.00  0.00    -0.386 OA
ATOM      8  H   UNL     1       7.369  -2.375  21.677  0.00  0.00    +0.210 HD
ENDBRANCH   6   7
BRANCH   5   9
ATOM      9  O   UNL     1       9.519  -0.686  20.807  0.00  0.00    -0.386 OA
ATOM     10  H   UNL     1       8.833  -1.132  20.269  0.00  0.00    +0.210 HD
ENDBRANCH   5   9
BRANCH   4  11
ATOM     11  O   UNL     1       9.482   1.791  22.375  0.00  0.00    -0.383 OA
ATOM     12  H   UNL     1       8.599   2.130  22.610  0.00  0.00    +0.210 HD
ENDBRANCH   4  11
BRANCH   3  13
ATOM     13  O   UNL     1       9.074   1.593  25.190  0.00  0.00    -0.453 OA
BRANCH  13  14
ATOM     14  C   UNL     1       8.079   2.615  25.178  0.00  0.00    +0.214 A 
ATOM     15  C   UNL     1       8.328   3.949  24.432  0.00  0.00    +0.238 A 
ATOM     16  O   UNL     1       9.431   4.381  24.119  0.00  0.00    -0.283 OA
ATOM     17  C   UNL     1       7.189   4.762  24.015  0.00  0.00    +0.109 A 
ATOM     18  C   UNL     1       5.985   4.521  24.651  0.00  0.00    +0.147 A 
ATOM     19  C   UNL     1       4.852   5.271  24.256  0.00  0.00    +0.092 A 
ATOM     20  C   UNL     1       4.935   6.183  23.172  0.00  0.00    +0.124 A 
ATOM     21  C   UNL     1       6.138   6.410  22.532  0.00  0.00    +0.091 A 
ATOM     22  O   UNL     1       5.808   3.447  25.519  0.00  0.00    -0.451 OA
ATOM     23  C   UNL     1       7.269   5.696  22.941  0.00  0.00    +0.135 A 
ATOM     24  C   UNL     1       6.794   2.406  25.616  0.00  0.00    +0.181 A 
BRANCH  24  25
ATOM     25  C   UNL     1       6.184   1.070  26.155  0.00  0.00    +0.025 A 
ATOM     26  C   UNL     1       6.257   0.751  27.540  0.00  0.00    +0.015 A 
ATOM     27  C   UNL     1       5.724  -0.431  28.107  0.00  0.00    +0.050 A 
ATOM     28  C   UNL     1       5.133  -1.368  27.278  0.00  0.00    +0.158 A 
ATOM     29  C   UNL     1       5.021  -1.116  25.926  0.00  0.00    +0.159 A 
ATOM     30  C   UNL     1       5.537   0.077  25.362  0.00  0.00    +0.060 A 
BRANCH  29  31
ATOM     31  O   UNL     1       4.440  -2.102  25.171  0.00  0.00    -0.503 OA
ATOM     32  H   UNL     1       3.477  -1.965  25.185  0.00  0.00    +0.292 HD
ENDBRANCH  29  31
BRANCH  28  33
ATOM     33  O   UNL     1       4.609  -2.513  27.818  0.00  0.00    -0.503 OA
ATOM     34  H   UNL     1       3.882  -2.781  27.201  0.00  0.00    +0.292 HD
ENDBRANCH  28  33
ENDBRANCH  24  25
BRANCH  23  35
ATOM     35  O   UNL     1       8.372   5.783  22.127  0.00  0.00    -0.506 OA
ATOM     36  H   UNL     1       8.872   6.577  22.403  0.00  0.00    +0.292 HD
ENDBRANCH  23  35
BRANCH  20  37
ATOM     37  O   UNL     1       3.819   6.644  22.527  0.00  0.00    -0.507 OA
ATOM     38  H   UNL     1       3.978   7.480  22.062  0.00  0.00    +0.292 HD
ENDBRANCH  20  37
ENDBRANCH  13  14
ENDBRANCH   3  13
BRANCH   1  39
ATOM     39  C   UNL     1       8.504  -3.303  24.905  0.00  0.00    +0.197 C 
BRANCH  39  40
ATOM     40  O   UNL     1       7.208  -3.716  25.322  0.00  0.00    -0.346 OA
BRANCH  40  44
ATOM     41  C   UNL     1       5.932  -5.758  21.694  0.00  0.00    +0.041 C 
ATOM     42  C   UNL     1       5.131  -4.741  22.496  0.00  0.00    +0.149 C 
ATOM     43  O   UNL     1       5.978  -3.949  23.351  0.00  0.00    -0.343 OA
ATOM     44  C   UNL     1       6.540  -4.657  24.456  0.00  0.00    +0.282 C 
ATOM     45  C   UNL     1       5.440  -5.380  25.286  0.00  0.00    +0.208 C 
ATOM     46  C   UNL     1       4.487  -6.212  24.446  0.00  0.00    +0.179 C 
ATOM     47  C   UNL     1       3.969  -5.357  23.293  0.00  0.00    +0.174 C 
BRANCH  47  48
ATOM     48  O   UNL     1       3.151  -4.291  23.810  0.00  0.00    -0.387 OA
ATOM     49  H   UNL     1       3.518  -4.025  24.678  0.00  0.00    +0.210 HD
ENDBRANCH  47  48
BRANCH  46  50
ATOM     50  O   UNL     1       5.158  -7.396  24.012  0.00  0.00    -0.386 OA
ATOM     51  H   UNL     1       5.777  -7.612  24.744  0.00  0.00    +0.210 HD
ENDBRANCH  46  50
BRANCH  45  52
ATOM     52  O   UNL     1       5.981  -6.273  26.283  0.00  0.00    -0.338 OA
BRANCH  52  53
ATOM     53  C   UNL     1       5.815  -5.752  27.590  0.00  0.00    +0.282 C 
ATOM     54  O   UNL     1       6.762  -6.340  28.505  0.00  0.00    -0.346 OA
ATOM     55  C   UNL     1       6.160  -6.342  29.807  0.00  0.00    +0.202 C 
ATOM     56  C   UNL     1       4.719  -5.962  29.601  0.00  0.00    +0.142 C 
ATOM     57  C   UNL     1       4.435  -6.085  28.140  0.00  0.00    +0.206 C 
BRANCH  57  58
ATOM     58  O   UNL     1       3.345  -5.230  27.733  0.00  0.00    -0.384 OA
ATOM     59  H   UNL     1       2.760  -5.755  27.151  0.00  0.00    +0.210 HD
ENDBRANCH  57  58
BRANCH  56  60
ATOM     60  O   UNL     1       4.552  -4.589  29.908  0.00  0.00    -0.381 OA
ATOM     61  H   UNL     1       4.778  -4.396  30.844  0.00  0.00    +0.210 HD
ENDBRANCH  56  60
BRANCH  56  62
ATOM     62  C   UNL     1       3.808  -6.890  30.373  0.00  0.00    +0.195 C 
BRANCH  62  63
ATOM     63  O   UNL     1       3.277  -7.846  29.480  0.00  0.00    -0.392 OA
ATOM     64  H   UNL     1       2.546  -8.257  29.939  0.00  0.00    +0.210 HD
ENDBRANCH  62  63
ENDBRANCH  56  62
ENDBRANCH  52  53
ENDBRANCH  45  52
ENDBRANCH  40  44
ENDBRANCH  39  40
ENDBRANCH   1  39
TORSDOF 21
ENDMDL
MODEL 3
REMARK VINA RESULT:      -6.9      1.737      5.446
REMARK  Name = 
REMARK  22 active torsions:
REMARK  status: ('A' for Active; 'I' for Inactive)
REMARK    1  A    between atoms: C_1  and  C_2
REMARK    2  A    between atoms: C_4  and  O_64
REMARK    3  A    between atoms: C_6  and  O_63
REMARK    4  A    between atoms: C_8  and  O_51
REMARK    5  A    between atoms: C_10  and  O_13
REMARK    6  A    between atoms: O_13  and  C_14
REMARK    7  A    between atoms: C_14  and  C_15
REMARK    8  A    between atoms: C_17  and  O_50
REMARK    9  A    between atoms: C_19  and  O_49
REMARK   10  A    between atoms: C_21  and  O_48
REMARK   11  A    between atoms: C_23  and  O_26
REMARK   12  A    between atoms: O_26  and  C_27
REMARK   13  A    between atoms: C_28  and  C_40
REMARK   14  A    between atoms: C_32  and  O_39
REMARK   15  A    between atoms: C_34  and  O_38
REMARK   16  A    between atoms: C_42  and  O_47
REMARK   17  A    between atoms: C_43  and  O_46
REMARK   18  A    between atoms: O_51  and  C_52
REMARK   19  A    between atoms: C_54  and  O_62
REMARK   20  A    between atoms: C_56  and  C_59
REMARK   21  A    between atoms: C_56  and  O_61
REMARK   22  A    between atoms: C_59  and  O_60
REMARK                            x       y       z     vdW  Elec       q    Type
REMARK                         _______ _______ _______ _____ _____    ______ ____
ROOT
ATOM      1  C   UNL     1       8.122   0.122  24.770  0.00  0.00    +0.179 C 
ATOM      2  O   UNL     1       8.222   1.541  24.418  0.00  0.00    -0.331 OA
ATOM      3  C   UNL     1       7.910   1.715  23.005  0.00  0.00    +0.340 C 
ATOM      4  C   UNL     1       9.022   1.104  22.122  0.00  0.00    +0.214 C 
ATOM      5  C   UNL     1       8.977  -0.415  22.437  0.00  0.00    +0.180 C 
ATOM      6  C   UNL     1       9.126  -0.711  23.939  0.00  0.00    +0.177 C 
ENDROOT
BRANCH   6   7
ATOM      7  O   UNL     1       8.921  -2.122  24.101  0.00  0.00    -0.386 OA
ATOM      8  H   UNL     1       9.727  -2.522  24.472  0.00  0.00    +0.210 HD
ENDBRANCH   6   7
BRANCH   5   9
ATOM      9  O   UNL     1       9.966  -1.149  21.709  0.00  0.00    -0.386 OA
ATOM     10  H   UNL     1      10.686  -0.505  21.552  0.00  0.00    +0.210 HD
ENDBRANCH   5   9
BRANCH   4  11
ATOM     11  O   UNL     1       8.755   1.334  20.727  0.00  0.00    -0.383 OA
ATOM     12  H   UNL     1       7.822   1.603  20.639  0.00  0.00    +0.210 HD
ENDBRANCH   4  11
BRANCH   3  13
ATOM     13  O   UNL     1       7.475   3.043  22.616  0.00  0.00    -0.453 OA
BRANCH  13  14
ATOM     14  C   UNL     1       6.735   3.830  23.547  0.00  0.00    +0.214 A 
ATOM     15  C   UNL     1       5.285   3.441  23.929  0.00  0.00    +0.238 A 
ATOM     16  O   UNL     1       4.558   2.712  23.265  0.00  0.00    -0.283 OA
ATOM     17  C   UNL     1       4.719   3.924  25.185  0.00  0.00    +0.109 A 
ATOM     18  C   UNL     1       5.335   5.017  25.767  0.00  0.00    +0.147 A 
ATOM     19  C   UNL     1       4.831   5.499  26.998  0.00  0.00    +0.092 A 
ATOM     20  C   UNL     1       3.775   4.818  27.659  0.00  0.00    +0.124 A 
ATOM     21  C   UNL     1       3.173   3.719  27.079  0.00  0.00    +0.091 A 
ATOM     22  O   UNL     1       6.536   5.533  25.287  0.00  0.00    -0.451 OA
ATOM     23  C   UNL     1       3.645   3.259  25.845  0.00  0.00    +0.135 A 
ATOM     24  C   UNL     1       7.310   4.814  24.312  0.00  0.00    +0.181 A 
BRANCH  24  25
ATOM     25  C   UNL     1       8.818   5.229  24.342  0.00  0.00    +0.025 A 
ATOM     26  C   UNL     1       9.256   6.297  25.174  0.00  0.00    +0.015 A 
ATOM     27  C   UNL     1      10.601   6.728  25.263  0.00  0.00    +0.050 A 
ATOM     28  C   UNL     1      11.557   6.120  24.469  0.00  0.00    +0.158 A 
ATOM     29  C   UNL     1      11.200   5.070  23.646  0.00  0.00    +0.159 A 
ATOM     30  C   UNL     1       9.857   4.627  23.572  0.00  0.00    +0.060 A 
BRANCH  29  31
ATOM     31  O   UNL     1      12.201   4.535  22.877  0.00  0.00    -0.503 OA
ATOM     32  H   UNL     1      12.537   5.234  22.289  0.00  0.00    +0.292 HD
ENDBRANCH  29  31
BRANCH  28  33
ATOM     33  O   UNL     1      12.863   6.526  24.552  0.00  0.00    -0.503 OA
ATOM     34  H   UNL     1      13.281   6.227  23.705  0.00  0.00    +0.292 HD
ENDBRANCH  28  33
ENDBRANCH  24  25
BRANCH  23  35
ATOM     35  O   UNL     1       3.174   2.037  25.430  0.00  0.00    -0.506 OA
ATOM     36  H   UNL     1       2.985   1.512  26.233  0.00  0.00    +0.292 HD
ENDBRANCH  23  35
BRANCH  20  37
ATOM     37  O   UNL     1       3.507   5.014  28.988  0.00  0.00    -0.507 OA
ATOM     38  H   UNL     1       4.257   4.780  29.556  0.00  0.00    +0.292 HD
ENDBRANCH  20  37
ENDBRANCH  13  14
ENDBRANCH   3  13
BRANCH   1  39
ATOM     39  C   UNL     1       8.325  -0.146  26.289  0.00  0.00    +0.197 C 
BRANCH  39  40
ATOM     40  O   UNL     1       7.786  -1.416  26.635  0.00  0.00    -0.346 OA
BRANCH  40  44
ATOM     41  C   UNL     1       3.603  -0.540  27.472  0.00  0.00    +0.041 C 
ATOM     42  C   UNL     1       4.445  -1.645  28.097  0.00  0.00    +0.149 C 
ATOM     43  O   UNL     1       5.855  -1.391  27.948  0.00  0.00    -0.343 OA
ATOM     44  C   UNL     1       6.346  -1.514  26.613  0.00  0.00    +0.282 C 
ATOM     45  C   UNL     1       5.965  -2.889  25.993  0.00  0.00    +0.208 C 
ATOM     46  C   UNL     1       4.495  -3.240  26.139  0.00  0.00    +0.179 C 
ATOM     47  C   UNL     1       4.085  -3.054  27.597  0.00  0.00    +0.174 C 
BRANCH  47  48
ATOM     48  O   UNL     1       4.768  -4.020  28.419  0.00  0.00    -0.387 OA
ATOM     49  H   UNL     1       5.172  -3.542  29.172  0.00  0.00    +0.210 HD
ENDBRANCH  47  48
BRANCH  46  50
ATOM     50  O   UNL     1       3.731  -2.444  25.233  0.00  0.00    -0.386 OA
ATOM     51  H   UNL     1       3.463  -3.066  24.521  0.00  0.00    +0.210 HD
ENDBRANCH  46  50
BRANCH  45  52
ATOM     52  O   UNL     1       6.259  -2.971  24.582  0.00  0.00    -0.338 OA
BRANCH  52  53
ATOM     53  C   UNL     1       6.260  -4.314  24.130  0.00  0.00    +0.282 C 
ATOM     54  O   UNL     1       7.603  -4.778  23.888  0.00  0.00    -0.346 OA
ATOM     55  C   UNL     1       7.539  -5.772  22.856  0.00  0.00    +0.202 C 
ATOM     56  C   UNL     1       6.138  -5.712  22.308  0.00  0.00    +0.142 C 
ATOM     57  C   UNL     1       5.524  -4.445  22.803  0.00  0.00    +0.206 C 
BRANCH  57  58
ATOM     58  O   UNL     1       4.084  -4.535  22.860  0.00  0.00    -0.384 OA
ATOM     59  H   UNL     1       3.766  -4.754  21.962  0.00  0.00    +0.210 HD
ENDBRANCH  57  58
BRANCH  56  60
ATOM     60  O   UNL     1       5.371  -6.758  22.881  0.00  0.00    -0.381 OA
ATOM     61  H   UNL     1       4.901  -7.280  22.195  0.00  0.00    +0.210 HD
ENDBRANCH  56  60
BRANCH  56  62
ATOM     62  C   UNL     1       6.157  -5.708  20.796  0.00  0.00    +0.195 C 
BRANCH  62  63
ATOM     63  O   UNL     1       5.822  -4.414  20.345  0.00  0.00    -0.392 OA
ATOM     64  H   UNL     1       4.987  -4.502  19.887  0.00  0.00    +0.210 HD
ENDBRANCH  62  63
ENDBRANCH  56  62
ENDBRANCH  52  53
ENDBRANCH  45  52
ENDBRANCH  40  44
ENDBRANCH  39  40
ENDBRANCH   1  39
TORSDOF 21
ENDMDL
MODEL 4
REMARK VINA RESULT:      -6.8      2.307      9.242
REMARK  Name = 
REMARK  22 active torsions:
REMARK  status: ('A' for Active; 'I' for Inactive)
REMARK    1  A    between atoms: C_1  and  C_2
REMARK    2  A    between atoms: C_4  and  O_64
REMARK    3  A    between atoms: C_6  and  O_63
REMARK    4  A    between atoms: C_8  and  O_51
REMARK    5  A    between atoms: C_10  and  O_13
REMARK    6  A    between atoms: O_13  and  C_14
REMARK    7  A    between atoms: C_14  and  C_15
REMARK    8  A    between atoms: C_17  and  O_50
REMARK    9  A    between atoms: C_19  and  O_49
REMARK   10  A    between atoms: C_21  and  O_48
REMARK   11  A    between atoms: C_23  and  O_26
REMARK   12  A    between atoms: O_26  and  C_27
REMARK   13  A    between atoms: C_28  and  C_40
REMARK   14  A    between atoms: C_32  and  O_39
REMARK   15  A    between atoms: C_34  and  O_38
REMARK   16  A    between atoms: C_42  and  O_47
REMARK   17  A    between atoms: C_43  and  O_46
REMARK   18  A    between atoms: O_51  and  C_52
REMARK   19  A    between atoms: C_54  and  O_62
REMARK   20  A    between atoms: C_56  and  C_59
REMARK   21  A    between atoms: C_56  and  O_61
REMARK   22  A    between atoms: C_59  and  O_60
REMARK                            x       y       z     vdW  Elec       q    Type
REMARK                         _______ _______ _______ _____ _____    ______ ____
ROOT
ATOM      1  C   UNL     1       5.576  -0.903  26.239  0.00  0.00    +0.179 C 
ATOM      2  O   UNL     1       6.029  -1.938  27.174  0.00  0.00    -0.331 OA
ATOM      3  C   UNL     1       4.885  -2.717  27.629  0.00  0.00    +0.340 C 
ATOM      4  C   UNL     1       3.970  -1.866  28.538  0.00  0.00    +0.214 C 
ATOM      5  C   UNL     1       3.442  -0.739  27.611  0.00  0.00    +0.180 C 
ATOM      6  C   UNL     1       4.576   0.050  26.935  0.00  0.00    +0.177 C 
ENDROOT
BRANCH   6   7
ATOM      7  O   UNL     1       3.953   0.950  26.005  0.00  0.00    -0.386 OA
ATOM      8  H   UNL     1       4.197   0.693  25.099  0.00  0.00    +0.210 HD
ENDBRANCH   6   7
BRANCH   5   9
ATOM      9  O   UNL     1       2.578   0.170  28.299  0.00  0.00    -0.386 OA
ATOM     10  H   UNL     1       3.102   0.473  29.069  0.00  0.00    +0.210 HD
ENDBRANCH   5   9
BRANCH   4  11
ATOM     11  O   UNL     1       2.876  -2.649  29.046  0.00  0.00    -0.383 OA
ATOM     12  H   UNL     1       2.180  -2.671  28.364  0.00  0.00    +0.210 HD
ENDBRANCH   4  11
BRANCH   3  13
ATOM     13  O   UNL     1       5.188  -4.044  28.130  0.00  0.00    -0.453 OA
BRANCH  13  14
ATOM     14  C   UNL     1       4.765  -5.182  27.381  0.00  0.00    +0.214 A 
ATOM     15  C   UNL     1       3.341  -5.763  27.568  0.00  0.00    +0.238 A 
ATOM     16  O   UNL     1       2.628  -5.567  28.544  0.00  0.00    -0.283 OA
ATOM     17  C   UNL     1       2.753  -6.577  26.508  0.00  0.00    +0.109 A 
ATOM     18  C   UNL     1       3.625  -7.124  25.585  0.00  0.00    +0.147 A 
ATOM     19  C   UNL     1       3.090  -7.898  24.528  0.00  0.00    +0.092 A 
ATOM     20  C   UNL     1       1.686  -8.031  24.373  0.00  0.00    +0.124 A 
ATOM     21  C   UNL     1       0.819  -7.470  25.292  0.00  0.00    +0.091 A 
ATOM     22  O   UNL     1       4.975  -6.785  25.550  0.00  0.00    -0.451 OA
ATOM     23  C   UNL     1       1.344  -6.734  26.358  0.00  0.00    +0.135 A 
ATOM     24  C   UNL     1       5.478  -5.679  26.319  0.00  0.00    +0.181 A 
BRANCH  24  25
ATOM     25  C   UNL     1       6.810  -5.113  25.726  0.00  0.00    +0.025 A 
ATOM     26  C   UNL     1       6.782  -4.155  24.673  0.00  0.00    +0.015 A 
ATOM     27  C   UNL     1       7.940  -3.591  24.088  0.00  0.00    +0.050 A 
ATOM     28  C   UNL     1       9.186  -4.013  24.517  0.00  0.00    +0.158 A 
ATOM     29  C   UNL     1       9.284  -4.933  25.542  0.00  0.00    +0.159 A 
ATOM     30  C   UNL     1       8.124  -5.483  26.141  0.00  0.00    +0.060 A 
BRANCH  29  31
ATOM     31  O   UNL     1      10.553  -5.314  25.896  0.00  0.00    -0.503 OA
ATOM     32  H   UNL     1      10.672  -6.244  25.636  0.00  0.00    +0.292 HD
ENDBRANCH  29  31
BRANCH  28  33
ATOM     33  O   UNL     1      10.313  -3.468  23.961  0.00  0.00    -0.503 OA
ATOM     34  H   UNL     1      10.210  -2.490  24.075  0.00  0.00    +0.292 HD
ENDBRANCH  28  33
ENDBRANCH  24  25
BRANCH  23  35
ATOM     35  O   UNL     1       0.443  -6.008  27.099  0.00  0.00    -0.506 OA
ATOM     36  H   UNL     1       0.956  -5.493  27.753  0.00  0.00    +0.292 HD
ENDBRANCH  23  35
BRANCH  20  37
ATOM     37  O   UNL     1       1.123  -8.442  23.195  0.00  0.00    -0.507 OA
ATOM     38  H   UNL     1       0.616  -9.263  23.292  0.00  0.00    +0.292 HD
ENDBRANCH  20  37
ENDBRANCH  13  14
ENDBRANCH   3  13
BRANCH   1  39
ATOM     39  C   UNL     1       6.747  -0.094  25.611  0.00  0.00    +0.197 C 
BRANCH  39  40
ATOM     40  O   UNL     1       6.363   0.406  24.336  0.00  0.00    -0.346 OA
BRANCH  40  44
ATOM     41  C   UNL     1       9.537  -1.073  21.748  0.00  0.00    +0.041 C 
ATOM     42  C   UNL     1       9.704  -0.213  22.994  0.00  0.00    +0.149 C 
ATOM     43  O   UNL     1       8.542  -0.272  23.843  0.00  0.00    -0.343 OA
ATOM     44  C   UNL     1       7.386   0.381  23.319  0.00  0.00    +0.282 C 
ATOM     45  C   UNL     1       7.698   1.850  22.913  0.00  0.00    +0.208 C 
ATOM     46  C   UNL     1       8.932   1.995  22.039  0.00  0.00    +0.179 C 
ATOM     47  C   UNL     1      10.090   1.245  22.691  0.00  0.00    +0.174 C 
BRANCH  47  48
ATOM     48  O   UNL     1      10.449   1.890  23.928  0.00  0.00    -0.387 OA
ATOM     49  H   UNL     1      11.096   1.318  24.389  0.00  0.00    +0.210 HD
ENDBRANCH  47  48
BRANCH  46  50
ATOM     50  O   UNL     1       8.630   1.531  20.723  0.00  0.00    -0.386 OA
ATOM     51  H   UNL     1       9.287   0.820  20.554  0.00  0.00    +0.210 HD
ENDBRANCH  46  50
BRANCH  45  52
ATOM     52  O   UNL     1       6.617   2.476  22.189  0.00  0.00    -0.338 OA
BRANCH  52  53
ATOM     53  C   UNL     1       6.330   3.766  22.701  0.00  0.00    +0.282 C 
ATOM     54  O   UNL     1       7.149   4.769  22.067  0.00  0.00    -0.346 OA
ATOM     55  C   UNL     1       7.337   5.834  23.009  0.00  0.00    +0.202 C 
ATOM     56  C   UNL     1       6.809   5.324  24.323  0.00  0.00    +0.142 C 
ATOM     57  C   UNL     1       6.642   3.847  24.189  0.00  0.00    +0.206 C 
BRANCH  57  58
ATOM     58  O   UNL     1       5.641   3.337  25.096  0.00  0.00    -0.384 OA
ATOM     59  H   UNL     1       5.242   4.102  25.556  0.00  0.00    +0.210 HD
ENDBRANCH  57  58
BRANCH  56  60
ATOM     60  O   UNL     1       5.504   5.839  24.530  0.00  0.00    -0.381 OA
ATOM     61  H   UNL     1       5.517   6.807  24.689  0.00  0.00    +0.210 HD
ENDBRANCH  56  60
BRANCH  56  62
ATOM     62  C   UNL     1       7.782   5.624  25.441  0.00  0.00    +0.195 C 
BRANCH  62  63
ATOM     63  O   UNL     1       8.214   4.403  26.001  0.00  0.00    -0.392 OA
ATOM     64  H   UNL     1       7.849   3.716  25.447  0.00  0.00    +0.210 HD
ENDBRANCH  62  63
ENDBRANCH  56  62
ENDBRANCH  52  53
ENDBRANCH  45  52
ENDBRANCH  40  44
ENDBRANCH  39  40
ENDBRANCH   1  39
TORSDOF 21
ENDMDL
MODEL 5
REMARK VINA RESULT:      -6.7      1.928      4.244
REMARK  Name = 
REMARK  22 active torsions:
REMARK  status: ('A' for Active; 'I' for Inactive)
REMARK    1  A    between atoms: C_1  and  C_2
REMARK    2  A    between atoms: C_4  and  O_64
REMARK    3  A    between atoms: C_6  and  O_63
REMARK    4  A    between atoms: C_8  and  O_51
REMARK    5  A    between atoms: C_10  and  O_13
REMARK    6  A    between atoms: O_13  and  C_14
REMARK    7  A    between atoms: C_14  and  C_15
REMARK    8  A    between atoms: C_17  and  O_50
REMARK    9  A    between atoms: C_19  and  O_49
REMARK   10  A    between atoms: C_21  and  O_48
REMARK   11  A    between atoms: C_23  and  O_26
REMARK   12  A    between atoms: O_26  and  C_27
REMARK   13  A    between atoms: C_28  and  C_40
REMARK   14  A    between atoms: C_32  and  O_39
REMARK   15  A    between atoms: C_34  and  O_38
REMARK   16  A    between atoms: C_42  and  O_47
REMARK   17  A    between atoms: C_43  and  O_46
REMARK   18  A    between atoms: O_51  and  C_52
REMARK   19  A    between atoms: C_54  and  O_62
REMARK   20  A    between atoms: C_56  and  C_59
REMARK   21  A    between atoms: C_56  and  O_61
REMARK   22  A    between atoms: C_59  and  O_60
REMARK                            x       y       z     vdW  Elec       q    Type
REMARK                         _______ _______ _______ _____ _____    ______ ____
ROOT
ATOM      1  C   UNL     1       4.133  -1.474  27.157  0.00  0.00    +0.179 C 
ATOM      2  O   UNL     1       5.194  -0.562  26.719  0.00  0.00    -0.331 OA
ATOM      3  C   UNL     1       5.750   0.131  27.874  0.00  0.00    +0.340 C 
ATOM      4  C   UNL     1       4.721   1.123  28.462  0.00  0.00    +0.214 C 
ATOM      5  C   UNL     1       3.556   0.226  28.958  0.00  0.00    +0.180 C 
ATOM      6  C   UNL     1       2.998  -0.684  27.850  0.00  0.00    +0.177 C 
ENDROOT
BRANCH   6   7
ATOM      7  O   UNL     1       2.040  -1.551  28.474  0.00  0.00    -0.386 OA
ATOM      8  H   UNL     1       2.187  -2.463  28.169  0.00  0.00    +0.210 HD
ENDBRANCH   6   7
BRANCH   5   9
ATOM      9  O   UNL     1       2.487   0.989  29.526  0.00  0.00    -0.386 OA
ATOM     10  H   UNL     1       2.917   1.801  29.865  0.00  0.00    +0.210 HD
ENDBRANCH   5   9
BRANCH   4  11
ATOM     11  O   UNL     1       5.287   1.860  29.560  0.00  0.00    -0.383 OA
ATOM     12  H   UNL     1       5.180   2.811  29.371  0.00  0.00    +0.210 HD
ENDBRANCH   4  11
BRANCH   3  13
ATOM     13  O   UNL     1       7.089   0.660  27.705  0.00  0.00    -0.453 OA
BRANCH  13  14
ATOM     14  C   UNL     1       7.384   1.444  26.550  0.00  0.00    +0.214 A 
ATOM     15  C   UNL     1       7.247   2.986  26.589  0.00  0.00    +0.238 A 
ATOM     16  O   UNL     1       6.584   3.610  27.409  0.00  0.00    -0.283 OA
ATOM     17  C   UNL     1       7.980   3.797  25.621  0.00  0.00    +0.109 A 
ATOM     18  C   UNL     1       8.425   3.154  24.480  0.00  0.00    +0.147 A 
ATOM     19  C   UNL     1       9.161   3.900  23.530  0.00  0.00    +0.092 A 
ATOM     20  C   UNL     1       9.509   5.252  23.789  0.00  0.00    +0.124 A 
ATOM     21  C   UNL     1       9.072   5.884  24.937  0.00  0.00    +0.091 A 
ATOM     22  O   UNL     1       8.341   1.773  24.327  0.00  0.00    -0.451 OA
ATOM     23  C   UNL     1       8.315   5.161  25.863  0.00  0.00    +0.135 A 
ATOM     24  C   UNL     1       8.002   0.927  25.439  0.00  0.00    +0.181 A 
BRANCH  24  25
ATOM     25  C   UNL     1       8.514  -0.537  25.236  0.00  0.00    +0.025 A 
ATOM     26  C   UNL     1       9.402  -0.850  24.170  0.00  0.00    +0.015 A 
ATOM     27  C   UNL     1       9.914  -2.146  23.923  0.00  0.00    +0.050 A 
ATOM     28  C   UNL     1       9.506  -3.196  24.727  0.00  0.00    +0.158 A 
ATOM     29  C   UNL     1       8.653  -2.959  25.786  0.00  0.00    +0.159 A 
ATOM     30  C   UNL     1       8.156  -1.658  26.044  0.00  0.00    +0.060 A 
BRANCH  29  31
ATOM     31  O   UNL     1       8.281  -4.054  26.522  0.00  0.00    -0.503 OA
ATOM     32  H   UNL     1       8.047  -3.751  27.416  0.00  0.00    +0.292 HD
ENDBRANCH  29  31
BRANCH  28  33
ATOM     33  O   UNL     1      10.001  -4.453  24.500  0.00  0.00    -0.503 OA
ATOM     34  H   UNL     1       9.851  -4.947  25.346  0.00  0.00    +0.292 HD
ENDBRANCH  28  33
ENDBRANCH  24  25
BRANCH  23  35
ATOM     35  O   UNL     1       8.109   5.760  27.083  0.00  0.00    -0.506 OA
ATOM     36  H   UNL     1       8.989   5.978  27.449  0.00  0.00    +0.292 HD
ENDBRANCH  23  35
BRANCH  20  37
ATOM     37  O   UNL     1      10.505   5.889  23.098  0.00  0.00    -0.507 OA
ATOM     38  H   UNL     1      10.716   6.760  23.469  0.00  0.00    +0.292 HD
ENDBRANCH  20  37
ENDBRANCH  13  14
ENDBRANCH   3  13
BRANCH   1  39
ATOM     39  C   UNL     1       3.560  -2.344  26.003  0.00  0.00    +0.197 C 
BRANCH  39  40
ATOM     40  O   UNL     1       4.175  -3.626  26.009  0.00  0.00    -0.346 OA
BRANCH  40  44
ATOM     41  C   UNL     1       6.543  -3.020  22.405  0.00  0.00    +0.041 C 
ATOM     42  C   UNL     1       5.234  -3.792  22.516  0.00  0.00    +0.149 C 
ATOM     43  O   UNL     1       4.504  -3.435  23.705  0.00  0.00    -0.343 OA
ATOM     44  C   UNL     1       5.091  -3.887  24.925  0.00  0.00    +0.282 C 
ATOM     45  C   UNL     1       5.370  -5.418  24.887  0.00  0.00    +0.208 C 
ATOM     46  C   UNL     1       6.113  -5.874  23.644  0.00  0.00    +0.179 C 
ATOM     47  C   UNL     1       5.405  -5.317  22.412  0.00  0.00    +0.174 C 
BRANCH  47  48
ATOM     48  O   UNL     1       4.100  -5.916  22.291  0.00  0.00    -0.387 OA
ATOM     49  H   UNL     1       4.195  -6.877  22.453  0.00  0.00    +0.210 HD
ENDBRANCH  47  48
BRANCH  46  50
ATOM     50  O   UNL     1       7.479  -5.470  23.740  0.00  0.00    -0.386 OA
ATOM     51  H   UNL     1       7.467  -4.698  24.347  0.00  0.00    +0.210 HD
ENDBRANCH  46  50
BRANCH  45  52
ATOM     52  O   UNL     1       6.150  -5.876  26.012  0.00  0.00    -0.338 OA
BRANCH  52  53
ATOM     53  C   UNL     1       5.348  -6.573  26.949  0.00  0.00    +0.282 C 
ATOM     54  O   UNL     1       4.039  -6.844  26.410  0.00  0.00    -0.346 OA
ATOM     55  C   UNL     1       3.119  -6.892  27.510  0.00  0.00    +0.202 C 
ATOM     56  C   UNL     1       3.879  -6.392  28.709  0.00  0.00    +0.142 C 
ATOM     57  C   UNL     1       5.123  -5.740  28.204  0.00  0.00    +0.206 C 
BRANCH  57  58
ATOM     58  O   UNL     1       6.174  -5.752  29.194  0.00  0.00    -0.384 OA
ATOM     59  H   UNL     1       6.060  -6.558  29.736  0.00  0.00    +0.210 HD
ENDBRANCH  57  58
BRANCH  56  60
ATOM     60  O   UNL     1       4.314  -7.501  29.478  0.00  0.00    -0.381 OA
ATOM     61  H   UNL     1       3.703  -8.265  29.391  0.00  0.00    +0.210 HD
ENDBRANCH  56  60
BRANCH  56  62
ATOM     62  C   UNL     1       3.056  -5.384  29.479  0.00  0.00    +0.195 C 
BRANCH  62  63
ATOM     63  O   UNL     1       3.539  -4.090  29.186  0.00  0.00    -0.392 OA
ATOM     64  H   UNL     1       4.426  -4.211  28.852  0.00  0.00    +0.210 HD
ENDBRANCH  62  63
ENDBRANCH  56  62
ENDBRANCH  52  53
ENDBRANCH  45  52
ENDBRANCH  40  44
ENDBRANCH  39  40
ENDBRANCH   1  39
TORSDOF 21
ENDMDL
MODEL 6
REMARK VINA RESULT:      -6.6      2.269      9.070
REMARK  Name = 
REMARK  22 active torsions:
REMARK  status: ('A' for Active; 'I' for Inactive)
REMARK    1  A    between atoms: C_1  and  C_2
REMARK    2  A    between atoms: C_4  and  O_64
REMARK    3  A    between atoms: C_6  and  O_63
REMARK    4  A    between atoms: C_8  and  O_51
REMARK    5  A    between atoms: C_10  and  O_13
REMARK    6  A    between atoms: O_13  and  C_14
REMARK    7  A    between atoms: C_14  and  C_15
REMARK    8  A    between atoms: C_17  and  O_50
REMARK    9  A    between atoms: C_19  and  O_49
REMARK   10  A    between atoms: C_21  and  O_48
REMARK   11  A    between atoms: C_23  and  O_26
REMARK   12  A    between atoms: O_26  and  C_27
REMARK   13  A    between atoms: C_28  and  C_40
REMARK   14  A    between atoms: C_32  and  O_39
REMARK   15  A    between atoms: C_34  and  O_38
REMARK   16  A    between atoms: C_42  and  O_47
REMARK   17  A    between atoms: C_43  and  O_46
REMARK   18  A    between atoms: O_51  and  C_52
REMARK   19  A    between atoms: C_54  and  O_62
REMARK   20  A    between atoms: C_56  and  C_59
REMARK   21  A    between atoms: C_56  and  O_61
REMARK   22  A    between atoms: C_59  and  O_60
REMARK                            x       y       z     vdW  Elec       q    Type
REMARK                         _______ _______ _______ _____ _____    ______ ____
ROOT
ATOM      1  C   UNL     1       4.726  -0.978  26.343  0.00  0.00    +0.179 C 
ATOM      2  O   UNL     1       5.534  -1.964  27.065  0.00  0.00    -0.331 OA
ATOM      3  C   UNL     1       4.660  -2.842  27.833  0.00  0.00    +0.340 C 
ATOM      4  C   UNL     1       4.005  -2.072  29.003  0.00  0.00    +0.214 C 
ATOM      5  C   UNL     1       3.119  -1.000  28.313  0.00  0.00    +0.180 C 
ATOM      6  C   UNL     1       3.914  -0.116  27.338  0.00  0.00    +0.177 C 
ENDROOT
BRANCH   6   7
ATOM      7  O   UNL     1       2.958   0.722  26.671  0.00  0.00    -0.386 OA
ATOM      8  H   UNL     1       3.389   1.164  25.919  0.00  0.00    +0.210 HD
ENDBRANCH   6   7
BRANCH   5   9
ATOM      9  O   UNL     1       2.439  -0.169  29.259  0.00  0.00    -0.386 OA
ATOM     10  H   UNL     1       1.767   0.308  28.729  0.00  0.00    +0.210 HD
ENDBRANCH   5   9
BRANCH   4  11
ATOM     11  O   UNL     1       3.196  -2.948  29.806  0.00  0.00    -0.383 OA
ATOM     12  H   UNL     1       2.777  -2.414  30.506  0.00  0.00    +0.210 HD
ENDBRANCH   4  11
BRANCH   3  13
ATOM     13  O   UNL     1       5.217  -4.135  28.183  0.00  0.00    -0.453 OA
BRANCH  13  14
ATOM     14  C   UNL     1       4.833  -5.282  27.427  0.00  0.00    +0.214 A 
ATOM     15  C   UNL     1       3.501  -6.013  27.729  0.00  0.00    +0.238 A 
ATOM     16  O   UNL     1       2.876  -5.926  28.779  0.00  0.00    -0.283 OA
ATOM     17  C   UNL     1       2.889  -6.844  26.696  0.00  0.00    +0.109 A 
ATOM     18  C   UNL     1       3.710  -7.266  25.667  0.00  0.00    +0.147 A 
ATOM     19  C   UNL     1       3.148  -8.052  24.634  0.00  0.00    +0.092 A 
ATOM     20  C   UNL     1       1.755  -8.322  24.613  0.00  0.00    +0.124 A 
ATOM     21  C   UNL     1       0.937  -7.887  25.638  0.00  0.00    +0.091 A 
ATOM     22  O   UNL     1       5.009  -6.789  25.514  0.00  0.00    -0.451 OA
ATOM     23  C   UNL     1       1.494  -7.139  26.679  0.00  0.00    +0.135 A 
ATOM     24  C   UNL     1       5.478  -5.665  26.278  0.00  0.00    +0.181 A 
BRANCH  24  25
ATOM     25  C   UNL     1       6.679  -4.945  25.582  0.00  0.00    +0.025 A 
ATOM     26  C   UNL     1       7.999  -5.080  26.098  0.00  0.00    +0.015 A 
ATOM     27  C   UNL     1       9.138  -4.466  25.523  0.00  0.00    +0.050 A 
ATOM     28  C   UNL     1       8.976  -3.646  24.420  0.00  0.00    +0.158 A 
ATOM     29  C   UNL     1       7.724  -3.481  23.864  0.00  0.00    +0.159 A 
ATOM     30  C   UNL     1       6.588  -4.110  24.428  0.00  0.00    +0.060 A 
BRANCH  29  31
ATOM     31  O   UNL     1       7.645  -2.638  22.786  0.00  0.00    -0.503 OA
ATOM     32  H   UNL     1       7.324  -3.151  22.025  0.00  0.00    +0.292 HD
ENDBRANCH  29  31
BRANCH  28  33
ATOM     33  O   UNL     1      10.073  -3.053  23.853  0.00  0.00    -0.503 OA
ATOM     34  H   UNL     1       9.805  -2.113  23.693  0.00  0.00    +0.292 HD
ENDBRANCH  28  33
ENDBRANCH  24  25
BRANCH  23  35
ATOM     35  O   UNL     1       0.608  -6.537  27.539  0.00  0.00    -0.506 OA
ATOM     36  H   UNL     1       1.102  -5.847  28.026  0.00  0.00    +0.292 HD
ENDBRANCH  23  35
BRANCH  20  37
ATOM     37  O   UNL     1       1.116  -8.747  23.479  0.00  0.00    -0.507 OA
ATOM     38  H   UNL     1       0.454  -8.112  23.166  0.00  0.00    +0.292 HD
ENDBRANCH  20  37
ENDBRANCH  13  14
ENDBRANCH   3  13
BRANCH   1  39
ATOM     39  C   UNL     1       5.568  -0.070  25.402  0.00  0.00    +0.197 C 
BRANCH  39  40
ATOM     40  O   UNL     1       6.114   1.019  26.138  0.00  0.00    -0.346 OA
BRANCH  40  44
ATOM     41  C   UNL     1       4.133   4.753  25.093  0.00  0.00    +0.041 C 
ATOM     42  C   UNL     1       4.338   3.546  24.187  0.00  0.00    +0.149 C 
ATOM     43  O   UNL     1       4.615   2.352  24.943  0.00  0.00    -0.343 OA
ATOM     44  C   UNL     1       5.894   2.329  25.576  0.00  0.00    +0.282 C 
ATOM     45  C   UNL     1       7.035   2.615  24.558  0.00  0.00    +0.208 C 
ATOM     46  C   UNL     1       6.798   3.845  23.701  0.00  0.00    +0.179 C 
ATOM     47  C   UNL     1       5.399   3.764  23.095  0.00  0.00    +0.174 C 
BRANCH  47  48
ATOM     48  O   UNL     1       5.336   2.664  22.168  0.00  0.00    -0.387 OA
ATOM     49  H   UNL     1       4.646   2.045  22.482  0.00  0.00    +0.210 HD
ENDBRANCH  47  48
BRANCH  46  50
ATOM     50  O   UNL     1       7.001   5.015  24.494  0.00  0.00    -0.386 OA
ATOM     51  H   UNL     1       7.965   5.197  24.425  0.00  0.00    +0.210 HD
ENDBRANCH  46  50
BRANCH  45  52
ATOM     52  O   UNL     1       8.319   2.807  25.190  0.00  0.00    -0.338 OA
BRANCH  52  53
ATOM     53  C   UNL     1       9.345   2.111  24.504  0.00  0.00    +0.282 C 
ATOM     54  O   UNL     1       9.935   2.937  23.481  0.00  0.00    -0.346 OA
ATOM     55  C   UNL     1      10.407   2.068  22.441  0.00  0.00    +0.202 C 
ATOM     56  C   UNL     1       9.856   0.704  22.758  0.00  0.00    +0.142 C 
ATOM     57  C   UNL     1       8.792   0.886  23.789  0.00  0.00    +0.206 C 
BRANCH  57  58
ATOM     58  O   UNL     1       8.605  -0.306  24.582  0.00  0.00    -0.384 OA
ATOM     59  H   UNL     1       9.490  -0.620  24.855  0.00  0.00    +0.210 HD
ENDBRANCH  57  58
BRANCH  56  60
ATOM     60  O   UNL     1      10.865  -0.070  23.384  0.00  0.00    -0.381 OA
ATOM     61  H   UNL     1      10.495  -0.873  23.809  0.00  0.00    +0.210 HD
ENDBRANCH  56  60
BRANCH  56  62
ATOM     62  C   UNL     1       9.260   0.069  21.522  0.00  0.00    +0.195 C 
BRANCH  62  63
ATOM     63  O   UNL     1       9.759  -1.245  21.405  0.00  0.00    -0.392 OA
ATOM     64  H   UNL     1       9.713  -1.623  22.282  0.00  0.00    +0.210 HD
ENDBRANCH  62  63
ENDBRANCH  56  62
ENDBRANCH  52  53
ENDBRANCH  45  52
ENDBRANCH  40  44
ENDBRANCH  39  40
ENDBRANCH   1  39
TORSDOF 21
ENDMDL
MODEL 7
REMARK VINA RESULT:      -6.5      1.945      3.206
REMARK  Name = 
REMARK  22 active torsions:
REMARK  status: ('A' for Active; 'I' for Inactive)
REMARK    1  A    between atoms: C_1  and  C_2
REMARK    2  A    between atoms: C_4  and  O_64
REMARK    3  A    between atoms: C_6  and  O_63
REMARK    4  A    between atoms: C_8  and  O_51
REMARK    5  A    between atoms: C_10  and  O_13
REMARK    6  A    between atoms: O_13  and  C_14
REMARK    7  A    between atoms: C_14  and  C_15
REMARK    8  A    between atoms: C_17  and  O_50
REMARK    9  A    between atoms: C_19  and  O_49
REMARK   10  A    between atoms: C_21  and  O_48
REMARK   11  A    between atoms: C_23  and  O_26
REMARK   12  A    between atoms: O_26  and  C_27
REMARK   13  A    between atoms: C_28  and  C_40
REMARK   14  A    between atoms: C_32  and  O_39
REMARK   15  A    between atoms: C_34  and  O_38
REMARK   16  A    between atoms: C_42  and  O_47
REMARK   17  A    between atoms: C_43  and  O_46
REMARK   18  A    between atoms: O_51  and  C_52
REMARK   19  A    between atoms: C_54  and  O_62
REMARK   20  A    between atoms: C_56  and  C_59
REMARK   21  A    between atoms: C_56  and  O_61
REMARK   22  A    between atoms: C_59  and  O_60
REMARK                            x       y       z     vdW  Elec       q    Type
REMARK                         _______ _______ _______ _____ _____    ______ ____
ROOT
ATOM      1  C   UNL     1       7.438   0.663  27.221  0.00  0.00    +0.179 C 
ATOM      2  O   UNL     1       6.826   1.110  25.966  0.00  0.00    -0.331 OA
ATOM      3  C   UNL     1       7.042   2.542  25.802  0.00  0.00    +0.340 C 
ATOM      4  C   UNL     1       6.222   3.340  26.840  0.00  0.00    +0.214 C 
ATOM      5  C   UNL     1       6.818   2.922  28.211  0.00  0.00    +0.180 C 
ATOM      6  C   UNL     1       6.798   1.398  28.422  0.00  0.00    +0.177 C 
ENDROOT
BRANCH   6   7
ATOM      7  O   UNL     1       7.503   1.145  29.647  0.00  0.00    -0.386 OA
ATOM      8  H   UNL     1       8.447   1.343  29.520  0.00  0.00    +0.210 HD
ENDBRANCH   6   7
BRANCH   5   9
ATOM      9  O   UNL     1       6.158   3.561  29.307  0.00  0.00    -0.386 OA
ATOM     10  H   UNL     1       5.958   4.463  28.983  0.00  0.00    +0.210 HD
ENDBRANCH   5   9
BRANCH   4  11
ATOM     11  O   UNL     1       6.377   4.756  26.639  0.00  0.00    -0.383 OA
ATOM     12  H   UNL     1       7.099   4.892  25.999  0.00  0.00    +0.210 HD
ENDBRANCH   4  11
BRANCH   3  13
ATOM     13  O   UNL     1       6.963   3.038  24.441  0.00  0.00    -0.453 OA
BRANCH  13  14
ATOM     14  C   UNL     1       8.160   3.444  23.780  0.00  0.00    +0.214 A 
ATOM     15  C   UNL     1       8.803   4.819  24.091  0.00  0.00    +0.238 A 
ATOM     16  O   UNL     1       8.218   5.766  24.603  0.00  0.00    -0.283 OA
ATOM     17  C   UNL     1      10.219   5.029  23.807  0.00  0.00    +0.109 A 
ATOM     18  C   UNL     1      10.813   4.156  22.913  0.00  0.00    +0.147 A 
ATOM     19  C   UNL     1      12.190   4.312  22.632  0.00  0.00    +0.092 A 
ATOM     20  C   UNL     1      12.960   5.286  23.321  0.00  0.00    +0.124 A 
ATOM     21  C   UNL     1      12.363   6.147  24.222  0.00  0.00    +0.091 A 
ATOM     22  O   UNL     1      10.155   3.026  22.436  0.00  0.00    -0.451 OA
ATOM     23  C   UNL     1      10.995   6.019  24.478  0.00  0.00    +0.135 A 
ATOM     24  C   UNL     1       8.919   2.587  23.024  0.00  0.00    +0.181 A 
BRANCH  24  25
ATOM     25  C   UNL     1       8.661   1.065  22.773  0.00  0.00    +0.025 A 
ATOM     26  C   UNL     1       9.701   0.227  22.282  0.00  0.00    +0.015 A 
ATOM     27  C   UNL     1       9.550  -1.158  22.036  0.00  0.00    +0.050 A 
ATOM     28  C   UNL     1       8.313  -1.747  22.235  0.00  0.00    +0.158 A 
ATOM     29  C   UNL     1       7.264  -0.992  22.720  0.00  0.00    +0.159 A 
ATOM     30  C   UNL     1       7.421   0.390  22.985  0.00  0.00    +0.060 A 
BRANCH  29  31
ATOM     31  O   UNL     1       6.067  -1.645  22.872  0.00  0.00    -0.503 OA
ATOM     32  H   UNL     1       5.739  -1.881  21.987  0.00  0.00    +0.292 HD
ENDBRANCH  29  31
BRANCH  28  33
ATOM     33  O   UNL     1       8.158  -3.088  22.005  0.00  0.00    -0.503 OA
ATOM     34  H   UNL     1       7.303  -3.169  21.512  0.00  0.00    +0.292 HD
ENDBRANCH  28  33
ENDBRANCH  24  25
BRANCH  23  35
ATOM     35  O   UNL     1      10.506   6.734  25.544  0.00  0.00    -0.506 OA
ATOM     36  H   UNL     1      11.147   7.448  25.732  0.00  0.00    +0.292 HD
ENDBRANCH  23  35
BRANCH  20  37
ATOM     37  O   UNL     1      14.327   5.233  23.360  0.00  0.00    -0.507 OA
ATOM     38  H   UNL     1      14.728   5.330  22.482  0.00  0.00    +0.292 HD
ENDBRANCH  20  37
ENDBRANCH  13  14
ENDBRANCH   3  13
BRANCH   1  39
ATOM     39  C   UNL     1       7.358  -0.877  27.424  0.00  0.00    +0.197 C 
BRANCH  39  40
ATOM     40  O   UNL     1       7.476  -1.539  26.171  0.00  0.00    -0.346 OA
BRANCH  40  44
ATOM     41  C   UNL     1      10.193  -4.938  26.001  0.00  0.00    +0.041 C 
ATOM     42  C   UNL     1       9.206  -4.506  24.924  0.00  0.00    +0.149 C 
ATOM     43  O   UNL     1       8.797  -3.135  25.094  0.00  0.00    -0.343 OA
ATOM     44  C   UNL     1       7.956  -2.899  26.223  0.00  0.00    +0.282 C 
ATOM     45  C   UNL     1       6.722  -3.847  26.220  0.00  0.00    +0.208 C 
ATOM     46  C   UNL     1       7.074  -5.309  26.014  0.00  0.00    +0.179 C 
ATOM     47  C   UNL     1       7.985  -5.432  24.796  0.00  0.00    +0.174 C 
BRANCH  47  48
ATOM     48  O   UNL     1       7.257  -5.069  23.608  0.00  0.00    -0.387 OA
ATOM     49  H   UNL     1       7.845  -4.519  23.052  0.00  0.00    +0.210 HD
ENDBRANCH  47  48
BRANCH  46  50
ATOM     50  O   UNL     1       7.661  -5.822  27.211  0.00  0.00    -0.386 OA
ATOM     51  H   UNL     1       7.254  -6.709  27.326  0.00  0.00    +0.210 HD
ENDBRANCH  46  50
BRANCH  45  52
ATOM     52  O   UNL     1       5.962  -3.785  27.446  0.00  0.00    -0.338 OA
BRANCH  52  53
ATOM     53  C   UNL     1       4.583  -3.582  27.190  0.00  0.00    +0.282 C 
ATOM     54  O   UNL     1       3.822  -4.772  27.480  0.00  0.00    -0.346 OA
ATOM     55  C   UNL     1       2.675  -4.773  26.619  0.00  0.00    +0.202 C 
ATOM     56  C   UNL     1       2.901  -3.668  25.624  0.00  0.00    +0.142 C 
ATOM     57  C   UNL     1       4.338  -3.274  25.719  0.00  0.00    +0.206 C 
BRANCH  57  58
ATOM     58  O   UNL     1       4.549  -1.911  25.293  0.00  0.00    -0.384 OA
ATOM     59  H   UNL     1       3.670  -1.502  25.166  0.00  0.00    +0.210 HD
ENDBRANCH  57  58
BRANCH  56  60
ATOM     60  O   UNL     1       2.165  -2.525  26.025  0.00  0.00    -0.381 OA
ATOM     61  H   UNL     1       2.566  -2.092  26.809  0.00  0.00    +0.210 HD
ENDBRANCH  56  60
BRANCH  56  62
ATOM     62  C   UNL     1       2.599  -4.143  24.220  0.00  0.00    +0.195 C 
BRANCH  62  63
ATOM     63  O   UNL     1       3.818  -4.309  23.529  0.00  0.00    -0.392 OA
ATOM     64  H   UNL     1       3.805  -3.673  22.817  0.00  0.00    +0.210 HD
ENDBRANCH  62  63
ENDBRANCH  56  62
ENDBRANCH  52  53
ENDBRANCH  45  52
ENDBRANCH  40  44
ENDBRANCH  39  40
ENDBRANCH   1  39
TORSDOF 21
ENDMDL
MODEL 8
REMARK VINA RESULT:      -6.5      2.302      9.469
REMARK  Name = 
REMARK  22 active torsions:
REMARK  status: ('A' for Active; 'I' for Inactive)
REMARK    1  A    between atoms: C_1  and  C_2
REMARK    2  A    between atoms: C_4  and  O_64
REMARK    3  A    between atoms: C_6  and  O_63
REMARK    4  A    between atoms: C_8  and  O_51
REMARK    5  A    between atoms: C_10  and  O_13
REMARK    6  A    between atoms: O_13  and  C_14
REMARK    7  A    between atoms: C_14  and  C_15
REMARK    8  A    between atoms: C_17  and  O_50
REMARK    9  A    between atoms: C_19  and  O_49
REMARK   10  A    between atoms: C_21  and  O_48
REMARK   11  A    between atoms: C_23  and  O_26
REMARK   12  A    between atoms: O_26  and  C_27
REMARK   13  A    between atoms: C_28  and  C_40
REMARK   14  A    between atoms: C_32  and  O_39
REMARK   15  A    between atoms: C_34  and  O_38
REMARK   16  A    between atoms: C_42  and  O_47
REMARK   17  A    between atoms: C_43  and  O_46
REMARK   18  A    between atoms: O_51  and  C_52
REMARK   19  A    between atoms: C_54  and  O_62
REMARK   20  A    between atoms: C_56  and  C_59
REMARK   21  A    between atoms: C_56  and  O_61
REMARK   22  A    between atoms: C_59  and  O_60
REMARK                            x       y       z     vdW  Elec       q    Type
REMARK                         _______ _______ _______ _____ _____    ______ ____
ROOT
ATOM      1  C   UNL     1       7.789   1.044  22.918  0.00  0.00    +0.179 C 
ATOM      2  O   UNL     1       7.366   0.166  24.014  0.00  0.00    -0.331 OA
ATOM      3  C   UNL     1       8.519  -0.562  24.526  0.00  0.00    +0.340 C 
ATOM      4  C   UNL     1       9.021  -1.592  23.488  0.00  0.00    +0.214 C 
ATOM      5  C   UNL     1       9.495  -0.732  22.287  0.00  0.00    +0.180 C 
ATOM      6  C   UNL     1       8.397   0.211  21.766  0.00  0.00    +0.177 C 
ENDROOT
BRANCH   6   7
ATOM      7  O   UNL     1       9.008   1.040  20.765  0.00  0.00    -0.386 OA
ATOM      8  H   UNL     1       8.320   1.384  20.170  0.00  0.00    +0.210 HD
ENDBRANCH   6   7
BRANCH   5   9
ATOM      9  O   UNL     1       9.984  -1.532  21.206  0.00  0.00    -0.386 OA
ATOM     10  H   UNL     1      10.681  -0.985  20.789  0.00  0.00    +0.210 HD
ENDBRANCH   5   9
BRANCH   4  11
ATOM     11  O   UNL     1      10.116  -2.362  24.015  0.00  0.00    -0.383 OA
ATOM     12  H   UNL     1       9.847  -3.299  24.025  0.00  0.00    +0.210 HD
ENDBRANCH   4  11
BRANCH   3  13
ATOM     13  O   UNL     1       8.394  -1.065  25.881  0.00  0.00    -0.453 OA
BRANCH  13  14
ATOM     14  C   UNL     1       7.226  -1.801  26.241  0.00  0.00    +0.214 A 
ATOM     15  C   UNL     1       7.275  -3.344  26.365  0.00  0.00    +0.238 A 
ATOM     16  O   UNL     1       8.130  -4.061  25.858  0.00  0.00    -0.283 OA
ATOM     17  C   UNL     1       6.270  -4.032  27.170  0.00  0.00    +0.109 A 
ATOM     18  C   UNL     1       5.106  -3.337  27.442  0.00  0.00    +0.147 A 
ATOM     19  C   UNL     1       4.119  -3.960  28.242  0.00  0.00    +0.092 A 
ATOM     20  C   UNL     1       4.362  -5.233  28.822  0.00  0.00    +0.124 A 
ATOM     21  C   UNL     1       5.533  -5.916  28.557  0.00  0.00    +0.091 A 
ATOM     22  O   UNL     1       4.956  -1.990  27.122  0.00  0.00    -0.451 OA
ATOM     23  C   UNL     1       6.497  -5.319  27.739  0.00  0.00    +0.135 A 
ATOM     24  C   UNL     1       6.083  -1.200  26.706  0.00  0.00    +0.181 A 
BRANCH  24  25
ATOM     25  C   UNL     1       5.850   0.326  26.956  0.00  0.00    +0.025 A 
ATOM     26  C   UNL     1       4.631   0.945  26.561  0.00  0.00    +0.015 A 
ATOM     27  C   UNL     1       4.342   2.316  26.756  0.00  0.00    +0.050 A 
ATOM     28  C   UNL     1       5.304   3.133  27.324  0.00  0.00    +0.158 A 
ATOM     29  C   UNL     1       6.505   2.594  27.739  0.00  0.00    +0.159 A 
ATOM     30  C   UNL     1       6.786   1.218  27.561  0.00  0.00    +0.060 A 
BRANCH  29  31
ATOM     31  O   UNL     1       7.411   3.473  28.274  0.00  0.00    -0.503 OA
ATOM     32  H   UNL     1       7.578   3.211  29.196  0.00  0.00    +0.292 HD
ENDBRANCH  29  31
BRANCH  28  33
ATOM     33  O   UNL     1       5.031   4.461  27.523  0.00  0.00    -0.503 OA
ATOM     34  H   UNL     1       4.724   4.797  26.643  0.00  0.00    +0.292 HD
ENDBRANCH  28  33
ENDBRANCH  24  25
BRANCH  23  35
ATOM     35  O   UNL     1       7.727  -5.930  27.701  0.00  0.00    -0.506 OA
ATOM     36  H   UNL     1       7.806  -6.364  26.828  0.00  0.00    +0.292 HD
ENDBRANCH  23  35
BRANCH  20  37
ATOM     37  O   UNL     1       3.621  -5.703  29.873  0.00  0.00    -0.507 OA
ATOM     38  H   UNL     1       2.676  -5.760  29.664  0.00  0.00    +0.292 HD
ENDBRANCH  20  37
ENDBRANCH  13  14
ENDBRANCH   3  13
BRANCH   1  39
ATOM     39  C   UNL     1       6.642   1.949  22.384  0.00  0.00    +0.197 C 
BRANCH  39  40
ATOM     40  O   UNL     1       6.551   3.132  23.169  0.00  0.00    -0.346 OA
BRANCH  40  44
ATOM     41  C   UNL     1       2.218   3.105  23.599  0.00  0.00    +0.041 C 
ATOM     42  C   UNL     1       3.020   3.790  22.500  0.00  0.00    +0.149 C 
ATOM     43  O   UNL     1       4.351   3.250  22.395  0.00  0.00    -0.343 OA
ATOM     44  C   UNL     1       5.214   3.574  23.485  0.00  0.00    +0.282 C 
ATOM     45  C   UNL     1       5.260   5.109  23.736  0.00  0.00    +0.208 C 
ATOM     46  C   UNL     1       3.889   5.755  23.828  0.00  0.00    +0.179 C 
ATOM     47  C   UNL     1       3.057   5.323  22.624  0.00  0.00    +0.174 C 
BRANCH  47  48
ATOM     48  O   UNL     1       3.629   5.867  21.420  0.00  0.00    -0.387 OA
ATOM     49  H   UNL     1       3.846   5.119  20.826  0.00  0.00    +0.210 HD
ENDBRANCH  47  48
BRANCH  46  50
ATOM     50  O   UNL     1       3.292   5.410  25.079  0.00  0.00    -0.386 OA
ATOM     51  H   UNL     1       2.398   5.817  25.047  0.00  0.00    +0.210 HD
ENDBRANCH  46  50
BRANCH  45  52
ATOM     52  O   UNL     1       5.952   5.459  24.954  0.00  0.00    -0.338 OA
BRANCH  52  53
ATOM     53  C   UNL     1       7.156   6.155  24.683  0.00  0.00    +0.282 C 
ATOM     54  O   UNL     1       7.318   6.380  23.268  0.00  0.00    -0.346 OA
ATOM     55  C   UNL     1       8.725   6.426  22.995  0.00  0.00    +0.202 C 
ATOM     56  C   UNL     1       9.409   5.972  24.256  0.00  0.00    +0.142 C 
ATOM     57  C   UNL     1       8.368   5.342  25.121  0.00  0.00    +0.206 C 
BRANCH  57  58
ATOM     58  O   UNL     1       8.725   5.401  26.518  0.00  0.00    -0.384 OA
ATOM     59  H   UNL     1       8.178   6.098  26.933  0.00  0.00    +0.210 HD
ENDBRANCH  57  58
BRANCH  56  60
ATOM     60  O   UNL     1       9.865   7.107  24.972  0.00  0.00    -0.381 OA
ATOM     61  H   UNL     1      10.393   7.707  24.402  0.00  0.00    +0.210 HD
ENDBRANCH  56  60
BRANCH  56  62
ATOM     62  C   UNL     1      10.487   4.958  23.942  0.00  0.00    +0.195 C 
BRANCH  62  63
ATOM     63  O   UNL     1       9.909   3.899  23.208  0.00  0.00    -0.392 OA
ATOM     64  H   UNL     1      10.638   3.426  22.812  0.00  0.00    +0.210 HD
ENDBRANCH  62  63
ENDBRANCH  56  62
ENDBRANCH  52  53
ENDBRANCH  45  52
ENDBRANCH  40  44
ENDBRANCH  39  40
ENDBRANCH   1  39
TORSDOF 21
ENDMDL
MODEL 9
REMARK VINA RESULT:      -6.5      2.080      8.261
REMARK  Name = 
REMARK  22 active torsions:
REMARK  status: ('A' for Active; 'I' for Inactive)
REMARK    1  A    between atoms: C_1  and  C_2
REMARK    2  A    between atoms: C_4  and  O_64
REMARK    3  A    between atoms: C_6  and  O_63
REMARK    4  A    between atoms: C_8  and  O_51
REMARK    5  A    between atoms: C_10  and  O_13
REMARK    6  A    between atoms: O_13  and  C_14
REMARK    7  A    between atoms: C_14  and  C_15
REMARK    8  A    between atoms: C_17  and  O_50
REMARK    9  A    between atoms: C_19  and  O_49
REMARK   10  A    between atoms: C_21  and  O_48
REMARK   11  A    between atoms: C_23  and  O_26
REMARK   12  A    between atoms: O_26  and  C_27
REMARK   13  A    between atoms: C_28  and  C_40
REMARK   14  A    between atoms: C_32  and  O_39
REMARK   15  A    between atoms: C_34  and  O_38
REMARK   16  A    between atoms: C_42  and  O_47
REMARK   17  A    between atoms: C_43  and  O_46
REMARK   18  A    between atoms: O_51  and  C_52
REMARK   19  A    between atoms: C_54  and  O_62
REMARK   20  A    between atoms: C_56  and  C_59
REMARK   21  A    between atoms: C_56  and  O_61
REMARK   22  A    between atoms: C_59  and  O_60
REMARK                            x       y       z     vdW  Elec       q    Type
REMARK                         _______ _______ _______ _____ _____    ______ ____
ROOT
ATOM      1  C   UNL     1       7.830   0.791  23.062  0.00  0.00    +0.179 C 
ATOM      2  O   UNL     1       7.262  -0.221  23.957  0.00  0.00    -0.331 OA
ATOM      3  C   UNL     1       8.338  -0.985  24.574  0.00  0.00    +0.340 C 
ATOM      4  C   UNL     1       9.048  -1.872  23.525  0.00  0.00    +0.214 C 
ATOM      5  C   UNL     1       9.687  -0.863  22.533  0.00  0.00    +0.180 C 
ATOM      6  C   UNL     1       8.657   0.116  21.943  0.00  0.00    +0.177 C 
ENDROOT
BRANCH   6   7
ATOM      7  O   UNL     1       9.397   1.071  21.168  0.00  0.00    -0.386 OA
ATOM      8  H   UNL     1      10.148   1.397  21.693  0.00  0.00    +0.210 HD
ENDBRANCH   6   7
BRANCH   5   9
ATOM      9  O   UNL     1      10.382  -1.517  21.467  0.00  0.00    -0.386 OA
ATOM     10  H   UNL     1       9.677  -1.933  20.931  0.00  0.00    +0.210 HD
ENDBRANCH   5   9
BRANCH   4  11
ATOM     11  O   UNL     1      10.067  -2.680  24.140  0.00  0.00    -0.383 OA
ATOM     12  H   UNL     1      10.018  -2.543  25.104  0.00  0.00    +0.210 HD
ENDBRANCH   4  11
BRANCH   3  13
ATOM     13  O   UNL     1       8.004  -1.652  25.818  0.00  0.00    -0.453 OA
BRANCH  13  14
ATOM     14  C   UNL     1       6.710  -1.451  26.385  0.00  0.00    +0.214 A 
ATOM     15  C   UNL     1       6.425  -0.222  27.283  0.00  0.00    +0.238 A 
ATOM     16  O   UNL     1       7.282   0.443  27.852  0.00  0.00    -0.283 OA
ATOM     17  C   UNL     1       5.050   0.237  27.457  0.00  0.00    +0.109 A 
ATOM     18  C   UNL     1       4.048  -0.668  27.157  0.00  0.00    +0.147 A 
ATOM     19  C   UNL     1       2.702  -0.252  27.289  0.00  0.00    +0.092 A 
ATOM     20  C   UNL     1       2.395   1.090  27.633  0.00  0.00    +0.124 A 
ATOM     21  C   UNL     1       3.401   1.993  27.919  0.00  0.00    +0.091 A 
ATOM     22  O   UNL     1       4.314  -1.895  26.554  0.00  0.00    -0.451 OA
ATOM     23  C   UNL     1       4.732   1.577  27.824  0.00  0.00    +0.135 A 
ATOM     24  C   UNL     1       5.611  -2.181  26.004  0.00  0.00    +0.181 A 
BRANCH  24  25
ATOM     25  C   UNL     1       5.549  -3.295  24.909  0.00  0.00    +0.025 A 
ATOM     26  C   UNL     1       5.550  -4.670  25.277  0.00  0.00    +0.015 A 
ATOM     27  C   UNL     1       5.488  -5.736  24.348  0.00  0.00    +0.050 A 
ATOM     28  C   UNL     1       5.470  -5.450  22.994  0.00  0.00    +0.158 A 
ATOM     29  C   UNL     1       5.457  -4.136  22.570  0.00  0.00    +0.159 A 
ATOM     30  C   UNL     1       5.499  -3.070  23.501  0.00  0.00    +0.060 A 
BRANCH  29  31
ATOM     31  O   UNL     1       5.459  -3.937  21.213  0.00  0.00    -0.503 OA
ATOM     32  H   UNL     1       6.369  -3.724  20.941  0.00  0.00    +0.292 HD
ENDBRANCH  29  31
BRANCH  28  33
ATOM     33  O   UNL     1       5.405  -6.474  22.087  0.00  0.00    -0.503 OA
ATOM     34  H   UNL     1       6.340  -6.784  21.979  0.00  0.00    +0.292 HD
ENDBRANCH  28  33
ENDBRANCH  24  25
BRANCH  23  35
ATOM     35  O   UNL     1       5.685   2.565  27.886  0.00  0.00    -0.506 OA
ATOM     36  H   UNL     1       6.172   2.444  28.725  0.00  0.00    +0.292 HD
ENDBRANCH  23  35
BRANCH  20  37
ATOM     37  O   UNL     1       1.154   1.627  27.417  0.00  0.00    -0.507 OA
ATOM     38  H   UNL     1       0.441   1.063  27.754  0.00  0.00    +0.292 HD
ENDBRANCH  20  37
ENDBRANCH  13  14
ENDBRANCH   3  13
BRANCH   1  39
ATOM     39  C   UNL     1       6.756   1.733  22.447  0.00  0.00    +0.197 C 
BRANCH  39  40
ATOM     40  O   UNL     1       7.376   2.907  21.934  0.00  0.00    -0.346 OA
BRANCH  40  44
ATOM     41  C   UNL     1       9.549   5.862  24.280  0.00  0.00    +0.041 C 
ATOM     42  C   UNL     1       9.117   4.475  24.737  0.00  0.00    +0.149 C 
ATOM     43  O   UNL     1       8.828   3.611  23.622  0.00  0.00    -0.343 OA
ATOM     44  C   UNL     1       7.644   3.947  22.898  0.00  0.00    +0.282 C 
ATOM     45  C   UNL     1       6.413   4.057  23.843  0.00  0.00    +0.208 C 
ATOM     46  C   UNL     1       6.654   4.930  25.062  0.00  0.00    +0.179 C 
ATOM     47  C   UNL     1       7.949   4.490  25.738  0.00  0.00    +0.174 C 
BRANCH  47  48
ATOM     48  O   UNL     1       7.788   3.162  26.274  0.00  0.00    -0.387 OA
ATOM     49  H   UNL     1       6.888   3.098  26.654  0.00  0.00    +0.210 HD
ENDBRANCH  47  48
BRANCH  46  50
ATOM     50  O   UNL     1       6.665   6.301  24.661  0.00  0.00    -0.386 OA
ATOM     51  H   UNL     1       7.424   6.694  25.145  0.00  0.00    +0.210 HD
ENDBRANCH  46  50
BRANCH  45  52
ATOM     52  O   UNL     1       5.245   4.596  23.187  0.00  0.00    -0.338 OA
BRANCH  52  53
ATOM     53  C   UNL     1       4.113   3.767  23.380  0.00  0.00    +0.282 C 
ATOM     54  O   UNL     1       3.553   3.354  22.118  0.00  0.00    -0.346 OA
ATOM     55  C   UNL     1       2.147   3.147  22.315  0.00  0.00    +0.202 C 
ATOM     56  C   UNL     1       1.834   3.691  23.683  0.00  0.00    +0.142 C 
ATOM     57  C   UNL     1       3.004   4.514  24.109  0.00  0.00    +0.206 C 
BRANCH  57  58
ATOM     58  O   UNL     1       3.106   4.597  25.546  0.00  0.00    -0.384 OA
ATOM     59  H   UNL     1       3.998   4.937  25.760  0.00  0.00    +0.210 HD
ENDBRANCH  57  58
BRANCH  56  60
ATOM     60  O   UNL     1       1.768   2.616  24.605  0.00  0.00    -0.381 OA
ATOM     61  H   UNL     1       2.646   2.199  24.740  0.00  0.00    +0.210 HD
ENDBRANCH  56  60
BRANCH  56  62
ATOM     62  C   UNL     1       0.595   4.556  23.642  0.00  0.00    +0.195 C 
BRANCH  62  63
ATOM     63  O   UNL     1       0.957   5.878  23.977  0.00  0.00    -0.392 OA
ATOM     64  H   UNL     1       0.254   6.211  24.532  0.00  0.00    +0.210 HD
ENDBRANCH  62  63
ENDBRANCH  56  62
ENDBRANCH  52  53
ENDBRANCH  45  52
ENDBRANCH  40  44
ENDBRANCH  39  40
ENDBRANCH   1  39
TORSDOF 21
ENDMDL
