MODEL 1
REMARK VINA RESULT:      -7.7      0.000      0.000
REMARK  Name = 
REMARK  21 active torsions:
REMARK  status: ('A' for Active; 'I' for Inactive)
REMARK    1  A    between atoms: C_1  and  C_2
REMARK    2  A    between atoms: C_4  and  O_56
REMARK    3  A    between atoms: C_6  and  O_52
REMARK    4  A    between atoms: C_8  and  O_51
REMARK    5  A    between atoms: C_10  and  O_13
REMARK    6  A    between atoms: O_13  and  C_14
REMARK    7  A    between atoms: C_14  and  C_15
REMARK    8  A    between atoms: C_17  and  O_50
REMARK    9  A    between atoms: C_19  and  O_49
REMARK   10  A    between atoms: C_21  and  O_48
REMARK   11  A    between atoms: C_23  and  O_26
REMARK   12  A    between atoms: O_26  and  C_27
REMARK   13  A    between atoms: C_28  and  C_40
REMARK   14  A    between atoms: C_32  and  O_39
REMARK   15  A    between atoms: C_34  and  O_38
REMARK   16  A    between atoms: C_42  and  O_47
REMARK   17  A    between atoms: C_43  and  O_46
REMARK   18  A    between atoms: O_52  and  C_53
REMARK   19  A    between atoms: C_53  and  C_55
REMARK   20  A    between atoms: O_56  and  C_57
REMARK   21  A    between atoms: C_57  and  C_59
REMARK                            x       y       z     vdW  Elec       q    Type
REMARK                         _______ _______ _______ _____ _____    ______ ____
ROOT
ATOM      1  C   UNL     1       5.221   0.105  26.632  0.00  0.00    +0.179 C 
ATOM      2  O   UNL     1       5.418   0.399  25.237  0.00  0.00    -0.331 OA
ATOM      3  C   UNL     1       5.566   1.807  25.023  0.00  0.00    +0.340 C 
ATOM      4  C   UNL     1       4.171   2.444  25.236  0.00  0.00    +0.214 C 
ATOM      5  C   UNL     1       3.765   2.112  26.706  0.00  0.00    +0.180 C 
ATOM      6  C   UNL     1       3.828   0.604  27.018  0.00  0.00    +0.177 C 
ENDROOT
BRANCH   6   7
ATOM      7  O   UNL     1       3.562   0.424  28.416  0.00  0.00    -0.386 OA
ATOM      8  H   UNL     1       2.601   0.287  28.502  0.00  0.00    +0.210 HD
ENDBRANCH   6   7
BRANCH   5   9
ATOM      9  O   UNL     1       2.466   2.615  27.037  0.00  0.00    -0.386 OA
ATOM     10  H   UNL     1       2.344   3.391  26.449  0.00  0.00    +0.210 HD
ENDBRANCH   5   9
BRANCH   4  11
ATOM     11  O   UNL     1       4.234   3.865  25.032  0.00  0.00    -0.383 OA
ATOM     12  H   UNL     1       4.926   4.041  24.369  0.00  0.00    +0.210 HD
ENDBRANCH   4  11
BRANCH   3  13
ATOM     13  O   UNL     1       6.216   2.060  23.750  0.00  0.00    -0.453 OA
BRANCH  13  14
ATOM     14  C   UNL     1       7.580   2.401  23.872  0.00  0.00    +0.214 A 
ATOM     15  C   UNL     1       7.985   3.835  24.138  0.00  0.00    +0.238 A 
ATOM     16  O   UNL     1       7.274   4.647  24.707  0.00  0.00    -0.283 OA
ATOM     17  C   UNL     1       9.319   4.271  23.793  0.00  0.00    +0.109 A 
ATOM     18  C   UNL     1      10.278   3.284  23.728  0.00  0.00    +0.147 A 
ATOM     19  C   UNL     1      11.617   3.649  23.577  0.00  0.00    +0.092 A 
ATOM     20  C   UNL     1      11.953   5.003  23.495  0.00  0.00    +0.124 A 
ATOM     21  C   UNL     1      10.985   5.998  23.544  0.00  0.00    +0.091 A 
ATOM     22  O   UNL     1       9.966   1.960  23.873  0.00  0.00    -0.451 OA
ATOM     23  C   UNL     1       9.657   5.629  23.682  0.00  0.00    +0.135 A 
ATOM     24  C   UNL     1       8.623   1.521  23.870  0.00  0.00    +0.181 A 
BRANCH  24  25
ATOM     25  C   UNL     1       8.579   0.007  23.985  0.00  0.00    +0.025 A 
ATOM     26  C   UNL     1       8.695  -0.765  22.793  0.00  0.00    +0.015 A 
ATOM     27  C   UNL     1       8.912  -2.150  22.799  0.00  0.00    +0.050 A 
ATOM     28  C   UNL     1       8.987  -2.806  24.008  0.00  0.00    +0.158 A 
ATOM     29  C   UNL     1       8.752  -2.110  25.186  0.00  0.00    +0.159 A 
ATOM     30  C   UNL     1       8.558  -0.716  25.190  0.00  0.00    +0.060 A 
BRANCH  28  31
ATOM     31  O   UNL     1       9.305  -4.133  24.029  0.00  0.00    -0.503 OA
ATOM     32  H   UNL     1       8.451  -4.595  23.911  0.00  0.00    +0.292 HD
ENDBRANCH  28  31
BRANCH  29  33
ATOM     33  O   UNL     1       8.732  -2.845  26.343  0.00  0.00    -0.503 OA
ATOM     34  H   UNL     1       9.424  -2.484  26.924  0.00  0.00    +0.292 HD
ENDBRANCH  29  33
ENDBRANCH  24  25
BRANCH  23  35
ATOM     35  O   UNL     1       8.697   6.603  23.690  0.00  0.00    -0.506 OA
ATOM     36  H   UNL     1       8.766   7.139  22.883  0.00  0.00    +0.292 HD
ENDBRANCH  23  35
BRANCH  20  37
ATOM     37  O   UNL     1      13.249   5.414  23.365  0.00  0.00    -0.507 OA
ATOM     38  H   UNL     1      13.766   4.707  22.959  0.00  0.00    +0.292 HD
ENDBRANCH  20  37
ENDBRANCH  13  14
ENDBRANCH   3  13
BRANCH   1  39
ATOM     39  C   UNL     1       5.453  -1.389  26.875  0.00  0.00    +0.197 C 
BRANCH  39  40
ATOM     40  O   UNL     1       4.240  -2.092  26.631  0.00  0.00    -0.346 OA
BRANCH  40  44
ATOM     41  C   UNL     1       5.721  -6.196  26.555  0.00  0.00    +0.042 C 
ATOM     42  C   UNL     1       6.116  -5.067  25.597  0.00  0.00    +0.163 C 
ATOM     43  O   UNL     1       5.815  -3.785  26.167  0.00  0.00    -0.342 OA
ATOM     44  C   UNL     1       4.432  -3.443  26.205  0.00  0.00    +0.283 C 
ATOM     45  C   UNL     1       3.773  -3.524  24.812  0.00  0.00    +0.214 C 
ATOM     46  C   UNL     1       4.024  -4.901  24.168  0.00  0.00    +0.253 C 
ATOM     47  C   UNL     1       5.530  -5.189  24.171  0.00  0.00    +0.248 C 
BRANCH  45  48
ATOM     48  O   UNL     1       2.354  -3.270  24.849  0.00  0.00    -0.383 OA
ATOM     49  H   UNL     1       1.995  -3.717  25.633  0.00  0.00    +0.210 HD
ENDBRANCH  45  48
BRANCH  46  50
ATOM     50  O   UNL     1       3.279  -5.879  24.927  0.00  0.00    -0.455 OA
BRANCH  50  51
ATOM     51  C   UNL     1       2.914  -7.006  24.258  0.00  0.00    +0.304 C 
ATOM     52  C   UNL     1       2.162  -6.669  23.010  0.00  0.00    +0.136 C 
ATOM     53  O   UNL     1       3.121  -8.141  24.648  0.00  0.00    -0.251 OA
ENDBRANCH  50  51
ENDBRANCH  46  50
BRANCH  47  54
ATOM     54  O   UNL     1       6.138  -4.192  23.305  0.00  0.00    -0.455 OA
BRANCH  54  55
ATOM     55  C   UNL     1       6.174  -4.467  21.978  0.00  0.00    +0.304 C 
ATOM     56  C   UNL     1       7.022  -5.672  21.692  0.00  0.00    +0.136 C 
ATOM     57  O   UNL     1       5.577  -3.827  21.115  0.00  0.00    -0.251 OA
ENDBRANCH  54  55
ENDBRANCH  47  54
ENDBRANCH  40  44
ENDBRANCH  39  40
ENDBRANCH   1  39
TORSDOF 18
ENDMDL
MODEL 2
REMARK VINA RESULT:      -7.6      2.139      6.699
REMARK  Name = 
REMARK  21 active torsions:
REMARK  status: ('A' for Active; 'I' for Inactive)
REMARK    1  A    between atoms: C_1  and  C_2
REMARK    2  A    between atoms: C_4  and  O_56
REMARK    3  A    between atoms: C_6  and  O_52
REMARK    4  A    between atoms: C_8  and  O_51
REMARK    5  A    between atoms: C_10  and  O_13
REMARK    6  A    between atoms: O_13  and  C_14
REMARK    7  A    between atoms: C_14  and  C_15
REMARK    8  A    between atoms: C_17  and  O_50
REMARK    9  A    between atoms: C_19  and  O_49
REMARK   10  A    between atoms: C_21  and  O_48
REMARK   11  A    between atoms: C_23  and  O_26
REMARK   12  A    between atoms: O_26  and  C_27
REMARK   13  A    between atoms: C_28  and  C_40
REMARK   14  A    between atoms: C_32  and  O_39
REMARK   15  A    between atoms: C_34  and  O_38
REMARK   16  A    between atoms: C_42  and  O_47
REMARK   17  A    between atoms: C_43  and  O_46
REMARK   18  A    between atoms: O_52  and  C_53
REMARK   19  A    between atoms: C_53  and  C_55
REMARK   20  A    between atoms: O_56  and  C_57
REMARK   21  A    between atoms: C_57  and  C_59
REMARK                            x       y       z     vdW  Elec       q    Type
REMARK                         _______ _______ _______ _____ _____    ______ ____
ROOT
ATOM      1  C   UNL     1       6.026  -3.049  26.835  0.00  0.00    +0.179 C 
ATOM      2  O   UNL     1       7.300  -2.450  26.537  0.00  0.00    -0.331 OA
ATOM      3  C   UNL     1       8.090  -3.307  25.704  0.00  0.00    +0.340 C 
ATOM      4  C   UNL     1       8.553  -4.492  26.587  0.00  0.00    +0.214 C 
ATOM      5  C   UNL     1       7.250  -5.193  27.084  0.00  0.00    +0.180 C 
ATOM      6  C   UNL     1       6.277  -4.222  27.783  0.00  0.00    +0.177 C 
ENDROOT
BRANCH   6   7
ATOM      7  O   UNL     1       5.070  -4.936  28.084  0.00  0.00    -0.386 OA
ATOM      8  H   UNL     1       5.340  -5.803  28.440  0.00  0.00    +0.210 HD
ENDBRANCH   6   7
BRANCH   5   9
ATOM      9  O   UNL     1       7.526  -6.299  27.950  0.00  0.00    -0.386 OA
ATOM     10  H   UNL     1       7.373  -5.950  28.854  0.00  0.00    +0.210 HD
ENDBRANCH   5   9
BRANCH   4  11
ATOM     11  O   UNL     1       9.361  -5.399  25.822  0.00  0.00    -0.383 OA
ATOM     12  H   UNL     1      10.104  -4.894  25.446  0.00  0.00    +0.210 HD
ENDBRANCH   4  11
BRANCH   3  13
ATOM     13  O   UNL     1       9.127  -2.544  25.033  0.00  0.00    -0.453 OA
BRANCH  13  14
ATOM     14  C   UNL     1       8.624  -1.549  24.168  0.00  0.00    +0.214 A 
ATOM     15  C   UNL     1       9.366  -0.241  24.000  0.00  0.00    +0.238 A 
ATOM     16  O   UNL     1      10.568  -0.115  24.163  0.00  0.00    -0.283 OA
ATOM     17  C   UNL     1       8.651   0.925  23.529  0.00  0.00    +0.109 A 
ATOM     18  C   UNL     1       7.513   0.677  22.792  0.00  0.00    +0.147 A 
ATOM     19  C   UNL     1       6.872   1.741  22.157  0.00  0.00    +0.092 A 
ATOM     20  C   UNL     1       7.398   3.030  22.280  0.00  0.00    +0.124 A 
ATOM     21  C   UNL     1       8.536   3.283  23.036  0.00  0.00    +0.091 A 
ATOM     22  O   UNL     1       7.028  -0.590  22.613  0.00  0.00    -0.451 OA
ATOM     23  C   UNL     1       9.160   2.225  23.674  0.00  0.00    +0.135 A 
ATOM     24  C   UNL     1       7.537  -1.679  23.354  0.00  0.00    +0.181 A 
BRANCH  24  25
ATOM     25  C   UNL     1       6.775  -2.944  22.993  0.00  0.00    +0.025 A 
ATOM     26  C   UNL     1       7.521  -4.088  22.587  0.00  0.00    +0.015 A 
ATOM     27  C   UNL     1       6.955  -5.366  22.469  0.00  0.00    +0.050 A 
ATOM     28  C   UNL     1       5.611  -5.523  22.726  0.00  0.00    +0.158 A 
ATOM     29  C   UNL     1       4.825  -4.411  23.000  0.00  0.00    +0.159 A 
ATOM     30  C   UNL     1       5.390  -3.130  23.145  0.00  0.00    +0.060 A 
BRANCH  28  31
ATOM     31  O   UNL     1       5.073  -6.777  22.719  0.00  0.00    -0.503 OA
ATOM     32  H   UNL     1       4.230  -6.684  22.231  0.00  0.00    +0.292 HD
ENDBRANCH  28  31
BRANCH  29  33
ATOM     33  O   UNL     1       3.479  -4.626  23.136  0.00  0.00    -0.503 OA
ATOM     34  H   UNL     1       3.293  -4.689  24.089  0.00  0.00    +0.292 HD
ENDBRANCH  29  33
ENDBRANCH  24  25
BRANCH  23  35
ATOM     35  O   UNL     1      10.257   2.475  24.451  0.00  0.00    -0.506 OA
ATOM     36  H   UNL     1      11.066   2.342  23.931  0.00  0.00    +0.292 HD
ENDBRANCH  23  35
BRANCH  20  37
ATOM     37  O   UNL     1       6.820   4.103  21.664  0.00  0.00    -0.507 OA
ATOM     38  H   UNL     1       6.826   3.960  20.710  0.00  0.00    +0.292 HD
ENDBRANCH  20  37
ENDBRANCH  13  14
ENDBRANCH   3  13
BRANCH   1  39
ATOM     39  C   UNL     1       5.076  -1.980  27.381  0.00  0.00    +0.197 C 
BRANCH  39  40
ATOM     40  O   UNL     1       4.629  -1.164  26.305  0.00  0.00    -0.346 OA
BRANCH  40  44
ATOM     41  C   UNL     1       2.906   2.507  27.916  0.00  0.00    +0.042 C 
ATOM     42  C   UNL     1       3.032   2.134  26.436  0.00  0.00    +0.163 C 
ATOM     43  O   UNL     1       3.207   0.718  26.280  0.00  0.00    -0.342 OA
ATOM     44  C   UNL     1       4.490   0.217  26.648  0.00  0.00    +0.283 C 
ATOM     45  C   UNL     1       5.633   0.936  25.900  0.00  0.00    +0.214 C 
ATOM     46  C   UNL     1       5.523   2.462  26.071  0.00  0.00    +0.253 C 
ATOM     47  C   UNL     1       4.117   2.914  25.658  0.00  0.00    +0.248 C 
BRANCH  45  48
ATOM     48  O   UNL     1       6.940   0.504  26.329  0.00  0.00    -0.383 OA
ATOM     49  H   UNL     1       6.817  -0.221  26.963  0.00  0.00    +0.210 HD
ENDBRANCH  45  48
BRANCH  46  50
ATOM     50  O   UNL     1       5.810   2.767  27.454  0.00  0.00    -0.455 OA
BRANCH  50  51
ATOM     51  C   UNL     1       6.818   3.654  27.676  0.00  0.00    +0.304 C 
ATOM     52  C   UNL     1       7.437   4.095  26.388  0.00  0.00    +0.136 C 
ATOM     53  O   UNL     1       7.203   4.002  28.777  0.00  0.00    -0.251 OA
ENDBRANCH  50  51
ENDBRANCH  46  50
BRANCH  47  54
ATOM     54  O   UNL     1       3.999   2.631  24.236  0.00  0.00    -0.455 OA
BRANCH  54  55
ATOM     55  C   UNL     1       3.915   3.695  23.401  0.00  0.00    +0.304 C 
ATOM     56  C   UNL     1       2.990   3.418  22.253  0.00  0.00    +0.136 C 
ATOM     57  O   UNL     1       4.506   4.761  23.564  0.00  0.00    -0.251 OA
ENDBRANCH  54  55
ENDBRANCH  47  54
ENDBRANCH  40  44
ENDBRANCH  39  40
ENDBRANCH   1  39
TORSDOF 18
ENDMDL
MODEL 3
REMARK VINA RESULT:      -7.6      1.885      9.803
REMARK  Name = 
REMARK  21 active torsions:
REMARK  status: ('A' for Active; 'I' for Inactive)
REMARK    1  A    between atoms: C_1  and  C_2
REMARK    2  A    between atoms: C_4  and  O_56
REMARK    3  A    between atoms: C_6  and  O_52
REMARK    4  A    between atoms: C_8  and  O_51
REMARK    5  A    between atoms: C_10  and  O_13
REMARK    6  A    between atoms: O_13  and  C_14
REMARK    7  A    between atoms: C_14  and  C_15
REMARK    8  A    between atoms: C_17  and  O_50
REMARK    9  A    between atoms: C_19  and  O_49
REMARK   10  A    between atoms: C_21  and  O_48
REMARK   11  A    between atoms: C_23  and  O_26
REMARK   12  A    between atoms: O_26  and  C_27
REMARK   13  A    between atoms: C_28  and  C_40
REMARK   14  A    between atoms: C_32  and  O_39
REMARK   15  A    between atoms: C_34  and  O_38
REMARK   16  A    between atoms: C_42  and  O_47
REMARK   17  A    between atoms: C_43  and  O_46
REMARK   18  A    between atoms: O_52  and  C_53
REMARK   19  A    between atoms: C_53  and  C_55
REMARK   20  A    between atoms: O_56  and  C_57
REMARK   21  A    between atoms: C_57  and  C_59
REMARK                            x       y       z     vdW  Elec       q    Type
REMARK                         _______ _______ _______ _____ _____    ______ ____
ROOT
ATOM      1  C   UNL     1       8.006  -2.630  24.934  0.00  0.00    +0.179 C 
ATOM      2  O   UNL     1       6.783  -3.183  25.453  0.00  0.00    -0.331 OA
ATOM      3  C   UNL     1       7.015  -3.886  26.679  0.00  0.00    +0.340 C 
ATOM      4  C   UNL     1       7.764  -5.191  26.315  0.00  0.00    +0.214 C 
ATOM      5  C   UNL     1       9.095  -4.748  25.631  0.00  0.00    +0.180 C 
ATOM      6  C   UNL     1       8.867  -3.794  24.442  0.00  0.00    +0.177 C 
ENDROOT
BRANCH   6   7
ATOM      7  O   UNL     1      10.148  -3.351  23.970  0.00  0.00    -0.386 OA
ATOM      8  H   UNL     1      10.512  -4.076  23.430  0.00  0.00    +0.210 HD
ENDBRANCH   6   7
BRANCH   5   9
ATOM      9  O   UNL     1       9.883  -5.864  25.205  0.00  0.00    -0.386 OA
ATOM     10  H   UNL     1      10.760  -5.722  25.622  0.00  0.00    +0.210 HD
ENDBRANCH   5   9
BRANCH   4  11
ATOM     11  O   UNL     1       8.029  -5.961  27.498  0.00  0.00    -0.383 OA
ATOM     12  H   UNL     1       8.921  -5.729  27.813  0.00  0.00    +0.210 HD
ENDBRANCH   4  11
BRANCH   3  13
ATOM     13  O   UNL     1       5.776  -4.025  27.424  0.00  0.00    -0.453 OA
BRANCH  13  14
ATOM     14  C   UNL     1       4.633  -4.125  26.602  0.00  0.00    +0.214 A 
ATOM     15  C   UNL     1       4.163  -5.479  26.115  0.00  0.00    +0.238 A 
ATOM     16  O   UNL     1       4.374  -6.525  26.705  0.00  0.00    -0.283 OA
ATOM     17  C   UNL     1       3.334  -5.558  24.932  0.00  0.00    +0.109 A 
ATOM     18  C   UNL     1       2.614  -4.424  24.625  0.00  0.00    +0.147 A 
ATOM     19  C   UNL     1       1.661  -4.483  23.607  0.00  0.00    +0.092 A 
ATOM     20  C   UNL     1       1.459  -5.687  22.925  0.00  0.00    +0.124 A 
ATOM     21  C   UNL     1       2.196  -6.825  23.225  0.00  0.00    +0.091 A 
ATOM     22  O   UNL     1       2.758  -3.260  25.329  0.00  0.00    -0.451 OA
ATOM     23  C   UNL     1       3.149  -6.758  24.227  0.00  0.00    +0.135 A 
ATOM     24  C   UNL     1       3.810  -3.094  26.258  0.00  0.00    +0.181 A 
BRANCH  24  25
ATOM     25  C   UNL     1       3.760  -1.692  26.841  0.00  0.00    +0.025 A 
ATOM     26  C   UNL     1       2.805  -1.419  27.863  0.00  0.00    +0.015 A 
ATOM     27  C   UNL     1       2.829  -0.251  28.638  0.00  0.00    +0.050 A 
ATOM     28  C   UNL     1       3.799   0.694  28.385  0.00  0.00    +0.158 A 
ATOM     29  C   UNL     1       4.668   0.523  27.316  0.00  0.00    +0.159 A 
ATOM     30  C   UNL     1       4.665  -0.657  26.549  0.00  0.00    +0.060 A 
BRANCH  28  31
ATOM     31  O   UNL     1       3.898   1.783  29.202  0.00  0.00    -0.503 OA
ATOM     32  H   UNL     1       4.671   2.278  28.865  0.00  0.00    +0.292 HD
ENDBRANCH  28  31
BRANCH  29  33
ATOM     33  O   UNL     1       5.534   1.553  27.055  0.00  0.00    -0.503 OA
ATOM     34  H   UNL     1       5.731   1.984  27.904  0.00  0.00    +0.292 HD
ENDBRANCH  29  33
ENDBRANCH  24  25
BRANCH  23  35
ATOM     35  O   UNL     1       3.905  -7.864  24.498  0.00  0.00    -0.506 OA
ATOM     36  H   UNL     1       3.878  -8.057  25.449  0.00  0.00    +0.292 HD
ENDBRANCH  23  35
BRANCH  20  37
ATOM     37  O   UNL     1       0.527  -5.802  21.934  0.00  0.00    -0.507 OA
ATOM     38  H   UNL     1       0.192  -6.707  21.919  0.00  0.00    +0.292 HD
ENDBRANCH  20  37
ENDBRANCH  13  14
ENDBRANCH   3  13
BRANCH   1  39
ATOM     39  C   UNL     1       7.679  -1.582  23.866  0.00  0.00    +0.197 C 
BRANCH  39  40
ATOM     40  O   UNL     1       8.736  -0.632  23.809  0.00  0.00    -0.346 OA
BRANCH  40  44
ATOM     41  C   UNL     1       7.023   2.963  22.027  0.00  0.00    +0.042 C 
ATOM     42  C   UNL     1       8.504   2.710  22.323  0.00  0.00    +0.163 C 
ATOM     43  O   UNL     1       8.765   1.306  22.467  0.00  0.00    -0.342 OA
ATOM     44  C   UNL     1       8.291   0.719  23.676  0.00  0.00    +0.283 C 
ATOM     45  C   UNL     1       8.828   1.447  24.927  0.00  0.00    +0.214 C 
ATOM     46  C   UNL     1       8.535   2.956  24.849  0.00  0.00    +0.253 C 
ATOM     47  C   UNL     1       9.073   3.504  23.522  0.00  0.00    +0.248 C 
BRANCH  45  48
ATOM     48  O   UNL     1       8.284   0.921  26.156  0.00  0.00    -0.383 OA
ATOM     49  H   UNL     1       7.890   1.662  26.644  0.00  0.00    +0.210 HD
ENDBRANCH  45  48
BRANCH  46  50
ATOM     50  O   UNL     1       7.106   3.130  24.973  0.00  0.00    -0.455 OA
BRANCH  50  51
ATOM     51  C   UNL     1       6.685   4.348  25.407  0.00  0.00    +0.304 C 
ATOM     52  C   UNL     1       7.411   4.755  26.650  0.00  0.00    +0.136 C 
ATOM     53  O   UNL     1       5.796   5.000  24.888  0.00  0.00    -0.251 OA
ENDBRANCH  50  51
ENDBRANCH  46  50
BRANCH  47  54
ATOM     54  O   UNL     1      10.518   3.348  23.572  0.00  0.00    -0.455 OA
BRANCH  54  55
ATOM     55  C   UNL     1      11.263   4.478  23.499  0.00  0.00    +0.304 C 
ATOM     56  C   UNL     1      10.422   5.703  23.710  0.00  0.00    +0.136 C 
ATOM     57  O   UNL     1      12.476   4.505  23.301  0.00  0.00    -0.251 OA
ENDBRANCH  54  55
ENDBRANCH  47  54
ENDBRANCH  40  44
ENDBRANCH  39  40
ENDBRANCH   1  39
TORSDOF 18
ENDMDL
MODEL 4
REMARK VINA RESULT:      -7.3      1.981      8.691
REMARK  Name = 
REMARK  21 active torsions:
REMARK  status: ('A' for Active; 'I' for Inactive)
REMARK    1  A    between atoms: C_1  and  C_2
REMARK    2  A    between atoms: C_4  and  O_56
REMARK    3  A    between atoms: C_6  and  O_52
REMARK    4  A    between atoms: C_8  and  O_51
REMARK    5  A    between atoms: C_10  and  O_13
REMARK    6  A    between atoms: O_13  and  C_14
REMARK    7  A    between atoms: C_14  and  C_15
REMARK    8  A    between atoms: C_17  and  O_50
REMARK    9  A    between atoms: C_19  and  O_49
REMARK   10  A    between atoms: C_21  and  O_48
REMARK   11  A    between atoms: C_23  and  O_26
REMARK   12  A    between atoms: O_26  and  C_27
REMARK   13  A    between atoms: C_28  and  C_40
REMARK   14  A    between atoms: C_32  and  O_39
REMARK   15  A    between atoms: C_34  and  O_38
REMARK   16  A    between atoms: C_42  and  O_47
REMARK   17  A    between atoms: C_43  and  O_46
REMARK   18  A    between atoms: O_52  and  C_53
REMARK   19  A    between atoms: C_53  and  C_55
REMARK   20  A    between atoms: O_56  and  C_57
REMARK   21  A    between atoms: C_57  and  C_59
REMARK                            x       y       z     vdW  Elec       q    Type
REMARK                         _______ _______ _______ _____ _____    ______ ____
ROOT
ATOM      1  C   UNL     1       8.082  -2.563  24.622  0.00  0.00    +0.179 C 
ATOM      2  O   UNL     1       6.843  -3.137  25.079  0.00  0.00    -0.331 OA
ATOM      3  C   UNL     1       7.001  -3.740  26.368  0.00  0.00    +0.340 C 
ATOM      4  C   UNL     1       7.833  -5.030  26.164  0.00  0.00    +0.214 C 
ATOM      5  C   UNL     1       9.197  -4.571  25.560  0.00  0.00    +0.180 C 
ATOM      6  C   UNL     1       9.030  -3.715  24.289  0.00  0.00    +0.177 C 
ENDROOT
BRANCH   6   7
ATOM      7  O   UNL     1      10.326  -3.245  23.892  0.00  0.00    -0.386 OA
ATOM      8  H   UNL     1      10.763  -3.985  23.432  0.00  0.00    +0.210 HD
ENDBRANCH   6   7
BRANCH   5   9
ATOM      9  O   UNL     1      10.065  -5.675  25.283  0.00  0.00    -0.386 OA
ATOM     10  H   UNL     1      10.774  -5.297  24.719  0.00  0.00    +0.210 HD
ENDBRANCH   5   9
BRANCH   4  11
ATOM     11  O   UNL     1       8.030  -5.701  27.419  0.00  0.00    -0.383 OA
ATOM     12  H   UNL     1       8.159  -5.022  28.104  0.00  0.00    +0.210 HD
ENDBRANCH   4  11
BRANCH   3  13
ATOM     13  O   UNL     1       5.710  -3.887  27.018  0.00  0.00    -0.453 OA
BRANCH  13  14
ATOM     14  C   UNL     1       4.890  -2.745  26.905  0.00  0.00    +0.214 A 
ATOM     15  C   UNL     1       5.379  -1.404  27.409  0.00  0.00    +0.238 A 
ATOM     16  O   UNL     1       6.557  -1.095  27.486  0.00  0.00    -0.283 OA
ATOM     17  C   UNL     1       4.417  -0.375  27.738  0.00  0.00    +0.109 A 
ATOM     18  C   UNL     1       3.193  -0.473  27.114  0.00  0.00    +0.147 A 
ATOM     19  C   UNL     1       2.281   0.575  27.244  0.00  0.00    +0.092 A 
ATOM     20  C   UNL     1       2.629   1.697  28.001  0.00  0.00    +0.124 A 
ATOM     21  C   UNL     1       3.857   1.789  28.644  0.00  0.00    +0.091 A 
ATOM     22  O   UNL     1       2.869  -1.537  26.318  0.00  0.00    -0.451 OA
ATOM     23  C   UNL     1       4.753   0.740  28.521  0.00  0.00    +0.135 A 
ATOM     24  C   UNL     1       3.680  -2.693  26.276  0.00  0.00    +0.181 A 
BRANCH  24  25
ATOM     25  C   UNL     1       3.049  -3.729  25.361  0.00  0.00    +0.025 A 
ATOM     26  C   UNL     1       1.629  -3.835  25.339  0.00  0.00    +0.015 A 
ATOM     27  C   UNL     1       0.933  -4.571  24.369  0.00  0.00    +0.050 A 
ATOM     28  C   UNL     1       1.650  -5.250  23.410  0.00  0.00    +0.158 A 
ATOM     29  C   UNL     1       3.037  -5.276  23.473  0.00  0.00    +0.159 A 
ATOM     30  C   UNL     1       3.743  -4.520  24.428  0.00  0.00    +0.060 A 
BRANCH  28  31
ATOM     31  O   UNL     1       0.983  -5.880  22.400  0.00  0.00    -0.503 OA
ATOM     32  H   UNL     1       0.406  -5.192  22.014  0.00  0.00    +0.292 HD
ENDBRANCH  28  31
BRANCH  29  33
ATOM     33  O   UNL     1       3.682  -6.061  22.554  0.00  0.00    -0.503 OA
ATOM     34  H   UNL     1       3.500  -5.682  21.676  0.00  0.00    +0.292 HD
ENDBRANCH  29  33
ENDBRANCH  24  25
BRANCH  23  35
ATOM     35  O   UNL     1       5.947   0.808  29.186  0.00  0.00    -0.506 OA
ATOM     36  H   UNL     1       6.443  -0.016  29.055  0.00  0.00    +0.292 HD
ENDBRANCH  23  35
BRANCH  20  37
ATOM     37  O   UNL     1       1.781   2.757  28.144  0.00  0.00    -0.507 OA
ATOM     38  H   UNL     1       1.096   2.708  27.466  0.00  0.00    +0.292 HD
ENDBRANCH  20  37
ENDBRANCH  13  14
ENDBRANCH   3  13
BRANCH   1  39
ATOM     39  C   UNL     1       7.802  -1.610  23.457  0.00  0.00    +0.197 C 
BRANCH  39  40
ATOM     40  O   UNL     1       8.849  -0.651  23.380  0.00  0.00    -0.346 OA
BRANCH  40  44
ATOM     41  C   UNL     1       6.937   3.115  22.286  0.00  0.00    +0.042 C 
ATOM     42  C   UNL     1       8.443   2.842  22.347  0.00  0.00    +0.163 C 
ATOM     43  O   UNL     1       8.710   1.434  22.286  0.00  0.00    -0.342 OA
ATOM     44  C   UNL     1       8.400   0.703  23.470  0.00  0.00    +0.283 C 
ATOM     45  C   UNL     1       9.107   1.282  24.714  0.00  0.00    +0.214 C 
ATOM     46  C   UNL     1       8.818   2.787  24.857  0.00  0.00    +0.253 C 
ATOM     47  C   UNL     1       9.175   3.494  23.543  0.00  0.00    +0.248 C 
BRANCH  45  48
ATOM     48  O   UNL     1       8.732   0.609  25.934  0.00  0.00    -0.383 OA
ATOM     49  H   UNL     1       7.966   1.077  26.305  0.00  0.00    +0.210 HD
ENDBRANCH  45  48
BRANCH  46  50
ATOM     50  O   UNL     1       7.420   2.932  25.193  0.00  0.00    -0.455 OA
BRANCH  50  51
ATOM     51  C   UNL     1       7.149   3.492  26.403  0.00  0.00    +0.304 C 
ATOM     52  C   UNL     1       6.886   4.958  26.269  0.00  0.00    +0.136 C 
ATOM     53  O   UNL     1       7.169   2.893  27.463  0.00  0.00    -0.251 OA
ENDBRANCH  50  51
ENDBRANCH  46  50
BRANCH  47  54
ATOM     54  O   UNL     1      10.612   3.346  23.378  0.00  0.00    -0.455 OA
BRANCH  54  55
ATOM     55  C   UNL     1      11.360   4.474  23.448  0.00  0.00    +0.304 C 
ATOM     56  C   UNL     1      10.504   5.683  23.692  0.00  0.00    +0.136 C 
ATOM     57  O   UNL     1      12.584   4.509  23.344  0.00  0.00    -0.251 OA
ENDBRANCH  54  55
ENDBRANCH  47  54
ENDBRANCH  40  44
ENDBRANCH  39  40
ENDBRANCH   1  39
TORSDOF 18
ENDMDL
MODEL 5
REMARK VINA RESULT:      -7.2      2.148      6.053
REMARK  Name = 
REMARK  21 active torsions:
REMARK  status: ('A' for Active; 'I' for Inactive)
REMARK    1  A    between atoms: C_1  and  C_2
REMARK    2  A    between atoms: C_4  and  O_56
REMARK    3  A    between atoms: C_6  and  O_52
REMARK    4  A    between atoms: C_8  and  O_51
REMARK    5  A    between atoms: C_10  and  O_13
REMARK    6  A    between atoms: O_13  and  C_14
REMARK    7  A    between atoms: C_14  and  C_15
REMARK    8  A    between atoms: C_17  and  O_50
REMARK    9  A    between atoms: C_19  and  O_49
REMARK   10  A    between atoms: C_21  and  O_48
REMARK   11  A    between atoms: C_23  and  O_26
REMARK   12  A    between atoms: O_26  and  C_27
REMARK   13  A    between atoms: C_28  and  C_40
REMARK   14  A    between atoms: C_32  and  O_39
REMARK   15  A    between atoms: C_34  and  O_38
REMARK   16  A    between atoms: C_42  and  O_47
REMARK   17  A    between atoms: C_43  and  O_46
REMARK   18  A    between atoms: O_52  and  C_53
REMARK   19  A    between atoms: C_53  and  C_55
REMARK   20  A    between atoms: O_56  and  C_57
REMARK   21  A    between atoms: C_57  and  C_59
REMARK                            x       y       z     vdW  Elec       q    Type
REMARK                         _______ _______ _______ _____ _____    ______ ____
ROOT
ATOM      1  C   UNL     1       8.139  -0.946  24.358  0.00  0.00    +0.179 C 
ATOM      2  O   UNL     1       8.736   0.235  24.923  0.00  0.00    -0.331 OA
ATOM      3  C   UNL     1       8.577   1.360  24.052  0.00  0.00    +0.340 C 
ATOM      4  C   UNL     1       9.522   1.135  22.847  0.00  0.00    +0.214 C 
ATOM      5  C   UNL     1       9.057  -0.197  22.178  0.00  0.00    +0.180 C 
ATOM      6  C   UNL     1       8.999  -1.376  23.170  0.00  0.00    +0.177 C 
ENDROOT
BRANCH   6   7
ATOM      7  O   UNL     1       8.444  -2.509  22.487  0.00  0.00    -0.386 OA
ATOM      8  H   UNL     1       8.873  -3.299  22.863  0.00  0.00    +0.210 HD
ENDBRANCH   6   7
BRANCH   5   9
ATOM      9  O   UNL     1       9.872  -0.554  21.057  0.00  0.00    -0.386 OA
ATOM     10  H   UNL     1      10.470   0.213  20.931  0.00  0.00    +0.210 HD
ENDBRANCH   5   9
BRANCH   4  11
ATOM     11  O   UNL     1       9.425   2.231  21.924  0.00  0.00    -0.383 OA
ATOM     12  H   UNL     1       9.436   1.864  21.021  0.00  0.00    +0.210 HD
ENDBRANCH   4  11
BRANCH   3  13
ATOM     13  O   UNL     1       8.740   2.600  24.791  0.00  0.00    -0.453 OA
BRANCH  13  14
ATOM     14  C   UNL     1       7.857   3.621  24.380  0.00  0.00    +0.214 A 
ATOM     15  C   UNL     1       6.365   3.370  24.348  0.00  0.00    +0.238 A 
ATOM     16  O   UNL     1       5.797   2.556  25.057  0.00  0.00    -0.283 OA
ATOM     17  C   UNL     1       5.525   4.191  23.503  0.00  0.00    +0.109 A 
ATOM     18  C   UNL     1       6.023   5.436  23.188  0.00  0.00    +0.147 A 
ATOM     19  C   UNL     1       5.197   6.348  22.529  0.00  0.00    +0.092 A 
ATOM     20  C   UNL     1       3.888   5.979  22.206  0.00  0.00    +0.124 A 
ATOM     21  C   UNL     1       3.392   4.718  22.510  0.00  0.00    +0.091 A 
ATOM     22  O   UNL     1       7.280   5.829  23.557  0.00  0.00    -0.451 OA
ATOM     23  C   UNL     1       4.219   3.813  23.153  0.00  0.00    +0.135 A 
ATOM     24  C   UNL     1       8.210   4.904  24.081  0.00  0.00    +0.181 A 
BRANCH  24  25
ATOM     25  C   UNL     1       9.534   5.603  24.345  0.00  0.00    +0.025 A 
ATOM     26  C   UNL     1       9.587   6.582  25.379  0.00  0.00    +0.015 A 
ATOM     27  C   UNL     1      10.790   7.108  25.872  0.00  0.00    +0.050 A 
ATOM     28  C   UNL     1      11.976   6.685  25.314  0.00  0.00    +0.158 A 
ATOM     29  C   UNL     1      11.960   5.830  24.220  0.00  0.00    +0.159 A 
ATOM     30  C   UNL     1      10.759   5.280  23.737  0.00  0.00    +0.060 A 
BRANCH  28  31
ATOM     31  O   UNL     1      13.155   7.108  25.856  0.00  0.00    -0.503 OA
ATOM     32  H   UNL     1      12.967   8.006  26.195  0.00  0.00    +0.292 HD
ENDBRANCH  28  31
BRANCH  29  33
ATOM     33  O   UNL     1      13.171   5.540  23.647  0.00  0.00    -0.503 OA
ATOM     34  H   UNL     1      13.306   4.580  23.733  0.00  0.00    +0.292 HD
ENDBRANCH  29  33
ENDBRANCH  24  25
BRANCH  23  35
ATOM     35  O   UNL     1       3.748   2.557  23.417  0.00  0.00    -0.506 OA
ATOM     36  H   UNL     1       2.912   2.615  23.907  0.00  0.00    +0.292 HD
ENDBRANCH  23  35
BRANCH  20  37
ATOM     37  O   UNL     1       3.035   6.840  21.578  0.00  0.00    -0.507 OA
ATOM     38  H   UNL     1       2.204   6.875  22.068  0.00  0.00    +0.292 HD
ENDBRANCH  20  37
ENDBRANCH  13  14
ENDBRANCH   3  13
BRANCH   1  39
ATOM     39  C   UNL     1       7.981  -2.009  25.448  0.00  0.00    +0.197 C 
BRANCH  39  40
ATOM     40  O   UNL     1       7.727  -3.268  24.836  0.00  0.00    -0.346 OA
BRANCH  40  44
ATOM     41  C   UNL     1       3.588  -3.447  26.206  0.00  0.00    +0.042 C 
ATOM     42  C   UNL     1       4.792  -4.138  26.853  0.00  0.00    +0.163 C 
ATOM     43  O   UNL     1       6.019  -3.516  26.443  0.00  0.00    -0.342 OA
ATOM     44  C   UNL     1       6.422  -3.786  25.103  0.00  0.00    +0.283 C 
ATOM     45  C   UNL     1       6.522  -5.300  24.819  0.00  0.00    +0.214 C 
ATOM     46  C   UNL     1       5.213  -6.015  25.197  0.00  0.00    +0.253 C 
ATOM     47  C   UNL     1       4.853  -5.669  26.647  0.00  0.00    +0.248 C 
BRANCH  45  48
ATOM     48  O   UNL     1       6.840  -5.589  23.442  0.00  0.00    -0.383 OA
ATOM     49  H   UNL     1       7.777  -5.377  23.304  0.00  0.00    +0.210 HD
ENDBRANCH  45  48
BRANCH  46  50
ATOM     50  O   UNL     1       4.196  -5.586  24.265  0.00  0.00    -0.455 OA
BRANCH  50  51
ATOM     51  C   UNL     1       3.302  -6.534  23.873  0.00  0.00    +0.304 C 
ATOM     52  C   UNL     1       2.205  -5.930  23.056  0.00  0.00    +0.136 C 
ATOM     53  O   UNL     1       3.355  -7.708  24.190  0.00  0.00    -0.251 OA
ENDBRANCH  50  51
ENDBRANCH  46  50
BRANCH  47  54
ATOM     54  O   UNL     1       5.906  -6.234  27.475  0.00  0.00    -0.455 OA
BRANCH  54  55
ATOM     55  C   UNL     1       5.696  -6.250  28.814  0.00  0.00    +0.304 C 
ATOM     56  C   UNL     1       4.442  -6.997  29.162  0.00  0.00    +0.136 C 
ATOM     57  O   UNL     1       6.442  -5.736  29.645  0.00  0.00    -0.251 OA
ENDBRANCH  54  55
ENDBRANCH  47  54
ENDBRANCH  40  44
ENDBRANCH  39  40
ENDBRANCH   1  39
TORSDOF 18
ENDMDL
MODEL 6
REMARK VINA RESULT:      -7.1      2.208      8.831
REMARK  Name = 
REMARK  21 active torsions:
REMARK  status: ('A' for Active; 'I' for Inactive)
REMARK    1  A    between atoms: C_1  and  C_2
REMARK    2  A    between atoms: C_4  and  O_56
REMARK    3  A    between atoms: C_6  and  O_52
REMARK    4  A    between atoms: C_8  and  O_51
REMARK    5  A    between atoms: C_10  and  O_13
REMARK    6  A    between atoms: O_13  and  C_14
REMARK    7  A    between atoms: C_14  and  C_15
REMARK    8  A    between atoms: C_17  and  O_50
REMARK    9  A    between atoms: C_19  and  O_49
REMARK   10  A    between atoms: C_21  and  O_48
REMARK   11  A    between atoms: C_23  and  O_26
REMARK   12  A    between atoms: O_26  and  C_27
REMARK   13  A    between atoms: C_28  and  C_40
REMARK   14  A    between atoms: C_32  and  O_39
REMARK   15  A    between atoms: C_34  and  O_38
REMARK   16  A    between atoms: C_42  and  O_47
REMARK   17  A    between atoms: C_43  and  O_46
REMARK   18  A    between atoms: O_52  and  C_53
REMARK   19  A    between atoms: C_53  and  C_55
REMARK   20  A    between atoms: O_56  and  C_57
REMARK   21  A    between atoms: C_57  and  C_59
REMARK                            x       y       z     vdW  Elec       q    Type
REMARK                         _______ _______ _______ _____ _____    ______ ____
ROOT
ATOM      1  C   UNL     1       9.499   1.528  23.912  0.00  0.00    +0.179 C 
ATOM      2  O   UNL     1       8.768   0.563  24.690  0.00  0.00    -0.331 OA
ATOM      3  C   UNL     1       9.445  -0.699  24.712  0.00  0.00    +0.340 C 
ATOM      4  C   UNL     1       9.288  -1.319  23.303  0.00  0.00    +0.214 C 
ATOM      5  C   UNL     1       9.954  -0.313  22.313  0.00  0.00    +0.180 C 
ATOM      6  C   UNL     1       9.391   1.116  22.444  0.00  0.00    +0.177 C 
ENDROOT
BRANCH   6   7
ATOM      7  O   UNL     1      10.153   1.978  21.587  0.00  0.00    -0.386 OA
ATOM      8  H   UNL     1      10.825   1.420  21.155  0.00  0.00    +0.210 HD
ENDBRANCH   6   7
BRANCH   5   9
ATOM      9  O   UNL     1       9.853  -0.744  20.952  0.00  0.00    -0.386 OA
ATOM     10  H   UNL     1       8.889  -0.815  20.785  0.00  0.00    +0.210 HD
ENDBRANCH   5   9
BRANCH   4  11
ATOM     11  O   UNL     1       9.938  -2.599  23.245  0.00  0.00    -0.383 OA
ATOM     12  H   UNL     1      10.022  -2.933  24.156  0.00  0.00    +0.210 HD
ENDBRANCH   4  11
BRANCH   3  13
ATOM     13  O   UNL     1       8.988  -1.498  25.836  0.00  0.00    -0.453 OA
BRANCH  13  14
ATOM     14  C   UNL     1       7.722  -2.088  25.629  0.00  0.00    +0.214 A 
ATOM     15  C   UNL     1       7.615  -3.448  24.974  0.00  0.00    +0.238 A 
ATOM     16  O   UNL     1       8.495  -4.293  25.013  0.00  0.00    -0.283 OA
ATOM     17  C   UNL     1       6.375  -3.832  24.336  0.00  0.00    +0.109 A 
ATOM     18  C   UNL     1       5.242  -3.192  24.788  0.00  0.00    +0.147 A 
ATOM     19  C   UNL     1       3.994  -3.635  24.348  0.00  0.00    +0.092 A 
ATOM     20  C   UNL     1       3.922  -4.715  23.463  0.00  0.00    +0.124 A 
ATOM     21  C   UNL     1       5.065  -5.350  22.996  0.00  0.00    +0.091 A 
ATOM     22  O   UNL     1       5.299  -2.177  25.703  0.00  0.00    -0.451 OA
ATOM     23  C   UNL     1       6.301  -4.899  23.426  0.00  0.00    +0.135 A 
ATOM     24  C   UNL     1       6.530  -1.584  26.061  0.00  0.00    +0.181 A 
BRANCH  24  25
ATOM     25  C   UNL     1       6.286  -0.451  27.044  0.00  0.00    +0.025 A 
ATOM     26  C   UNL     1       4.949  -0.199  27.465  0.00  0.00    +0.015 A 
ATOM     27  C   UNL     1       4.633   0.645  28.539  0.00  0.00    +0.050 A 
ATOM     28  C   UNL     1       5.655   1.287  29.202  0.00  0.00    +0.158 A 
ATOM     29  C   UNL     1       6.960   1.167  28.742  0.00  0.00    +0.159 A 
ATOM     30  C   UNL     1       7.287   0.302  27.681  0.00  0.00    +0.060 A 
BRANCH  28  31
ATOM     31  O   UNL     1       5.370   2.024  30.315  0.00  0.00    -0.503 OA
ATOM     32  H   UNL     1       6.089   2.685  30.367  0.00  0.00    +0.292 HD
ENDBRANCH  28  31
BRANCH  29  33
ATOM     33  O   UNL     1       7.911   1.919  29.381  0.00  0.00    -0.503 OA
ATOM     34  H   UNL     1       7.558   2.822  29.457  0.00  0.00    +0.292 HD
ENDBRANCH  29  33
ENDBRANCH  24  25
BRANCH  23  35
ATOM     35  O   UNL     1       7.431  -5.495  22.937  0.00  0.00    -0.506 OA
ATOM     36  H   UNL     1       8.084  -5.595  23.648  0.00  0.00    +0.292 HD
ENDBRANCH  23  35
BRANCH  20  37
ATOM     37  O   UNL     1       2.726  -5.198  23.018  0.00  0.00    -0.507 OA
ATOM     38  H   UNL     1       2.882  -5.990  22.488  0.00  0.00    +0.292 HD
ENDBRANCH  20  37
ENDBRANCH  13  14
ENDBRANCH   3  13
BRANCH   1  39
ATOM     39  C   UNL     1       8.975   2.933  24.220  0.00  0.00    +0.197 C 
BRANCH  39  40
ATOM     40  O   UNL     1       8.231   3.406  23.103  0.00  0.00    -0.346 OA
BRANCH  40  44
ATOM     41  C   UNL     1       5.260   6.480  23.975  0.00  0.00    +0.042 C 
ATOM     42  C   UNL     1       5.929   5.547  24.988  0.00  0.00    +0.163 C 
ATOM     43  O   UNL     1       7.147   5.004  24.456  0.00  0.00    -0.342 OA
ATOM     44  C   UNL     1       6.982   4.005  23.454  0.00  0.00    +0.283 C 
ATOM     45  C   UNL     1       6.095   2.837  23.935  0.00  0.00    +0.214 C 
ATOM     46  C   UNL     1       4.751   3.358  24.476  0.00  0.00    +0.253 C 
ATOM     47  C   UNL     1       5.019   4.427  25.543  0.00  0.00    +0.248 C 
BRANCH  45  48
ATOM     48  O   UNL     1       5.844   1.863  22.901  0.00  0.00    -0.383 OA
ATOM     49  H   UNL     1       6.064   0.988  23.260  0.00  0.00    +0.210 HD
ENDBRANCH  45  48
BRANCH  46  50
ATOM     50  O   UNL     1       4.003   3.881  23.355  0.00  0.00    -0.455 OA
BRANCH  50  51
ATOM     51  C   UNL     1       2.823   3.263  23.080  0.00  0.00    +0.304 C 
ATOM     52  C   UNL     1       2.546   3.266  21.610  0.00  0.00    +0.136 C 
ATOM     53  O   UNL     1       2.064   2.814  23.920  0.00  0.00    -0.251 OA
ENDBRANCH  50  51
ENDBRANCH  46  50
BRANCH  47  54
ATOM     54  O   UNL     1       5.690   3.748  26.640  0.00  0.00    -0.455 OA
BRANCH  54  55
ATOM     55  C   UNL     1       6.018   4.498  27.720  0.00  0.00    +0.304 C 
ATOM     56  C   UNL     1       4.799   5.092  28.363  0.00  0.00    +0.136 C 
ATOM     57  O   UNL     1       7.163   4.662  28.137  0.00  0.00    -0.251 OA
ENDBRANCH  54  55
ENDBRANCH  47  54
ENDBRANCH  40  44
ENDBRANCH  39  40
ENDBRANCH   1  39
TORSDOF 18
ENDMDL
MODEL 7
REMARK VINA RESULT:      -7.0      1.698      5.708
REMARK  Name = 
REMARK  21 active torsions:
REMARK  status: ('A' for Active; 'I' for Inactive)
REMARK    1  A    between atoms: C_1  and  C_2
REMARK    2  A    between atoms: C_4  and  O_56
REMARK    3  A    between atoms: C_6  and  O_52
REMARK    4  A    between atoms: C_8  and  O_51
REMARK    5  A    between atoms: C_10  and  O_13
REMARK    6  A    between atoms: O_13  and  C_14
REMARK    7  A    between atoms: C_14  and  C_15
REMARK    8  A    between atoms: C_17  and  O_50
REMARK    9  A    between atoms: C_19  and  O_49
REMARK   10  A    between atoms: C_21  and  O_48
REMARK   11  A    between atoms: C_23  and  O_26
REMARK   12  A    between atoms: O_26  and  C_27
REMARK   13  A    between atoms: C_28  and  C_40
REMARK   14  A    between atoms: C_32  and  O_39
REMARK   15  A    between atoms: C_34  and  O_38
REMARK   16  A    between atoms: C_42  and  O_47
REMARK   17  A    between atoms: C_43  and  O_46
REMARK   18  A    between atoms: O_52  and  C_53
REMARK   19  A    between atoms: C_53  and  C_55
REMARK   20  A    between atoms: O_56  and  C_57
REMARK   21  A    between atoms: C_57  and  C_59
REMARK                            x       y       z     vdW  Elec       q    Type
REMARK                         _______ _______ _______ _____ _____    ______ ____
ROOT
ATOM      1  C   UNL     1       8.683  -1.682  25.105  0.00  0.00    +0.179 C 
ATOM      2  O   UNL     1       9.311  -0.451  25.509  0.00  0.00    -0.331 OA
ATOM      3  C   UNL     1       9.232   0.532  24.469  0.00  0.00    +0.340 C 
ATOM      4  C   UNL     1      10.209   0.088  23.354  0.00  0.00    +0.214 C 
ATOM      5  C   UNL     1       9.711  -1.313  22.877  0.00  0.00    +0.180 C 
ATOM      6  C   UNL     1       9.566  -2.321  24.034  0.00  0.00    +0.177 C 
ENDROOT
BRANCH   6   7
ATOM      7  O   UNL     1       8.987  -3.525  23.509  0.00  0.00    -0.386 OA
ATOM      8  H   UNL     1       8.220  -3.735  24.073  0.00  0.00    +0.210 HD
ENDBRANCH   6   7
BRANCH   5   9
ATOM      9  O   UNL     1      10.549  -1.869  21.859  0.00  0.00    -0.386 OA
ATOM     10  H   UNL     1      10.014  -2.588  21.462  0.00  0.00    +0.210 HD
ENDBRANCH   5   9
BRANCH   4  11
ATOM     11  O   UNL     1      10.194   1.031  22.271  0.00  0.00    -0.383 OA
ATOM     12  H   UNL     1      11.072   1.017  21.849  0.00  0.00    +0.210 HD
ENDBRANCH   4  11
BRANCH   3  13
ATOM     13  O   UNL     1       9.423   1.863  25.018  0.00  0.00    -0.453 OA
BRANCH  13  14
ATOM     14  C   UNL     1       8.340   2.734  24.769  0.00  0.00    +0.214 A 
ATOM     15  C   UNL     1       6.928   2.309  25.109  0.00  0.00    +0.238 A 
ATOM     16  O   UNL     1       6.652   1.501  25.981  0.00  0.00    -0.283 OA
ATOM     17  C   UNL     1       5.815   2.949  24.443  0.00  0.00    +0.109 A 
ATOM     18  C   UNL     1       6.055   4.211  23.945  0.00  0.00    +0.147 A 
ATOM     19  C   UNL     1       4.986   4.958  23.449  0.00  0.00    +0.092 A 
ATOM     20  C   UNL     1       3.700   4.412  23.471  0.00  0.00    +0.124 A 
ATOM     21  C   UNL     1       3.460   3.133  23.958  0.00  0.00    +0.091 A 
ATOM     22  O   UNL     1       7.299   4.779  23.979  0.00  0.00    -0.451 OA
ATOM     23  C   UNL     1       4.526   2.392  24.437  0.00  0.00    +0.135 A 
ATOM     24  C   UNL     1       8.441   4.018  24.320  0.00  0.00    +0.181 A 
BRANCH  24  25
ATOM     25  C   UNL     1       9.683   4.887  24.218  0.00  0.00    +0.025 A 
ATOM     26  C   UNL     1       9.701   6.126  24.922  0.00  0.00    +0.015 A 
ATOM     27  C   UNL     1      10.866   6.885  25.101  0.00  0.00    +0.050 A 
ATOM     28  C   UNL     1      12.044   6.435  24.548  0.00  0.00    +0.158 A 
ATOM     29  C   UNL     1      12.042   5.299  23.748  0.00  0.00    +0.159 A 
ATOM     30  C   UNL     1      10.883   4.519  23.584  0.00  0.00    +0.060 A 
BRANCH  28  31
ATOM     31  O   UNL     1      13.203   7.108  24.806  0.00  0.00    -0.503 OA
ATOM     32  H   UNL     1      13.895   6.603  24.335  0.00  0.00    +0.292 HD
ENDBRANCH  28  31
BRANCH  29  33
ATOM     33  O   UNL     1      13.226   4.971  23.140  0.00  0.00    -0.503 OA
ATOM     34  H   UNL     1      13.897   5.598  23.462  0.00  0.00    +0.292 HD
ENDBRANCH  29  33
ENDBRANCH  24  25
BRANCH  23  35
ATOM     35  O   UNL     1       4.301   1.118  24.880  0.00  0.00    -0.506 OA
ATOM     36  H   UNL     1       5.093   0.574  24.734  0.00  0.00    +0.292 HD
ENDBRANCH  23  35
BRANCH  20  37
ATOM     37  O   UNL     1       2.617   5.108  23.015  0.00  0.00    -0.507 OA
ATOM     38  H   UNL     1       1.828   4.559  23.102  0.00  0.00    +0.292 HD
ENDBRANCH  20  37
ENDBRANCH  13  14
ENDBRANCH   3  13
BRANCH   1  39
ATOM     39  C   UNL     1       8.440  -2.557  26.337  0.00  0.00    +0.197 C 
BRANCH  39  40
ATOM     40  O   UNL     1       7.085  -2.413  26.748  0.00  0.00    -0.346 OA
BRANCH  40  44
ATOM     41  C   UNL     1       5.322  -6.309  25.883  0.00  0.00    +0.042 C 
ATOM     42  C   UNL     1       6.146  -5.449  24.921  0.00  0.00    +0.163 C 
ATOM     43  O   UNL     1       6.935  -4.490  25.641  0.00  0.00    -0.342 OA
ATOM     44  C   UNL     1       6.208  -3.398  26.197  0.00  0.00    +0.283 C 
ATOM     45  C   UNL     1       5.376  -2.648  25.134  0.00  0.00    +0.214 C 
ATOM     46  C   UNL     1       4.474  -3.625  24.358  0.00  0.00    +0.253 C 
ATOM     47  C   UNL     1       5.332  -4.765  23.798  0.00  0.00    +0.248 C 
BRANCH  45  48
ATOM     48  O   UNL     1       4.564  -1.598  25.698  0.00  0.00    -0.383 OA
ATOM     49  H   UNL     1       3.642  -1.772  25.449  0.00  0.00    +0.210 HD
ENDBRANCH  45  48
BRANCH  46  50
ATOM     50  O   UNL     1       3.461  -4.101  25.272  0.00  0.00    -0.455 OA
BRANCH  50  51
ATOM     51  C   UNL     1       2.175  -3.780  24.963  0.00  0.00    +0.304 C 
ATOM     52  C   UNL     1       1.523  -4.874  24.179  0.00  0.00    +0.136 C 
ATOM     53  O   UNL     1       1.640  -2.722  25.239  0.00  0.00    -0.251 OA
ENDBRANCH  50  51
ENDBRANCH  46  50
BRANCH  47  54
ATOM     54  O   UNL     1       6.238  -4.159  22.835  0.00  0.00    -0.455 OA
BRANCH  54  55
ATOM     55  C   UNL     1       6.188  -4.626  21.564  0.00  0.00    +0.304 C 
ATOM     56  C   UNL     1       6.807  -5.989  21.457  0.00  0.00    +0.136 C 
ATOM     57  O   UNL     1       5.687  -4.024  20.617  0.00  0.00    -0.251 OA
ENDBRANCH  54  55
ENDBRANCH  47  54
ENDBRANCH  40  44
ENDBRANCH  39  40
ENDBRANCH   1  39
TORSDOF 18
ENDMDL
MODEL 8
REMARK VINA RESULT:      -7.0      1.898      5.619
REMARK  Name = 
REMARK  21 active torsions:
REMARK  status: ('A' for Active; 'I' for Inactive)
REMARK    1  A    between atoms: C_1  and  C_2
REMARK    2  A    between atoms: C_4  and  O_56
REMARK    3  A    between atoms: C_6  and  O_52
REMARK    4  A    between atoms: C_8  and  O_51
REMARK    5  A    between atoms: C_10  and  O_13
REMARK    6  A    between atoms: O_13  and  C_14
REMARK    7  A    between atoms: C_14  and  C_15
REMARK    8  A    between atoms: C_17  and  O_50
REMARK    9  A    between atoms: C_19  and  O_49
REMARK   10  A    between atoms: C_21  and  O_48
REMARK   11  A    between atoms: C_23  and  O_26
REMARK   12  A    between atoms: O_26  and  C_27
REMARK   13  A    between atoms: C_28  and  C_40
REMARK   14  A    between atoms: C_32  and  O_39
REMARK   15  A    between atoms: C_34  and  O_38
REMARK   16  A    between atoms: C_42  and  O_47
REMARK   17  A    between atoms: C_43  and  O_46
REMARK   18  A    between atoms: O_52  and  C_53
REMARK   19  A    between atoms: C_53  and  C_55
REMARK   20  A    between atoms: O_56  and  C_57
REMARK   21  A    between atoms: C_57  and  C_59
REMARK                            x       y       z     vdW  Elec       q    Type
REMARK                         _______ _______ _______ _____ _____    ______ ____
ROOT
ATOM      1  C   UNL     1       7.074  -1.234  23.713  0.00  0.00    +0.179 C 
ATOM      2  O   UNL     1       7.500  -0.326  24.745  0.00  0.00    -0.331 OA
ATOM      3  C   UNL     1       8.593   0.484  24.300  0.00  0.00    +0.340 C 
ATOM      4  C   UNL     1       9.836  -0.436  24.226  0.00  0.00    +0.214 C 
ATOM      5  C   UNL     1       9.480  -1.558  23.200  0.00  0.00    +0.180 C 
ATOM      6  C   UNL     1       8.168  -2.289  23.545  0.00  0.00    +0.177 C 
ENDROOT
BRANCH   6   7
ATOM      7  O   UNL     1       7.872  -3.205  22.481  0.00  0.00    -0.386 OA
ATOM      8  H   UNL     1       8.566  -3.889  22.501  0.00  0.00    +0.210 HD
ENDBRANCH   6   7
BRANCH   5   9
ATOM      9  O   UNL     1      10.537  -2.513  23.054  0.00  0.00    -0.386 OA
ATOM     10  H   UNL     1      11.044  -2.204  22.274  0.00  0.00    +0.210 HD
ENDBRANCH   5   9
BRANCH   4  11
ATOM     11  O   UNL     1      10.984   0.310  23.790  0.00  0.00    -0.383 OA
ATOM     12  H   UNL     1      11.431  -0.208  23.096  0.00  0.00    +0.210 HD
ENDBRANCH   4  11
BRANCH   3  13
ATOM     13  O   UNL     1       8.706   1.676  25.122  0.00  0.00    -0.453 OA
BRANCH  13  14
ATOM     14  C   UNL     1       8.004   2.786  24.604  0.00  0.00    +0.214 A 
ATOM     15  C   UNL     1       6.504   2.888  24.784  0.00  0.00    +0.238 A 
ATOM     16  O   UNL     1       5.892   2.368  25.702  0.00  0.00    -0.283 OA
ATOM     17  C   UNL     1       5.737   3.719  23.882  0.00  0.00    +0.109 A 
ATOM     18  C   UNL     1       6.430   4.738  23.266  0.00  0.00    +0.147 A 
ATOM     19  C   UNL     1       5.723   5.685  22.524  0.00  0.00    +0.092 A 
ATOM     20  C   UNL     1       4.332   5.580  22.425  0.00  0.00    +0.124 A 
ATOM     21  C   UNL     1       3.636   4.544  23.034  0.00  0.00    +0.091 A 
ATOM     22  O   UNL     1       7.782   4.886  23.410  0.00  0.00    -0.451 OA
ATOM     23  C   UNL     1       4.344   3.600  23.758  0.00  0.00    +0.135 A 
ATOM     24  C   UNL     1       8.568   3.878  24.012  0.00  0.00    +0.181 A 
BRANCH  24  25
ATOM     25  C   UNL     1      10.032   4.284  23.983  0.00  0.00    +0.025 A 
ATOM     26  C   UNL     1      10.946   3.462  23.263  0.00  0.00    +0.015 A 
ATOM     27  C   UNL     1      12.257   3.860  22.964  0.00  0.00    +0.050 A 
ATOM     28  C   UNL     1      12.696   5.087  23.408  0.00  0.00    +0.158 A 
ATOM     29  C   UNL     1      11.878   5.861  24.221  0.00  0.00    +0.159 A 
ATOM     30  C   UNL     1      10.554   5.480  24.505  0.00  0.00    +0.060 A 
BRANCH  28  31
ATOM     31  O   UNL     1      13.931   5.530  23.032  0.00  0.00    -0.503 OA
ATOM     32  H   UNL     1      13.784   5.981  22.176  0.00  0.00    +0.292 HD
ENDBRANCH  28  31
BRANCH  29  33
ATOM     33  O   UNL     1      12.420   7.017  24.718  0.00  0.00    -0.503 OA
ATOM     34  H   UNL     1      12.797   7.504  23.965  0.00  0.00    +0.292 HD
ENDBRANCH  29  33
ENDBRANCH  24  25
BRANCH  23  35
ATOM     35  O   UNL     1       3.667   2.556  24.325  0.00  0.00    -0.506 OA
ATOM     36  H   UNL     1       2.726   2.779  24.406  0.00  0.00    +0.292 HD
ENDBRANCH  23  35
BRANCH  20  37
ATOM     37  O   UNL     1       3.592   6.491  21.728  0.00  0.00    -0.507 OA
ATOM     38  H   UNL     1       3.393   7.242  22.300  0.00  0.00    +0.292 HD
ENDBRANCH  20  37
ENDBRANCH  13  14
ENDBRANCH   3  13
BRANCH   1  39
ATOM     39  C   UNL     1       5.695  -1.797  24.065  0.00  0.00    +0.197 C 
BRANCH  39  40
ATOM     40  O   UNL     1       5.510  -3.033  23.386  0.00  0.00    -0.346 OA
BRANCH  40  44
ATOM     41  C   UNL     1       2.421  -4.477  26.108  0.00  0.00    +0.042 C 
ATOM     42  C   UNL     1       3.929  -4.711  26.236  0.00  0.00    +0.163 C 
ATOM     43  O   UNL     1       4.663  -3.746  25.468  0.00  0.00    -0.342 OA
ATOM     44  C   UNL     1       4.624  -3.932  24.056  0.00  0.00    +0.283 C 
ATOM     45  C   UNL     1       5.091  -5.344  23.641  0.00  0.00    +0.214 C 
ATOM     46  C   UNL     1       4.303  -6.426  24.402  0.00  0.00    +0.253 C 
ATOM     47  C   UNL     1       4.395  -6.149  25.908  0.00  0.00    +0.248 C 
BRANCH  45  48
ATOM     48  O   UNL     1       4.971  -5.578  22.223  0.00  0.00    -0.383 OA
ATOM     49  H   UNL     1       5.601  -6.278  21.986  0.00  0.00    +0.210 HD
ENDBRANCH  45  48
BRANCH  46  50
ATOM     50  O   UNL     1       2.941  -6.392  23.922  0.00  0.00    -0.455 OA
BRANCH  50  51
ATOM     51  C   UNL     1       2.347  -7.597  23.714  0.00  0.00    +0.304 C 
ATOM     52  C   UNL     1       1.341  -7.516  22.610  0.00  0.00    +0.136 C 
ATOM     53  O   UNL     1       2.563  -8.599  24.373  0.00  0.00    -0.251 OA
ENDBRANCH  50  51
ENDBRANCH  46  50
BRANCH  47  54
ATOM     54  O   UNL     1       5.795  -6.304  26.267  0.00  0.00    -0.455 OA
BRANCH  54  55
ATOM     55  C   UNL     1       6.134  -6.046  27.553  0.00  0.00    +0.304 C 
ATOM     56  C   UNL     1       5.335  -6.884  28.508  0.00  0.00    +0.136 C 
ATOM     57  O   UNL     1       6.995  -5.241  27.902  0.00  0.00    -0.251 OA
ENDBRANCH  54  55
ENDBRANCH  47  54
ENDBRANCH  40  44
ENDBRANCH  39  40
ENDBRANCH   1  39
TORSDOF 18
ENDMDL
MODEL 9
REMARK VINA RESULT:      -6.9      1.893      6.309
REMARK  Name = 
REMARK  21 active torsions:
REMARK  status: ('A' for Active; 'I' for Inactive)
REMARK    1  A    between atoms: C_1  and  C_2
REMARK    2  A    between atoms: C_4  and  O_56
REMARK    3  A    between atoms: C_6  and  O_52
REMARK    4  A    between atoms: C_8  and  O_51
REMARK    5  A    between atoms: C_10  and  O_13
REMARK    6  A    between atoms: O_13  and  C_14
REMARK    7  A    between atoms: C_14  and  C_15
REMARK    8  A    between atoms: C_17  and  O_50
REMARK    9  A    between atoms: C_19  and  O_49
REMARK   10  A    between atoms: C_21  and  O_48
REMARK   11  A    between atoms: C_23  and  O_26
REMARK   12  A    between atoms: O_26  and  C_27
REMARK   13  A    between atoms: C_28  and  C_40
REMARK   14  A    between atoms: C_32  and  O_39
REMARK   15  A    between atoms: C_34  and  O_38
REMARK   16  A    between atoms: C_42  and  O_47
REMARK   17  A    between atoms: C_43  and  O_46
REMARK   18  A    between atoms: O_52  and  C_53
REMARK   19  A    between atoms: C_53  and  C_55
REMARK   20  A    between atoms: O_56  and  C_57
REMARK   21  A    between atoms: C_57  and  C_59
REMARK                            x       y       z     vdW  Elec       q    Type
REMARK                         _______ _______ _______ _____ _____    ______ ____
ROOT
ATOM      1  C   UNL     1       8.833  -1.778  24.316  0.00  0.00    +0.179 C 
ATOM      2  O   UNL     1       9.437  -0.586  24.852  0.00  0.00    -0.331 OA
ATOM      3  C   UNL     1       8.880   0.588  24.250  0.00  0.00    +0.340 C 
ATOM      4  C   UNL     1       9.416   0.648  22.799  0.00  0.00    +0.214 C 
ATOM      5  C   UNL     1       8.922  -0.659  22.103  0.00  0.00    +0.180 C 
ATOM      6  C   UNL     1       9.318  -1.933  22.874  0.00  0.00    +0.177 C 
ENDROOT
BRANCH   6   7
ATOM      7  O   UNL     1       8.712  -3.059  22.222  0.00  0.00    -0.386 OA
ATOM      8  H   UNL     1       7.840  -3.186  22.639  0.00  0.00    +0.210 HD
ENDBRANCH   6   7
BRANCH   5   9
ATOM      9  O   UNL     1       9.377  -0.758  20.749  0.00  0.00    -0.386 OA
ATOM     10  H   UNL     1       8.870  -0.071  20.267  0.00  0.00    +0.210 HD
ENDBRANCH   5   9
BRANCH   4  11
ATOM     11  O   UNL     1       8.905   1.810  22.125  0.00  0.00    -0.383 OA
ATOM     12  H   UNL     1       7.936   1.723  22.073  0.00  0.00    +0.210 HD
ENDBRANCH   4  11
BRANCH   3  13
ATOM     13  O   UNL     1       9.123   1.749  25.088  0.00  0.00    -0.453 OA
BRANCH  13  14
ATOM     14  C   UNL     1       8.016   2.619  25.179  0.00  0.00    +0.214 A 
ATOM     15  C   UNL     1       6.714   2.133  25.778  0.00  0.00    +0.238 A 
ATOM     16  O   UNL     1       6.636   1.235  26.599  0.00  0.00    -0.283 OA
ATOM     17  C   UNL     1       5.482   2.816  25.446  0.00  0.00    +0.109 A 
ATOM     18  C   UNL     1       5.610   4.127  25.042  0.00  0.00    +0.147 A 
ATOM     19  C   UNL     1       4.460   4.900  24.878  0.00  0.00    +0.092 A 
ATOM     20  C   UNL     1       3.208   4.329  25.127  0.00  0.00    +0.124 A 
ATOM     21  C   UNL     1       3.079   3.002  25.519  0.00  0.00    +0.091 A 
ATOM     22  O   UNL     1       6.832   4.713  24.859  0.00  0.00    -0.451 OA
ATOM     23  C   UNL     1       4.223   2.237  25.668  0.00  0.00    +0.135 A 
ATOM     24  C   UNL     1       8.018   3.945  24.856  0.00  0.00    +0.181 A 
BRANCH  24  25
ATOM     25  C   UNL     1       9.210   4.844  24.572  0.00  0.00    +0.025 A 
ATOM     26  C   UNL     1       9.408   5.985  25.402  0.00  0.00    +0.015 A 
ATOM     27  C   UNL     1      10.590   6.739  25.394  0.00  0.00    +0.050 A 
ATOM     28  C   UNL     1      11.597   6.384  24.524  0.00  0.00    +0.158 A 
ATOM     29  C   UNL     1      11.393   5.359  23.611  0.00  0.00    +0.159 A 
ATOM     30  C   UNL     1      10.220   4.582  23.630  0.00  0.00    +0.060 A 
BRANCH  28  31
ATOM     31  O   UNL     1      12.791   7.043  24.583  0.00  0.00    -0.503 OA
ATOM     32  H   UNL     1      12.589   7.887  25.034  0.00  0.00    +0.292 HD
ENDBRANCH  28  31
BRANCH  29  33
ATOM     33  O   UNL     1      12.394   5.133  22.703  0.00  0.00    -0.503 OA
ATOM     34  H   UNL     1      12.363   5.859  22.056  0.00  0.00    +0.292 HD
ENDBRANCH  29  33
ENDBRANCH  24  25
BRANCH  23  35
ATOM     35  O   UNL     1       4.098   0.919  26.014  0.00  0.00    -0.506 OA
ATOM     36  H   UNL     1       4.849   0.652  26.567  0.00  0.00    +0.292 HD
ENDBRANCH  23  35
BRANCH  20  37
ATOM     37  O   UNL     1       2.054   5.046  24.999  0.00  0.00    -0.507 OA
ATOM     38  H   UNL     1       1.817   5.419  25.857  0.00  0.00    +0.292 HD
ENDBRANCH  20  37
ENDBRANCH  13  14
ENDBRANCH   3  13
BRANCH   1  39
ATOM     39  C   UNL     1       9.153  -2.965  25.228  0.00  0.00    +0.197 C 
BRANCH  39  40
ATOM     40  O   UNL     1       8.737  -4.166  24.589  0.00  0.00    -0.346 OA
BRANCH  40  44
ATOM     41  C   UNL     1       4.571  -5.426  24.287  0.00  0.00    +0.042 C 
ATOM     42  C   UNL     1       5.080  -4.089  24.831  0.00  0.00    +0.163 C 
ATOM     43  O   UNL     1       6.414  -3.824  24.372  0.00  0.00    -0.342 OA
ATOM     44  C   UNL     1       7.436  -4.608  24.982  0.00  0.00    +0.283 C 
ATOM     45  C   UNL     1       7.418  -4.494  26.521  0.00  0.00    +0.214 C 
ATOM     46  C   UNL     1       6.018  -4.813  27.076  0.00  0.00    +0.253 C 
ATOM     47  C   UNL     1       4.983  -3.931  26.367  0.00  0.00    +0.248 C 
BRANCH  45  48
ATOM     48  O   UNL     1       8.387  -5.352  27.157  0.00  0.00    -0.383 OA
ATOM     49  H   UNL     1       8.398  -6.194  26.673  0.00  0.00    +0.210 HD
ENDBRANCH  45  48
BRANCH  46  50
ATOM     50  O   UNL     1       5.775  -6.221  26.863  0.00  0.00    -0.455 OA
BRANCH  50  51
ATOM     51  C   UNL     1       5.207  -6.896  27.898  0.00  0.00    +0.304 C 
ATOM     52  C   UNL     1       3.719  -6.748  27.883  0.00  0.00    +0.136 C 
ATOM     53  O   UNL     1       5.828  -7.496  28.757  0.00  0.00    -0.251 OA
ENDBRANCH  50  51
ENDBRANCH  46  50
BRANCH  47  54
ATOM     54  O   UNL     1       5.291  -2.560  26.739  0.00  0.00    -0.455 OA
BRANCH  54  55
ATOM     55  C   UNL     1       4.504  -1.984  27.680  0.00  0.00    +0.304 C 
ATOM     56  C   UNL     1       3.211  -2.730  27.842  0.00  0.00    +0.136 C 
ATOM     57  O   UNL     1       4.808  -0.989  28.334  0.00  0.00    -0.251 OA
ENDBRANCH  54  55
ENDBRANCH  47  54
ENDBRANCH  40  44
ENDBRANCH  39  40
ENDBRANCH   1  39
TORSDOF 18
ENDMDL
