MODEL 1
REMARK VINA RESULT:      -7.5      0.000      0.000
REMARK  Name = 
REMARK  13 active torsions:
REMARK  status: ('A' for Active; 'I' for Inactive)
REMARK    1  A    between atoms: C_1  and  C_2
REMARK    2  A    between atoms: C_3  and  O_38
REMARK    3  A    between atoms: C_5  and  O_37
REMARK    4  A    between atoms: C_6  and  O_33
REMARK    5  A    between atoms: C_8  and  O_11
REMARK    6  A    between atoms: O_11  and  C_12
REMARK    7  A    between atoms: C_13  and  C_25
REMARK    8  A    between atoms: C_17  and  O_24
REMARK    9  A    between atoms: C_19  and  O_23
REMARK   10  A    between atoms: C_27  and  O_32
REMARK   11  A    between atoms: C_28  and  O_31
REMARK   12  A    between atoms: O_33  and  C_34
REMARK   13  A    between atoms: C_34  and  C_36
REMARK                            x       y       z     vdW  Elec       q    Type
REMARK                         _______ _______ _______ _____ _____    ______ ____
ROOT
ATOM      1  C   UNL     1       7.033  -2.509  24.805  0.00  0.00    +0.214 A 
ATOM      2  C   UNL     1       8.070  -2.400  23.713  0.00  0.00    +0.238 A 
ATOM      3  O   UNL     1       8.707  -3.389  23.375  0.00  0.00    -0.283 OA
ATOM      4  C   UNL     1       8.297  -1.061  23.107  0.00  0.00    +0.109 A 
ATOM      5  C   UNL     1       7.523  -0.006  23.573  0.00  0.00    +0.147 A 
ATOM      6  C   UNL     1       7.698   1.295  23.091  0.00  0.00    +0.092 A 
ATOM      7  C   UNL     1       8.651   1.534  22.112  0.00  0.00    +0.124 A 
ATOM      8  C   UNL     1       9.422   0.499  21.608  0.00  0.00    +0.091 A 
ATOM      9  O   UNL     1       6.550  -0.149  24.523  0.00  0.00    -0.451 OA
ATOM     10  C   UNL     1       9.252  -0.799  22.110  0.00  0.00    +0.135 A 
ATOM     11  C   UNL     1       6.371  -1.373  25.138  0.00  0.00    +0.181 A 
ENDROOT
BRANCH  11  12
ATOM     12  C   UNL     1       5.448  -1.214  26.276  0.00  0.00    +0.025 A 
ATOM     13  C   UNL     1       4.144  -1.724  26.164  0.00  0.00    +0.015 A 
ATOM     14  C   UNL     1       3.227  -1.557  27.202  0.00  0.00    +0.050 A 
ATOM     15  C   UNL     1       3.609  -0.860  28.337  0.00  0.00    +0.158 A 
ATOM     16  C   UNL     1       4.901  -0.351  28.463  0.00  0.00    +0.159 A 
ATOM     17  C   UNL     1       5.841  -0.552  27.454  0.00  0.00    +0.060 A 
BRANCH  15  18
ATOM     18  O   UNL     1       2.686  -0.638  29.318  0.00  0.00    -0.503 OA
ATOM     19  H   UNL     1       2.992   0.168  29.777  0.00  0.00    +0.292 HD
ENDBRANCH  15  18
BRANCH  16  20
ATOM     20  O   UNL     1       5.172   0.408  29.569  0.00  0.00    -0.503 OA
ATOM     21  H   UNL     1       4.335   0.698  29.971  0.00  0.00    +0.292 HD
ENDBRANCH  16  20
ENDBRANCH  11  12
BRANCH   7  22
ATOM     22  O   UNL     1       8.861   2.787  21.616  0.00  0.00    -0.507 OA
ATOM     23  H   UNL     1       8.312   2.916  20.823  0.00  0.00    +0.292 HD
ENDBRANCH   7  22
BRANCH  10  24
ATOM     24  O   UNL     1      10.030  -1.796  21.598  0.00  0.00    -0.506 OA
ATOM     25  H   UNL     1      10.483  -1.496  20.793  0.00  0.00    +0.292 HD
ENDBRANCH  10  24
BRANCH   1  26
ATOM     26  O   UNL     1       6.963  -3.763  25.391  0.00  0.00    -0.452 OA
BRANCH  26  30
ATOM     27  C   UNL     1       4.020  -6.197  27.266  0.00  0.00    +0.041 C 
ATOM     28  C   UNL     1       4.812  -6.652  26.042  0.00  0.00    +0.150 C 
ATOM     29  O   UNL     1       5.998  -5.857  25.841  0.00  0.00    -0.333 OA
ATOM     30  C   UNL     1       5.744  -4.503  25.420  0.00  0.00    +0.352 C 
ATOM     31  C   UNL     1       5.037  -4.498  24.054  0.00  0.00    +0.275 C 
ATOM     32  C   UNL     1       3.714  -5.266  24.215  0.00  0.00    +0.192 C 
ATOM     33  C   UNL     1       3.950  -6.686  24.766  0.00  0.00    +0.175 C 
BRANCH  32  34
ATOM     34  O   UNL     1       3.016  -5.339  22.968  0.00  0.00    -0.385 OA
ATOM     35  H   UNL     1       2.159  -5.767  23.167  0.00  0.00    +0.210 HD
ENDBRANCH  32  34
BRANCH  33  36
ATOM     36  O   UNL     1       4.612  -7.468  23.760  0.00  0.00    -0.387 OA
ATOM     37  H   UNL     1       4.007  -8.209  23.542  0.00  0.00    +0.210 HD
ENDBRANCH  33  36
BRANCH  31  38
ATOM     38  O   UNL     1       5.875  -5.202  23.103  0.00  0.00    -0.452 OA
BRANCH  38  39
ATOM     39  C   UNL     1       5.910  -4.737  21.828  0.00  0.00    +0.304 C 
ATOM     40  C   UNL     1       6.366  -5.839  20.921  0.00  0.00    +0.136 C 
ATOM     41  O   UNL     1       5.598  -3.613  21.468  0.00  0.00    -0.251 OA
ENDBRANCH  38  39
ENDBRANCH  31  38
ENDBRANCH  26  30
ENDBRANCH   1  26
TORSDOF 11
ENDMDL
MODEL 2
REMARK VINA RESULT:      -7.2      1.780      6.557
REMARK  Name = 
REMARK  13 active torsions:
REMARK  status: ('A' for Active; 'I' for Inactive)
REMARK    1  A    between atoms: C_1  and  C_2
REMARK    2  A    between atoms: C_3  and  O_38
REMARK    3  A    between atoms: C_5  and  O_37
REMARK    4  A    between atoms: C_6  and  O_33
REMARK    5  A    between atoms: C_8  and  O_11
REMARK    6  A    between atoms: O_11  and  C_12
REMARK    7  A    between atoms: C_13  and  C_25
REMARK    8  A    between atoms: C_17  and  O_24
REMARK    9  A    between atoms: C_19  and  O_23
REMARK   10  A    between atoms: C_27  and  O_32
REMARK   11  A    between atoms: C_28  and  O_31
REMARK   12  A    between atoms: O_33  and  C_34
REMARK   13  A    between atoms: C_34  and  C_36
REMARK                            x       y       z     vdW  Elec       q    Type
REMARK                         _______ _______ _______ _____ _____    ______ ____
ROOT
ATOM      1  C   UNL     1       6.032  -2.081  23.895  0.00  0.00    +0.214 A 
ATOM      2  C   UNL     1       5.806  -3.306  23.042  0.00  0.00    +0.238 A 
ATOM      3  O   UNL     1       5.998  -3.254  21.834  0.00  0.00    -0.283 OA
ATOM      4  C   UNL     1       5.318  -4.537  23.718  0.00  0.00    +0.109 A 
ATOM      5  C   UNL     1       5.125  -4.481  25.093  0.00  0.00    +0.147 A 
ATOM      6  C   UNL     1       4.628  -5.578  25.805  0.00  0.00    +0.092 A 
ATOM      7  C   UNL     1       4.341  -6.754  25.127  0.00  0.00    +0.124 A 
ATOM      8  C   UNL     1       4.546  -6.850  23.760  0.00  0.00    +0.091 A 
ATOM      9  O   UNL     1       5.395  -3.372  25.845  0.00  0.00    -0.451 OA
ATOM     10  C   UNL     1       5.027  -5.740  23.052  0.00  0.00    +0.135 A 
ATOM     11  C   UNL     1       5.789  -2.204  25.222  0.00  0.00    +0.181 A 
ENDROOT
BRANCH  11  12
ATOM     12  C   UNL     1       5.783  -1.105  26.205  0.00  0.00    +0.025 A 
ATOM     13  C   UNL     1       4.610  -0.350  26.365  0.00  0.00    +0.015 A 
ATOM     14  C   UNL     1       4.574   0.725  27.254  0.00  0.00    +0.050 A 
ATOM     15  C   UNL     1       5.720   1.055  27.960  0.00  0.00    +0.158 A 
ATOM     16  C   UNL     1       6.890   0.312  27.815  0.00  0.00    +0.159 A 
ATOM     17  C   UNL     1       6.925  -0.792  26.966  0.00  0.00    +0.060 A 
BRANCH  15  18
ATOM     18  O   UNL     1       5.701   2.151  28.775  0.00  0.00    -0.503 OA
ATOM     19  H   UNL     1       6.037   1.834  29.636  0.00  0.00    +0.292 HD
ENDBRANCH  15  18
BRANCH  16  20
ATOM     20  O   UNL     1       8.004   0.759  28.472  0.00  0.00    -0.503 OA
ATOM     21  H   UNL     1       8.789   0.595  27.921  0.00  0.00    +0.292 HD
ENDBRANCH  16  20
ENDBRANCH  11  12
BRANCH   7  22
ATOM     22  O   UNL     1       3.850  -7.846  25.778  0.00  0.00    -0.507 OA
ATOM     23  H   UNL     1       2.965  -8.058  25.432  0.00  0.00    +0.292 HD
ENDBRANCH   7  22
BRANCH  10  24
ATOM     24  O   UNL     1       5.214  -5.864  21.706  0.00  0.00    -0.506 OA
ATOM     25  H   UNL     1       5.528  -6.757  21.486  0.00  0.00    +0.292 HD
ENDBRANCH  10  24
BRANCH   1  26
ATOM     26  O   UNL     1       6.378  -0.949  23.172  0.00  0.00    -0.452 OA
BRANCH  26  30
ATOM     27  C   UNL     1      10.526  -1.868  22.948  0.00  0.00    +0.041 C 
ATOM     28  C   UNL     1       9.981  -0.701  23.767  0.00  0.00    +0.150 C 
ATOM     29  O   UNL     1       8.567  -0.831  24.017  0.00  0.00    -0.333 OA
ATOM     30  C   UNL     1       7.737  -0.659  22.852  0.00  0.00    +0.352 C 
ATOM     31  C   UNL     1       7.903   0.763  22.290  0.00  0.00    +0.275 C 
ATOM     32  C   UNL     1       9.386   0.946  21.925  0.00  0.00    +0.192 C 
ATOM     33  C   UNL     1      10.303   0.664  23.130  0.00  0.00    +0.175 C 
BRANCH  32  34
ATOM     34  O   UNL     1       9.625   2.268  21.430  0.00  0.00    -0.385 OA
ATOM     35  H   UNL     1       9.841   2.162  20.481  0.00  0.00    +0.210 HD
ENDBRANCH  32  34
BRANCH  33  36
ATOM     36  O   UNL     1      10.120   1.704  24.104  0.00  0.00    -0.387 OA
ATOM     37  H   UNL     1      11.008   2.086  24.270  0.00  0.00    +0.210 HD
ENDBRANCH  33  36
BRANCH  31  38
ATOM     38  O   UNL     1       7.557   1.709  23.333  0.00  0.00    -0.452 OA
BRANCH  38  39
ATOM     39  C   UNL     1       6.650   2.674  23.034  0.00  0.00    +0.304 C 
ATOM     40  C   UNL     1       5.423   2.463  23.869  0.00  0.00    +0.136 C 
ATOM     41  O   UNL     1       6.811   3.584  22.236  0.00  0.00    -0.251 OA
ENDBRANCH  38  39
ENDBRANCH  31  38
ENDBRANCH  26  30
ENDBRANCH   1  26
TORSDOF 11
ENDMDL
MODEL 3
REMARK VINA RESULT:      -6.8      2.142      6.644
REMARK  Name = 
REMARK  13 active torsions:
REMARK  status: ('A' for Active; 'I' for Inactive)
REMARK    1  A    between atoms: C_1  and  C_2
REMARK    2  A    between atoms: C_3  and  O_38
REMARK    3  A    between atoms: C_5  and  O_37
REMARK    4  A    between atoms: C_6  and  O_33
REMARK    5  A    between atoms: C_8  and  O_11
REMARK    6  A    between atoms: O_11  and  C_12
REMARK    7  A    between atoms: C_13  and  C_25
REMARK    8  A    between atoms: C_17  and  O_24
REMARK    9  A    between atoms: C_19  and  O_23
REMARK   10  A    between atoms: C_27  and  O_32
REMARK   11  A    between atoms: C_28  and  O_31
REMARK   12  A    between atoms: O_33  and  C_34
REMARK   13  A    between atoms: C_34  and  C_36
REMARK                            x       y       z     vdW  Elec       q    Type
REMARK                         _______ _______ _______ _____ _____    ______ ____
ROOT
ATOM      1  C   UNL     1       6.380  -0.916  24.658  0.00  0.00    +0.214 A 
ATOM      2  C   UNL     1       6.374  -2.263  23.975  0.00  0.00    +0.238 A 
ATOM      3  O   UNL     1       6.472  -2.330  22.756  0.00  0.00    -0.283 OA
ATOM      4  C   UNL     1       6.215  -3.470  24.829  0.00  0.00    +0.109 A 
ATOM      5  C   UNL     1       6.103  -3.276  26.200  0.00  0.00    +0.147 A 
ATOM      6  C   UNL     1       5.908  -4.350  27.074  0.00  0.00    +0.092 A 
ATOM      7  C   UNL     1       5.842  -5.638  26.564  0.00  0.00    +0.124 A 
ATOM      8  C   UNL     1       5.975  -5.867  25.204  0.00  0.00    +0.091 A 
ATOM      9  O   UNL     1       6.171  -2.046  26.794  0.00  0.00    -0.451 OA
ATOM     10  C   UNL     1       6.153  -4.783  24.333  0.00  0.00    +0.135 A 
ATOM     11  C   UNL     1       6.257  -0.913  26.008  0.00  0.00    +0.181 A 
ENDROOT
BRANCH  11  12
ATOM     12  C   UNL     1       6.073   0.279  26.855  0.00  0.00    +0.025 A 
ATOM     13  C   UNL     1       4.894   1.030  26.716  0.00  0.00    +0.015 A 
ATOM     14  C   UNL     1       4.698   2.188  27.469  0.00  0.00    +0.050 A 
ATOM     15  C   UNL     1       5.693   2.604  28.340  0.00  0.00    +0.158 A 
ATOM     16  C   UNL     1       6.867   1.866  28.492  0.00  0.00    +0.159 A 
ATOM     17  C   UNL     1       7.053   0.683  27.780  0.00  0.00    +0.060 A 
BRANCH  15  18
ATOM     18  O   UNL     1       5.527   3.775  29.021  0.00  0.00    -0.503 OA
ATOM     19  H   UNL     1       4.582   3.796  29.266  0.00  0.00    +0.292 HD
ENDBRANCH  15  18
BRANCH  16  20
ATOM     20  O   UNL     1       7.840   2.393  29.296  0.00  0.00    -0.503 OA
ATOM     21  H   UNL     1       8.232   1.682  29.832  0.00  0.00    +0.292 HD
ENDBRANCH  16  20
ENDBRANCH  11  12
BRANCH   7  22
ATOM     22  O   UNL     1       5.647  -6.715  27.377  0.00  0.00    -0.507 OA
ATOM     23  H   UNL     1       4.863  -6.562  27.933  0.00  0.00    +0.292 HD
ENDBRANCH   7  22
BRANCH  10  24
ATOM     24  O   UNL     1       6.275  -5.041  22.999  0.00  0.00    -0.506 OA
ATOM     25  H   UNL     1       5.560  -4.610  22.501  0.00  0.00    +0.292 HD
ENDBRANCH  10  24
BRANCH   1  26
ATOM     26  O   UNL     1       6.421   0.158  23.783  0.00  0.00    -0.452 OA
BRANCH  26  30
ATOM     27  C   UNL     1       7.654   4.221  24.051  0.00  0.00    +0.041 C 
ATOM     28  C   UNL     1       8.129   3.284  22.942  0.00  0.00    +0.150 C 
ATOM     29  O   UNL     1       7.288   2.119  22.823  0.00  0.00    -0.333 OA
ATOM     30  C   UNL     1       7.391   1.193  23.922  0.00  0.00    +0.352 C 
ATOM     31  C   UNL     1       8.821   0.632  24.008  0.00  0.00    +0.275 C 
ATOM     32  C   UNL     1       9.773   1.823  24.217  0.00  0.00    +0.192 C 
ATOM     33  C   UNL     1       9.606   2.880  23.108  0.00  0.00    +0.175 C 
BRANCH  32  34
ATOM     34  O   UNL     1      11.133   1.380  24.265  0.00  0.00    -0.385 OA
ATOM     35  H   UNL     1      11.288   1.097  25.189  0.00  0.00    +0.210 HD
ENDBRANCH  32  34
BRANCH  33  36
ATOM     36  O   UNL     1      10.097   2.337  21.873  0.00  0.00    -0.387 OA
ATOM     37  H   UNL     1      11.070   2.254  21.974  0.00  0.00    +0.210 HD
ENDBRANCH  33  36
BRANCH  31  38
ATOM     38  O   UNL     1       9.138  -0.004  22.744  0.00  0.00    -0.452 OA
BRANCH  38  39
ATOM     39  C   UNL     1       9.793  -1.193  22.784  0.00  0.00    +0.304 C 
ATOM     40  C   UNL     1       9.795  -1.700  24.195  0.00  0.00    +0.136 C 
ATOM     41  O   UNL     1      10.281  -1.773  21.827  0.00  0.00    -0.251 OA
ENDBRANCH  38  39
ENDBRANCH  31  38
ENDBRANCH  26  30
ENDBRANCH   1  26
TORSDOF 11
ENDMDL
MODEL 4
REMARK VINA RESULT:      -6.8      1.166      2.892
REMARK  Name = 
REMARK  13 active torsions:
REMARK  status: ('A' for Active; 'I' for Inactive)
REMARK    1  A    between atoms: C_1  and  C_2
REMARK    2  A    between atoms: C_3  and  O_38
REMARK    3  A    between atoms: C_5  and  O_37
REMARK    4  A    between atoms: C_6  and  O_33
REMARK    5  A    between atoms: C_8  and  O_11
REMARK    6  A    between atoms: O_11  and  C_12
REMARK    7  A    between atoms: C_13  and  C_25
REMARK    8  A    between atoms: C_17  and  O_24
REMARK    9  A    between atoms: C_19  and  O_23
REMARK   10  A    between atoms: C_27  and  O_32
REMARK   11  A    between atoms: C_28  and  O_31
REMARK   12  A    between atoms: O_33  and  C_34
REMARK   13  A    between atoms: C_34  and  C_36
REMARK                            x       y       z     vdW  Elec       q    Type
REMARK                         _______ _______ _______ _____ _____    ______ ____
ROOT
ATOM      1  C   UNL     1       7.096  -2.597  24.695  0.00  0.00    +0.214 A 
ATOM      2  C   UNL     1       8.215  -2.470  23.689  0.00  0.00    +0.238 A 
ATOM      3  O   UNL     1       8.879  -3.453  23.386  0.00  0.00    -0.283 OA
ATOM      4  C   UNL     1       8.487  -1.121  23.125  0.00  0.00    +0.109 A 
ATOM      5  C   UNL     1       7.677  -0.074  23.546  0.00  0.00    +0.147 A 
ATOM      6  C   UNL     1       7.886   1.235  23.100  0.00  0.00    +0.092 A 
ATOM      7  C   UNL     1       8.913   1.490  22.204  0.00  0.00    +0.124 A 
ATOM      8  C   UNL     1       9.723   0.464  21.745  0.00  0.00    +0.091 A 
ATOM      9  O   UNL     1       6.633  -0.233  24.414  0.00  0.00    -0.451 OA
ATOM     10  C   UNL     1       9.516  -0.842  22.211  0.00  0.00    +0.135 A 
ATOM     11  C   UNL     1       6.408  -1.468  24.993  0.00  0.00    +0.181 A 
ENDROOT
BRANCH  11  12
ATOM     12  C   UNL     1       5.399  -1.328  26.057  0.00  0.00    +0.025 A 
ATOM     13  C   UNL     1       5.761  -0.680  27.250  0.00  0.00    +0.015 A 
ATOM     14  C   UNL     1       4.848  -0.563  28.299  0.00  0.00    +0.050 A 
ATOM     15  C   UNL     1       3.584  -1.116  28.159  0.00  0.00    +0.158 A 
ATOM     16  C   UNL     1       3.210  -1.758  26.980  0.00  0.00    +0.159 A 
ATOM     17  C   UNL     1       4.096  -1.840  25.908  0.00  0.00    +0.060 A 
BRANCH  15  18
ATOM     18  O   UNL     1       2.720  -1.061  29.214  0.00  0.00    -0.503 OA
ATOM     19  H   UNL     1       2.905  -1.866  29.737  0.00  0.00    +0.292 HD
ENDBRANCH  15  18
BRANCH  16  20
ATOM     20  O   UNL     1       1.982  -2.362  26.957  0.00  0.00    -0.503 OA
ATOM     21  H   UNL     1       1.814  -2.711  26.064  0.00  0.00    +0.292 HD
ENDBRANCH  16  20
ENDBRANCH  11  12
BRANCH   7  22
ATOM     22  O   UNL     1       9.159   2.751  21.746  0.00  0.00    -0.507 OA
ATOM     23  H   UNL     1       8.519   3.369  22.141  0.00  0.00    +0.292 HD
ENDBRANCH   7  22
BRANCH  10  24
ATOM     24  O   UNL     1      10.334  -1.830  21.745  0.00  0.00    -0.506 OA
ATOM     25  H   UNL     1       9.844  -2.432  21.162  0.00  0.00    +0.292 HD
ENDBRANCH  10  24
BRANCH   1  26
ATOM     26  O   UNL     1       6.983  -3.861  25.252  0.00  0.00    -0.452 OA
BRANCH  26  30
ATOM     27  C   UNL     1       5.635  -5.977  21.817  0.00  0.00    +0.041 C 
ATOM     28  C   UNL     1       4.679  -5.319  22.810  0.00  0.00    +0.150 C 
ATOM     29  O   UNL     1       5.348  -4.345  23.637  0.00  0.00    -0.333 OA
ATOM     30  C   UNL     1       6.271  -4.904  24.591  0.00  0.00    +0.352 C 
ATOM     31  C   UNL     1       5.521  -5.807  25.585  0.00  0.00    +0.275 C 
ATOM     32  C   UNL     1       4.844  -6.925  24.774  0.00  0.00    +0.192 C 
ATOM     33  C   UNL     1       3.930  -6.351  23.674  0.00  0.00    +0.175 C 
BRANCH  32  34
ATOM     34  O   UNL     1       4.089  -7.787  25.632  0.00  0.00    -0.385 OA
ATOM     35  H   UNL     1       4.247  -8.695  25.304  0.00  0.00    +0.210 HD
ENDBRANCH  32  34
BRANCH  33  36
ATOM     36  O   UNL     1       2.797  -5.724  24.295  0.00  0.00    -0.387 OA
ATOM     37  H   UNL     1       2.240  -5.375  23.567  0.00  0.00    +0.210 HD
ENDBRANCH  33  36
BRANCH  31  38
ATOM     38  O   UNL     1       4.496  -5.016  26.237  0.00  0.00    -0.452 OA
BRANCH  38  39
ATOM     39  C   UNL     1       4.268  -5.243  27.556  0.00  0.00    +0.304 C 
ATOM     40  C   UNL     1       5.290  -4.497  28.361  0.00  0.00    +0.136 C 
ATOM     41  O   UNL     1       3.365  -5.921  28.020  0.00  0.00    -0.251 OA
ENDBRANCH  38  39
ENDBRANCH  31  38
ENDBRANCH  26  30
ENDBRANCH   1  26
TORSDOF 11
ENDMDL
MODEL 5
REMARK VINA RESULT:      -6.8      2.273      5.989
REMARK  Name = 
REMARK  13 active torsions:
REMARK  status: ('A' for Active; 'I' for Inactive)
REMARK    1  A    between atoms: C_1  and  C_2
REMARK    2  A    between atoms: C_3  and  O_38
REMARK    3  A    between atoms: C_5  and  O_37
REMARK    4  A    between atoms: C_6  and  O_33
REMARK    5  A    between atoms: C_8  and  O_11
REMARK    6  A    between atoms: O_11  and  C_12
REMARK    7  A    between atoms: C_13  and  C_25
REMARK    8  A    between atoms: C_17  and  O_24
REMARK    9  A    between atoms: C_19  and  O_23
REMARK   10  A    between atoms: C_27  and  O_32
REMARK   11  A    between atoms: C_28  and  O_31
REMARK   12  A    between atoms: O_33  and  C_34
REMARK   13  A    between atoms: C_34  and  C_36
REMARK                            x       y       z     vdW  Elec       q    Type
REMARK                         _______ _______ _______ _____ _____    ______ ____
ROOT
ATOM      1  C   UNL     1       6.926  -0.384  26.167  0.00  0.00    +0.214 A 
ATOM      2  C   UNL     1       5.712  -0.697  27.008  0.00  0.00    +0.238 A 
ATOM      3  O   UNL     1       5.698  -1.699  27.712  0.00  0.00    -0.283 OA
ATOM      4  C   UNL     1       4.551   0.227  26.916  0.00  0.00    +0.109 A 
ATOM      5  C   UNL     1       4.672   1.329  26.078  0.00  0.00    +0.147 A 
ATOM      6  C   UNL     1       3.616   2.228  25.898  0.00  0.00    +0.092 A 
ATOM      7  C   UNL     1       2.428   2.026  26.585  0.00  0.00    +0.124 A 
ATOM      8  C   UNL     1       2.284   0.950  27.447  0.00  0.00    +0.091 A 
ATOM      9  O   UNL     1       5.808   1.617  25.375  0.00  0.00    -0.451 OA
ATOM     10  C   UNL     1       3.342   0.045  27.608  0.00  0.00    +0.135 A 
ATOM     11  C   UNL     1       6.871   0.734  25.403  0.00  0.00    +0.181 A 
ENDROOT
BRANCH  11  12
ATOM     12  C   UNL     1       7.863   1.138  24.391  0.00  0.00    +0.025 A 
ATOM     13  C   UNL     1       9.099   1.647  24.822  0.00  0.00    +0.015 A 
ATOM     14  C   UNL     1      10.050   2.079  23.897  0.00  0.00    +0.050 A 
ATOM     15  C   UNL     1       9.750   2.024  22.544  0.00  0.00    +0.158 A 
ATOM     16  C   UNL     1       8.529   1.519  22.101  0.00  0.00    +0.159 A 
ATOM     17  C   UNL     1       7.591   1.040  23.013  0.00  0.00    +0.060 A 
BRANCH  15  18
ATOM     18  O   UNL     1      10.655   2.514  21.647  0.00  0.00    -0.503 OA
ATOM     19  H   UNL     1      11.261   1.770  21.464  0.00  0.00    +0.292 HD
ENDBRANCH  15  18
BRANCH  16  20
ATOM     20  O   UNL     1       8.271   1.588  20.760  0.00  0.00    -0.503 OA
ATOM     21  H   UNL     1       8.064   2.508  20.520  0.00  0.00    +0.292 HD
ENDBRANCH  16  20
ENDBRANCH  11  12
BRANCH   7  22
ATOM     22  O   UNL     1       1.369   2.872  26.437  0.00  0.00    -0.507 OA
ATOM     23  H   UNL     1       0.756   2.509  25.774  0.00  0.00    +0.292 HD
ENDBRANCH   7  22
BRANCH  10  24
ATOM     24  O   UNL     1       3.167  -1.007  28.460  0.00  0.00    -0.506 OA
ATOM     25  H   UNL     1       4.019  -1.425  28.665  0.00  0.00    +0.292 HD
ENDBRANCH  10  24
BRANCH   1  26
ATOM     26  O   UNL     1       7.916  -1.352  26.227  0.00  0.00    -0.452 OA
BRANCH  26  30
ATOM     27  C   UNL     1       7.011  -5.354  27.351  0.00  0.00    +0.041 C 
ATOM     28  C   UNL     1       8.272  -4.978  26.575  0.00  0.00    +0.150 C 
ATOM     29  O   UNL     1       8.560  -3.568  26.666  0.00  0.00    -0.333 OA
ATOM     30  C   UNL     1       7.633  -2.723  25.957  0.00  0.00    +0.352 C 
ATOM     31  C   UNL     1       7.680  -3.033  24.451  0.00  0.00    +0.275 C 
ATOM     32  C   UNL     1       7.302  -4.514  24.272  0.00  0.00    +0.192 C 
ATOM     33  C   UNL     1       8.214  -5.434  25.105  0.00  0.00    +0.175 C 
BRANCH  32  34
ATOM     34  O   UNL     1       7.363  -4.888  22.892  0.00  0.00    -0.385 OA
ATOM     35  H   UNL     1       6.520  -4.587  22.497  0.00  0.00    +0.210 HD
ENDBRANCH  32  34
BRANCH  33  36
ATOM     36  O   UNL     1       9.535  -5.408  24.542  0.00  0.00    -0.387 OA
ATOM     37  H   UNL     1       9.625  -4.544  24.087  0.00  0.00    +0.210 HD
ENDBRANCH  33  36
BRANCH  31  38
ATOM     38  O   UNL     1       9.039  -2.838  23.987  0.00  0.00    -0.452 OA
BRANCH  38  39
ATOM     39  C   UNL     1       9.216  -2.184  22.810  0.00  0.00    +0.304 C 
ATOM     40  C   UNL     1      10.563  -1.526  22.818  0.00  0.00    +0.136 C 
ATOM     41  O   UNL     1       8.423  -2.153  21.883  0.00  0.00    -0.251 OA
ENDBRANCH  38  39
ENDBRANCH  31  38
ENDBRANCH  26  30
ENDBRANCH   1  26
TORSDOF 11
ENDMDL
MODEL 6
REMARK VINA RESULT:      -6.8      2.393      3.511
REMARK  Name = 
REMARK  13 active torsions:
REMARK  status: ('A' for Active; 'I' for Inactive)
REMARK    1  A    between atoms: C_1  and  C_2
REMARK    2  A    between atoms: C_3  and  O_38
REMARK    3  A    between atoms: C_5  and  O_37
REMARK    4  A    between atoms: C_6  and  O_33
REMARK    5  A    between atoms: C_8  and  O_11
REMARK    6  A    between atoms: O_11  and  C_12
REMARK    7  A    between atoms: C_13  and  C_25
REMARK    8  A    between atoms: C_17  and  O_24
REMARK    9  A    between atoms: C_19  and  O_23
REMARK   10  A    between atoms: C_27  and  O_32
REMARK   11  A    between atoms: C_28  and  O_31
REMARK   12  A    between atoms: O_33  and  C_34
REMARK   13  A    between atoms: C_34  and  C_36
REMARK                            x       y       z     vdW  Elec       q    Type
REMARK                         _______ _______ _______ _____ _____    ______ ____
ROOT
ATOM      1  C   UNL     1       8.220  -0.198  25.678  0.00  0.00    +0.214 A 
ATOM      2  C   UNL     1       9.206   0.746  25.033  0.00  0.00    +0.238 A 
ATOM      3  O   UNL     1      10.384   0.428  24.938  0.00  0.00    -0.283 OA
ATOM      4  C   UNL     1       8.696   2.061  24.562  0.00  0.00    +0.109 A 
ATOM      5  C   UNL     1       7.341   2.321  24.729  0.00  0.00    +0.147 A 
ATOM      6  C   UNL     1       6.783   3.547  24.354  0.00  0.00    +0.092 A 
ATOM      7  C   UNL     1       7.595   4.518  23.786  0.00  0.00    +0.124 A 
ATOM      8  C   UNL     1       8.945   4.280  23.584  0.00  0.00    +0.091 A 
ATOM      9  O   UNL     1       6.463   1.421  25.264  0.00  0.00    -0.451 OA
ATOM     10  C   UNL     1       9.499   3.055  23.978  0.00  0.00    +0.135 A 
ATOM     11  C   UNL     1       6.934   0.221  25.761  0.00  0.00    +0.181 A 
ENDROOT
BRANCH  11  12
ATOM     12  C   UNL     1       5.850  -0.459  26.493  0.00  0.00    +0.025 A 
ATOM     13  C   UNL     1       5.029  -1.363  25.797  0.00  0.00    +0.015 A 
ATOM     14  C   UNL     1       3.966  -1.996  26.442  0.00  0.00    +0.050 A 
ATOM     15  C   UNL     1       3.713  -1.704  27.773  0.00  0.00    +0.158 A 
ATOM     16  C   UNL     1       4.521  -0.813  28.477  0.00  0.00    +0.159 A 
ATOM     17  C   UNL     1       5.614  -0.210  27.858  0.00  0.00    +0.060 A 
BRANCH  15  18
ATOM     18  O   UNL     1       2.629  -2.272  28.379  0.00  0.00    -0.503 OA
ATOM     19  H   UNL     1       2.301  -2.936  27.742  0.00  0.00    +0.292 HD
ENDBRANCH  15  18
BRANCH  16  20
ATOM     20  O   UNL     1       4.148  -0.504  29.757  0.00  0.00    -0.503 OA
ATOM     21  H   UNL     1       4.603  -1.101  30.376  0.00  0.00    +0.292 HD
ENDBRANCH  16  20
ENDBRANCH  11  12
BRANCH   7  22
ATOM     22  O   UNL     1       7.096   5.730  23.410  0.00  0.00    -0.507 OA
ATOM     23  H   UNL     1       6.131   5.735  23.535  0.00  0.00    +0.292 HD
ENDBRANCH   7  22
BRANCH  10  24
ATOM     24  O   UNL     1      10.832   2.853  23.771  0.00  0.00    -0.506 OA
ATOM     25  H   UNL     1      11.200   3.554  23.207  0.00  0.00    +0.292 HD
ENDBRANCH  10  24
BRANCH   1  26
ATOM     26  O   UNL     1       8.797  -1.351  26.188  0.00  0.00    -0.452 OA
BRANCH  26  30
ATOM     27  C   UNL     1       7.177  -5.111  27.345  0.00  0.00    +0.041 C 
ATOM     28  C   UNL     1       8.453  -4.981  26.515  0.00  0.00    +0.150 C 
ATOM     29  O   UNL     1       9.014  -3.655  26.594  0.00  0.00    -0.333 OA
ATOM     30  C   UNL     1       8.240  -2.638  25.929  0.00  0.00    +0.352 C 
ATOM     31  C   UNL     1       8.161  -2.936  24.422  0.00  0.00    +0.275 C 
ATOM     32  C   UNL     1       7.494  -4.313  24.258  0.00  0.00    +0.192 C 
ATOM     33  C   UNL     1       8.244  -5.402  25.048  0.00  0.00    +0.175 C 
BRANCH  32  34
ATOM     34  O   UNL     1       7.422  -4.678  22.876  0.00  0.00    -0.385 OA
ATOM     35  H   UNL     1       6.515  -4.452  22.588  0.00  0.00    +0.210 HD
ENDBRANCH  32  34
BRANCH  33  36
ATOM     36  O   UNL     1       9.519  -5.628  24.428  0.00  0.00    -0.387 OA
ATOM     37  H   UNL     1       9.962  -4.755  24.380  0.00  0.00    +0.210 HD
ENDBRANCH  33  36
BRANCH  31  38
ATOM     38  O   UNL     1       9.511  -3.005  23.899  0.00  0.00    -0.452 OA
BRANCH  38  39
ATOM     39  C   UNL     1       9.836  -2.168  22.879  0.00  0.00    +0.304 C 
ATOM     40  C   UNL     1       8.577  -1.594  22.303  0.00  0.00    +0.136 C 
ATOM     41  O   UNL     1      10.967  -1.903  22.505  0.00  0.00    -0.251 OA
ENDBRANCH  38  39
ENDBRANCH  31  38
ENDBRANCH  26  30
ENDBRANCH   1  26
TORSDOF 11
ENDMDL
MODEL 7
REMARK VINA RESULT:      -6.6      2.203      3.374
REMARK  Name = 
REMARK  13 active torsions:
REMARK  status: ('A' for Active; 'I' for Inactive)
REMARK    1  A    between atoms: C_1  and  C_2
REMARK    2  A    between atoms: C_3  and  O_38
REMARK    3  A    between atoms: C_5  and  O_37
REMARK    4  A    between atoms: C_6  and  O_33
REMARK    5  A    between atoms: C_8  and  O_11
REMARK    6  A    between atoms: O_11  and  C_12
REMARK    7  A    between atoms: C_13  and  C_25
REMARK    8  A    between atoms: C_17  and  O_24
REMARK    9  A    between atoms: C_19  and  O_23
REMARK   10  A    between atoms: C_27  and  O_32
REMARK   11  A    between atoms: C_28  and  O_31
REMARK   12  A    between atoms: O_33  and  C_34
REMARK   13  A    between atoms: C_34  and  C_36
REMARK                            x       y       z     vdW  Elec       q    Type
REMARK                         _______ _______ _______ _____ _____    ______ ____
ROOT
ATOM      1  C   UNL     1       6.887  -0.785  24.623  0.00  0.00    +0.214 A 
ATOM      2  C   UNL     1       7.813  -0.738  23.431  0.00  0.00    +0.238 A 
ATOM      3  O   UNL     1       7.884  -1.698  22.675  0.00  0.00    -0.283 OA
ATOM      4  C   UNL     1       8.637   0.485  23.245  0.00  0.00    +0.109 A 
ATOM      5  C   UNL     1       8.482   1.511  24.170  0.00  0.00    +0.147 A 
ATOM      6  C   UNL     1       9.246   2.680  24.097  0.00  0.00    +0.092 A 
ATOM      7  C   UNL     1      10.166   2.827  23.069  0.00  0.00    +0.124 A 
ATOM      8  C   UNL     1      10.327   1.833  22.117  0.00  0.00    +0.091 A 
ATOM      9  O   UNL     1       7.591   1.461  25.205  0.00  0.00    -0.451 OA
ATOM     10  C   UNL     1       9.569   0.658  22.208  0.00  0.00    +0.135 A 
ATOM     11  C   UNL     1       6.864   0.307  25.425  0.00  0.00    +0.181 A 
ENDROOT
BRANCH  11  12
ATOM     12  C   UNL     1       6.168   0.413  26.720  0.00  0.00    +0.025 A 
ATOM     13  C   UNL     1       6.895   0.836  27.845  0.00  0.00    +0.015 A 
ATOM     14  C   UNL     1       6.285   0.909  29.097  0.00  0.00    +0.050 A 
ATOM     15  C   UNL     1       4.956   0.535  29.224  0.00  0.00    +0.158 A 
ATOM     16  C   UNL     1       4.221   0.117  28.116  0.00  0.00    +0.159 A 
ATOM     17  C   UNL     1       4.806   0.084  26.852  0.00  0.00    +0.060 A 
BRANCH  15  18
ATOM     18  O   UNL     1       4.384   0.541  30.464  0.00  0.00    -0.503 OA
ATOM     19  H   UNL     1       3.672   1.208  30.412  0.00  0.00    +0.292 HD
ENDBRANCH  15  18
BRANCH  16  20
ATOM     20  O   UNL     1       2.946  -0.327  28.340  0.00  0.00    -0.503 OA
ATOM     21  H   UNL     1       2.317   0.265  27.892  0.00  0.00    +0.292 HD
ENDBRANCH  16  20
ENDBRANCH  11  12
BRANCH   7  22
ATOM     22  O   UNL     1      10.937   3.947  22.961  0.00  0.00    -0.507 OA
ATOM     23  H   UNL     1      11.816   3.702  22.622  0.00  0.00    +0.292 HD
ENDBRANCH   7  22
BRANCH  10  24
ATOM     24  O   UNL     1       9.755  -0.304  21.258  0.00  0.00    -0.506 OA
ATOM     25  H   UNL     1       9.196  -1.078  21.442  0.00  0.00    +0.292 HD
ENDBRANCH  10  24
BRANCH   1  26
ATOM     26  O   UNL     1       6.239  -2.000  24.784  0.00  0.00    -0.452 OA
BRANCH  26  30
ATOM     27  C   UNL     1       9.197  -4.988  25.437  0.00  0.00    +0.041 C 
ATOM     28  C   UNL     1       7.716  -5.315  25.260  0.00  0.00    +0.150 C 
ATOM     29  O   UNL     1       6.990  -4.223  24.661  0.00  0.00    -0.333 OA
ATOM     30  C   UNL     1       6.837  -3.070  25.512  0.00  0.00    +0.352 C 
ATOM     31  C   UNL     1       6.020  -3.440  26.762  0.00  0.00    +0.275 C 
ATOM     32  C   UNL     1       6.783  -4.555  27.499  0.00  0.00    +0.192 C 
ATOM     33  C   UNL     1       7.053  -5.760  26.577  0.00  0.00    +0.175 C 
BRANCH  32  34
ATOM     34  O   UNL     1       6.059  -4.981  28.658  0.00  0.00    -0.385 OA
ATOM     35  H   UNL     1       6.488  -5.811  28.949  0.00  0.00    +0.210 HD
ENDBRANCH  32  34
BRANCH  33  36
ATOM     36  O   UNL     1       5.805  -6.410  26.291  0.00  0.00    -0.387 OA
ATOM     37  H   UNL     1       5.983  -7.042  25.562  0.00  0.00    +0.210 HD
ENDBRANCH  33  36
BRANCH  31  38
ATOM     38  O   UNL     1       4.736  -3.957  26.331  0.00  0.00    -0.452 OA
BRANCH  38  39
ATOM     39  C   UNL     1       3.624  -3.465  26.934  0.00  0.00    +0.304 C 
ATOM     40  C   UNL     1       2.615  -3.115  25.882  0.00  0.00    +0.136 C 
ATOM     41  O   UNL     1       3.455  -3.347  28.138  0.00  0.00    -0.251 OA
ENDBRANCH  38  39
ENDBRANCH  31  38
ENDBRANCH  26  30
ENDBRANCH   1  26
TORSDOF 11
ENDMDL
MODEL 8
REMARK VINA RESULT:      -6.6      2.771      6.962
REMARK  Name = 
REMARK  13 active torsions:
REMARK  status: ('A' for Active; 'I' for Inactive)
REMARK    1  A    between atoms: C_1  and  C_2
REMARK    2  A    between atoms: C_3  and  O_38
REMARK    3  A    between atoms: C_5  and  O_37
REMARK    4  A    between atoms: C_6  and  O_33
REMARK    5  A    between atoms: C_8  and  O_11
REMARK    6  A    between atoms: O_11  and  C_12
REMARK    7  A    between atoms: C_13  and  C_25
REMARK    8  A    between atoms: C_17  and  O_24
REMARK    9  A    between atoms: C_19  and  O_23
REMARK   10  A    between atoms: C_27  and  O_32
REMARK   11  A    between atoms: C_28  and  O_31
REMARK   12  A    between atoms: O_33  and  C_34
REMARK   13  A    between atoms: C_34  and  C_36
REMARK                            x       y       z     vdW  Elec       q    Type
REMARK                         _______ _______ _______ _____ _____    ______ ____
ROOT
ATOM      1  C   UNL     1       6.582  -0.585  24.301  0.00  0.00    +0.214 A 
ATOM      2  C   UNL     1       6.943  -1.924  23.703  0.00  0.00    +0.238 A 
ATOM      3  O   UNL     1       6.928  -2.073  22.488  0.00  0.00    -0.283 OA
ATOM      4  C   UNL     1       7.276  -3.030  24.638  0.00  0.00    +0.109 A 
ATOM      5  C   UNL     1       7.253  -2.750  25.999  0.00  0.00    +0.147 A 
ATOM      6  C   UNL     1       7.511  -3.741  26.951  0.00  0.00    +0.092 A 
ATOM      7  C   UNL     1       7.815  -5.027  26.529  0.00  0.00    +0.124 A 
ATOM      8  C   UNL     1       7.871  -5.332  25.178  0.00  0.00    +0.091 A 
ATOM      9  O   UNL     1       6.979  -1.511  26.507  0.00  0.00    -0.451 OA
ATOM     10  C   UNL     1       7.594  -4.337  24.231  0.00  0.00    +0.135 A 
ATOM     11  C   UNL     1       6.608  -0.490  25.653  0.00  0.00    +0.181 A 
ENDROOT
BRANCH  11  12
ATOM     12  C   UNL     1       6.136   0.658  26.447  0.00  0.00    +0.025 A 
ATOM     13  C   UNL     1       4.768   0.751  26.753  0.00  0.00    +0.015 A 
ATOM     14  C   UNL     1       4.274   1.843  27.467  0.00  0.00    +0.050 A 
ATOM     15  C   UNL     1       5.145   2.850  27.850  0.00  0.00    +0.158 A 
ATOM     16  C   UNL     1       6.506   2.770  27.557  0.00  0.00    +0.159 A 
ATOM     17  C   UNL     1       7.019   1.662  26.886  0.00  0.00    +0.060 A 
BRANCH  15  18
ATOM     18  O   UNL     1       4.645   3.950  28.486  0.00  0.00    -0.503 OA
ATOM     19  H   UNL     1       5.429   4.469  28.752  0.00  0.00    +0.292 HD
ENDBRANCH  15  18
BRANCH  16  20
ATOM     20  O   UNL     1       7.283   3.848  27.883  0.00  0.00    -0.503 OA
ATOM     21  H   UNL     1       8.213   3.645  27.683  0.00  0.00    +0.292 HD
ENDBRANCH  16  20
ENDBRANCH  11  12
BRANCH   7  22
ATOM     22  O   UNL     1       8.068  -6.026  27.421  0.00  0.00    -0.507 OA
ATOM     23  H   UNL     1       8.362  -6.820  26.942  0.00  0.00    +0.292 HD
ENDBRANCH   7  22
BRANCH  10  24
ATOM     24  O   UNL     1       7.651  -4.671  22.909  0.00  0.00    -0.506 OA
ATOM     25  H   UNL     1       6.989  -5.350  22.700  0.00  0.00    +0.292 HD
ENDBRANCH  10  24
BRANCH   1  26
ATOM     26  O   UNL     1       6.179   0.358  23.368  0.00  0.00    -0.452 OA
BRANCH  26  30
ATOM     27  C   UNL     1       9.992   1.758  22.103  0.00  0.00    +0.041 C 
ATOM     28  C   UNL     1       9.241   2.360  23.289  0.00  0.00    +0.150 C 
ATOM     29  O   UNL     1       8.200   1.486  23.769  0.00  0.00    -0.333 OA
ATOM     30  C   UNL     1       7.078   1.348  22.874  0.00  0.00    +0.352 C 
ATOM     31  C   UNL     1       6.385   2.707  22.682  0.00  0.00    +0.275 C 
ATOM     32  C   UNL     1       7.425   3.677  22.093  0.00  0.00    +0.192 C 
ATOM     33  C   UNL     1       8.683   3.762  22.979  0.00  0.00    +0.175 C 
BRANCH  32  34
ATOM     34  O   UNL     1       6.861   4.981  21.923  0.00  0.00    -0.385 OA
ATOM     35  H   UNL     1       7.539   5.608  22.246  0.00  0.00    +0.210 HD
ENDBRANCH  32  34
BRANCH  33  36
ATOM     36  O   UNL     1       8.340   4.424  24.206  0.00  0.00    -0.387 OA
ATOM     37  H   UNL     1       8.101   5.345  23.966  0.00  0.00    +0.210 HD
ENDBRANCH  33  36
BRANCH  31  38
ATOM     38  O   UNL     1       5.972   3.197  23.982  0.00  0.00    -0.452 OA
BRANCH  38  39
ATOM     39  C   UNL     1       4.648   3.426  24.177  0.00  0.00    +0.304 C 
ATOM     40  C   UNL     1       4.470   4.804  24.739  0.00  0.00    +0.136 C 
ATOM     41  O   UNL     1       3.742   2.650  23.917  0.00  0.00    -0.251 OA
ENDBRANCH  38  39
ENDBRANCH  31  38
ENDBRANCH  26  30
ENDBRANCH   1  26
TORSDOF 11
ENDMDL
MODEL 9
REMARK VINA RESULT:      -6.6      1.526      1.808
REMARK  Name = 
REMARK  13 active torsions:
REMARK  status: ('A' for Active; 'I' for Inactive)
REMARK    1  A    between atoms: C_1  and  C_2
REMARK    2  A    between atoms: C_3  and  O_38
REMARK    3  A    between atoms: C_5  and  O_37
REMARK    4  A    between atoms: C_6  and  O_33
REMARK    5  A    between atoms: C_8  and  O_11
REMARK    6  A    between atoms: O_11  and  C_12
REMARK    7  A    between atoms: C_13  and  C_25
REMARK    8  A    between atoms: C_17  and  O_24
REMARK    9  A    between atoms: C_19  and  O_23
REMARK   10  A    between atoms: C_27  and  O_32
REMARK   11  A    between atoms: C_28  and  O_31
REMARK   12  A    between atoms: O_33  and  C_34
REMARK   13  A    between atoms: C_34  and  C_36
REMARK                            x       y       z     vdW  Elec       q    Type
REMARK                         _______ _______ _______ _____ _____    ______ ____
ROOT
ATOM      1  C   UNL     1       7.719  -1.976  25.775  0.00  0.00    +0.214 A 
ATOM      2  C   UNL     1       8.754  -2.092  24.682  0.00  0.00    +0.238 A 
ATOM      3  O   UNL     1       9.437  -3.104  24.592  0.00  0.00    -0.283 OA
ATOM      4  C   UNL     1       8.922  -0.934  23.765  0.00  0.00    +0.109 A 
ATOM      5  C   UNL     1       8.099   0.168  23.964  0.00  0.00    +0.147 A 
ATOM      6  C   UNL     1       8.216   1.318  23.176  0.00  0.00    +0.092 A 
ATOM      7  C   UNL     1       9.162   1.352  22.162  0.00  0.00    +0.124 A 
ATOM      8  C   UNL     1       9.981   0.261  21.922  0.00  0.00    +0.091 A 
ATOM      9  O   UNL     1       7.130   0.218  24.927  0.00  0.00    -0.451 OA
ATOM     10  C   UNL     1       9.868  -0.881  22.727  0.00  0.00    +0.135 A 
ATOM     11  C   UNL     1       7.005  -0.825  25.824  0.00  0.00    +0.181 A 
ENDROOT
BRANCH  11  12
ATOM     12  C   UNL     1       6.071  -0.433  26.895  0.00  0.00    +0.025 A 
ATOM     13  C   UNL     1       4.713  -0.768  26.763  0.00  0.00    +0.015 A 
ATOM     14  C   UNL     1       3.790  -0.380  27.734  0.00  0.00    +0.050 A 
ATOM     15  C   UNL     1       4.224   0.363  28.821  0.00  0.00    +0.158 A 
ATOM     16  C   UNL     1       5.569   0.700  28.967  0.00  0.00    +0.159 A 
ATOM     17  C   UNL     1       6.508   0.278  28.029  0.00  0.00    +0.060 A 
BRANCH  15  18
ATOM     18  O   UNL     1       3.305   0.801  29.731  0.00  0.00    -0.503 OA
ATOM     19  H   UNL     1       2.847  -0.005  30.038  0.00  0.00    +0.292 HD
ENDBRANCH  15  18
BRANCH  16  20
ATOM     20  O   UNL     1       5.901   1.516  30.014  0.00  0.00    -0.503 OA
ATOM     21  H   UNL     1       6.485   2.226  29.694  0.00  0.00    +0.292 HD
ENDBRANCH  16  20
ENDBRANCH  11  12
BRANCH   7  22
ATOM     22  O   UNL     1       9.316   2.453  21.373  0.00  0.00    -0.507 OA
ATOM     23  H   UNL     1       8.448   2.730  21.032  0.00  0.00    +0.292 HD
ENDBRANCH   7  22
BRANCH  10  24
ATOM     24  O   UNL     1      10.693  -1.937  22.469  0.00  0.00    -0.506 OA
ATOM     25  H   UNL     1      11.117  -1.834  21.601  0.00  0.00    +0.292 HD
ENDBRANCH  10  24
BRANCH   1  26
ATOM     26  O   UNL     1       7.704  -3.051  26.651  0.00  0.00    -0.452 OA
BRANCH  26  30
ATOM     27  C   UNL     1       4.859  -4.554  29.434  0.00  0.00    +0.041 C 
ATOM     28  C   UNL     1       5.581  -5.446  28.427  0.00  0.00    +0.150 C 
ATOM     29  O   UNL     1       6.757  -4.809  27.888  0.00  0.00    -0.333 OA
ATOM     30  C   UNL     1       6.486  -3.699  27.011  0.00  0.00    +0.352 C 
ATOM     31  C   UNL     1       5.706  -4.181  25.775  0.00  0.00    +0.275 C 
ATOM     32  C   UNL     1       4.392  -4.806  26.274  0.00  0.00    +0.192 C 
ATOM     33  C   UNL     1       4.652  -5.928  27.297  0.00  0.00    +0.175 C 
BRANCH  32  34
ATOM     34  O   UNL     1       3.627  -5.316  25.177  0.00  0.00    -0.385 OA
ATOM     35  H   UNL     1       4.122  -6.092  24.845  0.00  0.00    +0.210 HD
ENDBRANCH  32  34
BRANCH  33  36
ATOM     36  O   UNL     1       5.256  -7.041  26.619  0.00  0.00    -0.387 OA
ATOM     37  H   UNL     1       4.832  -7.848  26.980  0.00  0.00    +0.210 HD
ENDBRANCH  33  36
BRANCH  31  38
ATOM     38  O   UNL     1       6.489  -5.205  25.112  0.00  0.00    -0.452 OA
BRANCH  38  39
ATOM     39  C   UNL     1       6.801  -5.012  23.805  0.00  0.00    +0.304 C 
ATOM     40  C   UNL     1       5.926  -3.929  23.251  0.00  0.00    +0.136 C 
ATOM     41  O   UNL     1       7.669  -5.603  23.181  0.00  0.00    -0.251 OA
ENDBRANCH  38  39
ENDBRANCH  31  38
ENDBRANCH  26  30
ENDBRANCH   1  26
TORSDOF 11
ENDMDL
