MODEL 1
REMARK VINA RESULT:      -7.8      0.000      0.000
REMARK  Name = 
REMARK  11 active torsions:
REMARK  status: ('A' for Active; 'I' for Inactive)
REMARK    1  A    between atoms: C_1  and  C_2
REMARK    2  A    between atoms: C_4  and  O_37
REMARK    3  A    between atoms: C_6  and  O_36
REMARK    4  A    between atoms: C_8  and  O_35
REMARK    5  A    between atoms: C_10  and  O_13
REMARK    6  A    between atoms: O_13  and  C_14
REMARK    7  A    between atoms: C_16  and  O_34
REMARK    8  A    between atoms: C_21  and  C_26
REMARK    9  A    between atoms: C_22  and  O_25
REMARK   10  A    between atoms: C_28  and  O_33
REMARK   11  A    between atoms: C_29  and  O_32
REMARK                            x       y       z     vdW  Elec       q    Type
REMARK                         _______ _______ _______ _____ _____    ______ ____
ROOT
ATOM      1  C   UNL     1       5.287  -5.107  22.799  0.00  0.00    +0.131 A 
ATOM      2  C   UNL     1       5.292  -3.706  22.703  0.00  0.00    +0.093 A 
ATOM      3  C   UNL     1       6.468  -2.973  22.943  0.00  0.00    +0.147 A 
ATOM      4  O   UNL     1       6.397  -1.599  22.793  0.00  0.00    -0.451 OA
ATOM      5  C   UNL     1       7.549  -0.840  23.006  0.00  0.00    +0.181 A 
ATOM      6  C   UNL     1       8.709  -1.366  23.438  0.00  0.00    +0.208 A 
ATOM      7  C   UNL     1       8.811  -2.825  23.661  0.00  0.00    +0.238 A 
ATOM      8  O   UNL     1       9.861  -3.254  24.129  0.00  0.00    -0.283 OA
ATOM      9  C   UNL     1       7.639  -3.640  23.320  0.00  0.00    +0.109 A 
ATOM     10  C   UNL     1       7.636  -5.035  23.392  0.00  0.00    +0.135 A 
ATOM     11  C   UNL     1       6.476  -5.763  23.123  0.00  0.00    +0.092 A 
ENDROOT
BRANCH   5  12
ATOM     12  C   UNL     1       7.388   0.631  22.832  0.00  0.00    +0.025 A 
ATOM     13  C   UNL     1       8.091   1.315  21.824  0.00  0.00    +0.015 A 
ATOM     14  C   UNL     1       7.850   2.674  21.574  0.00  0.00    +0.050 A 
ATOM     15  C   UNL     1       6.903   3.352  22.325  0.00  0.00    +0.158 A 
ATOM     16  C   UNL     1       6.221   2.705  23.346  0.00  0.00    +0.159 A 
ATOM     17  C   UNL     1       6.477   1.365  23.621  0.00  0.00    +0.060 A 
BRANCH  15  18
ATOM     18  O   UNL     1       6.624   4.658  22.043  0.00  0.00    -0.503 OA
ATOM     19  H   UNL     1       7.482   5.036  21.759  0.00  0.00    +0.292 HD
ENDBRANCH  15  18
BRANCH  16  20
ATOM     20  O   UNL     1       5.278   3.418  24.037  0.00  0.00    -0.503 OA
ATOM     21  H   UNL     1       5.617   3.566  24.938  0.00  0.00    +0.292 HD
ENDBRANCH  16  20
ENDBRANCH   5  12
BRANCH   6  22
ATOM     22  O   UNL     1       9.826  -0.617  23.774  0.00  0.00    -0.501 OA
ATOM     23  H   UNL     1       9.515   0.313  23.753  0.00  0.00    +0.292 HD
ENDBRANCH   6  22
BRANCH  10  24
ATOM     24  O   UNL     1       8.772  -5.722  23.725  0.00  0.00    -0.506 OA
ATOM     25  H   UNL     1       9.507  -5.473  23.137  0.00  0.00    +0.292 HD
ENDBRANCH  10  24
BRANCH   1  26
ATOM     26  O   UNL     1       4.078  -5.727  22.590  0.00  0.00    -0.461 OA
BRANCH  26  30
ATOM     27  C   UNL     1       0.620  -8.212  22.985  0.00  0.00    +0.041 C 
ATOM     28  C   UNL     1       1.945  -7.575  23.394  0.00  0.00    +0.150 C 
ATOM     29  O   UNL     1       1.798  -6.165  23.213  0.00  0.00    -0.334 OA
ATOM     30  C   UNL     1       2.996  -5.416  23.492  0.00  0.00    +0.339 C 
ATOM     31  C   UNL     1       3.437  -5.644  24.955  0.00  0.00    +0.214 C 
ATOM     32  C   UNL     1       3.588  -7.140  25.232  0.00  0.00    +0.180 C 
ATOM     33  C   UNL     1       2.316  -7.905  24.846  0.00  0.00    +0.174 C 
BRANCH  31  34
ATOM     34  O   UNL     1       2.466  -5.100  25.871  0.00  0.00    -0.383 OA
ATOM     35  H   UNL     1       2.398  -5.763  26.590  0.00  0.00    +0.210 HD
ENDBRANCH  31  34
BRANCH  32  36
ATOM     36  O   UNL     1       3.843  -7.337  26.635  0.00  0.00    -0.386 OA
ATOM     37  H   UNL     1       2.976  -7.590  27.012  0.00  0.00    +0.210 HD
ENDBRANCH  32  36
BRANCH  33  38
ATOM     38  O   UNL     1       2.572  -9.302  25.038  0.00  0.00    -0.387 OA
ATOM     39  H   UNL     1       3.435  -9.383  25.480  0.00  0.00    +0.210 HD
ENDBRANCH  33  38
ENDBRANCH  26  30
ENDBRANCH   1  26
TORSDOF 10
ENDMDL
MODEL 2
REMARK VINA RESULT:      -7.7      1.895      9.322
REMARK  Name = 
REMARK  11 active torsions:
REMARK  status: ('A' for Active; 'I' for Inactive)
REMARK    1  A    between atoms: C_1  and  C_2
REMARK    2  A    between atoms: C_4  and  O_37
REMARK    3  A    between atoms: C_6  and  O_36
REMARK    4  A    between atoms: C_8  and  O_35
REMARK    5  A    between atoms: C_10  and  O_13
REMARK    6  A    between atoms: O_13  and  C_14
REMARK    7  A    between atoms: C_16  and  O_34
REMARK    8  A    between atoms: C_21  and  C_26
REMARK    9  A    between atoms: C_22  and  O_25
REMARK   10  A    between atoms: C_28  and  O_33
REMARK   11  A    between atoms: C_29  and  O_32
REMARK                            x       y       z     vdW  Elec       q    Type
REMARK                         _______ _______ _______ _____ _____    ______ ____
ROOT
ATOM      1  C   UNL     1       7.373   0.904  23.207  0.00  0.00    +0.131 A 
ATOM      2  C   UNL     1       6.591  -0.231  23.474  0.00  0.00    +0.093 A 
ATOM      3  C   UNL     1       7.195  -1.471  23.750  0.00  0.00    +0.147 A 
ATOM      4  O   UNL     1       6.354  -2.532  24.038  0.00  0.00    -0.451 OA
ATOM      5  C   UNL     1       6.918  -3.775  24.332  0.00  0.00    +0.181 A 
ATOM      6  C   UNL     1       8.239  -4.020  24.265  0.00  0.00    +0.208 A 
ATOM      7  C   UNL     1       9.167  -2.924  23.909  0.00  0.00    +0.238 A 
ATOM      8  O   UNL     1      10.354  -3.207  23.782  0.00  0.00    -0.283 OA
ATOM      9  C   UNL     1       8.589  -1.588  23.719  0.00  0.00    +0.109 A 
ATOM     10  C   UNL     1       9.364  -0.452  23.476  0.00  0.00    +0.135 A 
ATOM     11  C   UNL     1       8.764   0.785  23.234  0.00  0.00    +0.092 A 
ENDROOT
BRANCH   5  12
ATOM     12  C   UNL     1       5.947  -4.866  24.624  0.00  0.00    +0.025 A 
ATOM     13  C   UNL     1       5.120  -5.382  23.610  0.00  0.00    +0.015 A 
ATOM     14  C   UNL     1       4.296  -6.491  23.848  0.00  0.00    +0.050 A 
ATOM     15  C   UNL     1       4.298  -7.092  25.097  0.00  0.00    +0.158 A 
ATOM     16  C   UNL     1       5.082  -6.580  26.121  0.00  0.00    +0.159 A 
ATOM     17  C   UNL     1       5.879  -5.461  25.902  0.00  0.00    +0.060 A 
BRANCH  15  18
ATOM     18  O   UNL     1       3.542  -8.208  25.312  0.00  0.00    -0.503 OA
ATOM     19  H   UNL     1       3.811  -8.827  24.602  0.00  0.00    +0.292 HD
ENDBRANCH  15  18
BRANCH  16  20
ATOM     20  O   UNL     1       5.064  -7.231  27.326  0.00  0.00    -0.503 OA
ATOM     21  H   UNL     1       4.943  -8.182  27.149  0.00  0.00    +0.292 HD
ENDBRANCH  16  20
ENDBRANCH   5  12
BRANCH   6  22
ATOM     22  O   UNL     1       8.808  -5.272  24.432  0.00  0.00    -0.501 OA
ATOM     23  H   UNL     1       9.581  -5.116  25.017  0.00  0.00    +0.292 HD
ENDBRANCH   6  22
BRANCH  10  24
ATOM     24  O   UNL     1      10.730  -0.523  23.471  0.00  0.00    -0.506 OA
ATOM     25  H   UNL     1      11.105   0.136  22.861  0.00  0.00    +0.292 HD
ENDBRANCH  10  24
BRANCH   1  26
ATOM     26  O   UNL     1       6.687   2.057  22.907  0.00  0.00    -0.461 OA
BRANCH  26  30
ATOM     27  C   UNL     1       9.667   4.965  23.887  0.00  0.00    +0.041 C 
ATOM     28  C   UNL     1       8.349   4.440  23.326  0.00  0.00    +0.150 C 
ATOM     29  O   UNL     1       7.743   3.659  24.357  0.00  0.00    -0.334 OA
ATOM     30  C   UNL     1       6.510   3.028  23.959  0.00  0.00    +0.339 C 
ATOM     31  C   UNL     1       5.480   4.098  23.533  0.00  0.00    +0.214 C 
ATOM     32  C   UNL     1       6.072   4.995  22.446  0.00  0.00    +0.180 C 
ATOM     33  C   UNL     1       7.420   5.580  22.884  0.00  0.00    +0.174 C 
BRANCH  31  34
ATOM     34  O   UNL     1       5.103   4.919  24.656  0.00  0.00    -0.383 OA
ATOM     35  H   UNL     1       5.930   5.372  24.926  0.00  0.00    +0.210 HD
ENDBRANCH  31  34
BRANCH  32  36
ATOM     36  O   UNL     1       5.159   6.076  22.178  0.00  0.00    -0.386 OA
ATOM     37  H   UNL     1       5.022   6.506  23.047  0.00  0.00    +0.210 HD
ENDBRANCH  32  36
BRANCH  33  38
ATOM     38  O   UNL     1       7.954   6.320  21.780  0.00  0.00    -0.387 OA
ATOM     39  H   UNL     1       7.766   7.262  21.941  0.00  0.00    +0.210 HD
ENDBRANCH  33  38
ENDBRANCH  26  30
ENDBRANCH   1  26
TORSDOF 10
ENDMDL
MODEL 3
REMARK VINA RESULT:      -7.5      2.566      9.022
REMARK  Name = 
REMARK  11 active torsions:
REMARK  status: ('A' for Active; 'I' for Inactive)
REMARK    1  A    between atoms: C_1  and  C_2
REMARK    2  A    between atoms: C_4  and  O_37
REMARK    3  A    between atoms: C_6  and  O_36
REMARK    4  A    between atoms: C_8  and  O_35
REMARK    5  A    between atoms: C_10  and  O_13
REMARK    6  A    between atoms: O_13  and  C_14
REMARK    7  A    between atoms: C_16  and  O_34
REMARK    8  A    between atoms: C_21  and  C_26
REMARK    9  A    between atoms: C_22  and  O_25
REMARK   10  A    between atoms: C_28  and  O_33
REMARK   11  A    between atoms: C_29  and  O_32
REMARK                            x       y       z     vdW  Elec       q    Type
REMARK                         _______ _______ _______ _____ _____    ______ ____
ROOT
ATOM      1  C   UNL     1       7.155  -0.311  23.621  0.00  0.00    +0.131 A 
ATOM      2  C   UNL     1       6.486  -1.283  24.381  0.00  0.00    +0.093 A 
ATOM      3  C   UNL     1       7.153  -2.443  24.812  0.00  0.00    +0.147 A 
ATOM      4  O   UNL     1       6.432  -3.335  25.587  0.00  0.00    -0.451 OA
ATOM      5  C   UNL     1       7.066  -4.491  26.047  0.00  0.00    +0.181 A 
ATOM      6  C   UNL     1       8.322  -4.829  25.703  0.00  0.00    +0.208 A 
ATOM      7  C   UNL     1       9.108  -3.928  24.832  0.00  0.00    +0.238 A 
ATOM      8  O   UNL     1      10.220  -4.311  24.478  0.00  0.00    -0.283 OA
ATOM      9  C   UNL     1       8.488  -2.654  24.448  0.00  0.00    +0.109 A 
ATOM     10  C   UNL     1       9.158  -1.674  23.711  0.00  0.00    +0.135 A 
ATOM     11  C   UNL     1       8.503  -0.508  23.311  0.00  0.00    +0.092 A 
ENDROOT
BRANCH   5  12
ATOM     12  C   UNL     1       6.221  -5.402  26.868  0.00  0.00    +0.025 A 
ATOM     13  C   UNL     1       6.345  -5.428  28.269  0.00  0.00    +0.015 A 
ATOM     14  C   UNL     1       5.468  -6.189  29.054  0.00  0.00    +0.050 A 
ATOM     15  C   UNL     1       4.461  -6.923  28.446  0.00  0.00    +0.158 A 
ATOM     16  C   UNL     1       4.341  -6.936  27.063  0.00  0.00    +0.159 A 
ATOM     17  C   UNL     1       5.227  -6.209  26.274  0.00  0.00    +0.060 A 
BRANCH  15  18
ATOM     18  O   UNL     1       3.570  -7.615  29.212  0.00  0.00    -0.503 OA
ATOM     19  H   UNL     1       3.288  -6.975  29.898  0.00  0.00    +0.292 HD
ENDBRANCH  15  18
BRANCH  16  20
ATOM     20  O   UNL     1       3.312  -7.657  26.518  0.00  0.00    -0.503 OA
ATOM     21  H   UNL     1       2.737  -7.037  26.033  0.00  0.00    +0.292 HD
ENDBRANCH  16  20
ENDBRANCH   5  12
BRANCH   6  22
ATOM     22  O   UNL     1       8.927  -6.028  26.046  0.00  0.00    -0.501 OA
ATOM     23  H   UNL     1       9.610  -5.780  26.705  0.00  0.00    +0.292 HD
ENDBRANCH   6  22
BRANCH  10  24
ATOM     24  O   UNL     1      10.472  -1.832  23.366  0.00  0.00    -0.506 OA
ATOM     25  H   UNL     1      10.975  -2.219  24.105  0.00  0.00    +0.292 HD
ENDBRANCH  10  24
BRANCH   1  26
ATOM     26  O   UNL     1       6.404   0.765  23.212  0.00  0.00    -0.461 OA
BRANCH  26  30
ATOM     27  C   UNL     1       9.138   3.982  23.896  0.00  0.00    +0.041 C 
ATOM     28  C   UNL     1       7.867   3.303  23.396  0.00  0.00    +0.150 C 
ATOM     29  O   UNL     1       7.327   2.574  24.500  0.00  0.00    -0.334 OA
ATOM     30  C   UNL     1       6.149   1.812  24.172  0.00  0.00    +0.339 C 
ATOM     31  C   UNL     1       5.035   2.751  23.657  0.00  0.00    +0.214 C 
ATOM     32  C   UNL     1       5.552   3.589  22.487  0.00  0.00    +0.180 C 
ATOM     33  C   UNL     1       6.849   4.318  22.859  0.00  0.00    +0.174 C 
BRANCH  31  34
ATOM     34  O   UNL     1       4.594   3.640  24.702  0.00  0.00    -0.383 OA
ATOM     35  H   UNL     1       4.246   3.051  25.404  0.00  0.00    +0.210 HD
ENDBRANCH  31  34
BRANCH  32  36
ATOM     36  O   UNL     1       4.555   4.563  22.128  0.00  0.00    -0.386 OA
ATOM     37  H   UNL     1       4.976   5.428  22.307  0.00  0.00    +0.210 HD
ENDBRANCH  32  36
BRANCH  33  38
ATOM     38  O   UNL     1       7.320   4.994  21.687  0.00  0.00    -0.387 OA
ATOM     39  H   UNL     1       7.150   5.945  21.809  0.00  0.00    +0.210 HD
ENDBRANCH  33  38
ENDBRANCH  26  30
ENDBRANCH   1  26
TORSDOF 10
ENDMDL
MODEL 4
REMARK VINA RESULT:      -7.4      1.661      2.609
REMARK  Name = 
REMARK  11 active torsions:
REMARK  status: ('A' for Active; 'I' for Inactive)
REMARK    1  A    between atoms: C_1  and  C_2
REMARK    2  A    between atoms: C_4  and  O_37
REMARK    3  A    between atoms: C_6  and  O_36
REMARK    4  A    between atoms: C_8  and  O_35
REMARK    5  A    between atoms: C_10  and  O_13
REMARK    6  A    between atoms: O_13  and  C_14
REMARK    7  A    between atoms: C_16  and  O_34
REMARK    8  A    between atoms: C_21  and  C_26
REMARK    9  A    between atoms: C_22  and  O_25
REMARK   10  A    between atoms: C_28  and  O_33
REMARK   11  A    between atoms: C_29  and  O_32
REMARK                            x       y       z     vdW  Elec       q    Type
REMARK                         _______ _______ _______ _____ _____    ______ ____
ROOT
ATOM      1  C   UNL     1       6.624  -3.223  23.447  0.00  0.00    +0.131 A 
ATOM      2  C   UNL     1       6.258  -1.868  23.410  0.00  0.00    +0.093 A 
ATOM      3  C   UNL     1       7.231  -0.857  23.501  0.00  0.00    +0.147 A 
ATOM      4  O   UNL     1       6.790   0.452  23.420  0.00  0.00    -0.451 OA
ATOM      5  C   UNL     1       7.730   1.482  23.491  0.00  0.00    +0.181 A 
ATOM      6  C   UNL     1       9.039   1.273  23.722  0.00  0.00    +0.208 A 
ATOM      7  C   UNL     1       9.541  -0.111  23.867  0.00  0.00    +0.238 A 
ATOM      8  O   UNL     1      10.726  -0.256  24.155  0.00  0.00    -0.283 OA
ATOM      9  C   UNL     1       8.577  -1.201  23.671  0.00  0.00    +0.109 A 
ATOM     10  C   UNL     1       8.941  -2.550  23.685  0.00  0.00    +0.135 A 
ATOM     11  C   UNL     1       7.977  -3.551  23.562  0.00  0.00    +0.092 A 
ENDROOT
BRANCH   5  12
ATOM     12  C   UNL     1       7.176   2.862  23.403  0.00  0.00    +0.025 A 
ATOM     13  C   UNL     1       6.348   3.369  24.421  0.00  0.00    +0.015 A 
ATOM     14  C   UNL     1       5.927   4.707  24.406  0.00  0.00    +0.050 A 
ATOM     15  C   UNL     1       6.334   5.544  23.379  0.00  0.00    +0.158 A 
ATOM     16  C   UNL     1       7.125   5.055  22.347  0.00  0.00    +0.159 A 
ATOM     17  C   UNL     1       7.521   3.722  22.338  0.00  0.00    +0.060 A 
BRANCH  15  18
ATOM     18  O   UNL     1       5.975   6.860  23.395  0.00  0.00    -0.503 OA
ATOM     19  H   UNL     1       6.825   7.345  23.455  0.00  0.00    +0.292 HD
ENDBRANCH  15  18
BRANCH  16  20
ATOM     20  O   UNL     1       7.518   5.934  21.374  0.00  0.00    -0.503 OA
ATOM     21  H   UNL     1       6.742   6.467  21.121  0.00  0.00    +0.292 HD
ENDBRANCH  16  20
ENDBRANCH   5  12
BRANCH   6  22
ATOM     22  O   UNL     1       9.967   2.283  23.918  0.00  0.00    -0.501 OA
ATOM     23  H   UNL     1      10.375   2.078  24.786  0.00  0.00    +0.292 HD
ENDBRANCH   6  22
BRANCH  10  24
ATOM     24  O   UNL     1      10.251  -2.921  23.816  0.00  0.00    -0.506 OA
ATOM     25  H   UNL     1      10.380  -3.835  23.508  0.00  0.00    +0.292 HD
ENDBRANCH  10  24
BRANCH   1  26
ATOM     26  O   UNL     1       5.596  -4.133  23.395  0.00  0.00    -0.461 OA
BRANCH  26  30
ATOM     27  C   UNL     1       1.738  -5.917  22.920  0.00  0.00    +0.041 C 
ATOM     28  C   UNL     1       3.147  -5.750  23.479  0.00  0.00    +0.150 C 
ATOM     29  O   UNL     1       3.262  -4.392  23.911  0.00  0.00    -0.334 OA
ATOM     30  C   UNL     1       4.570  -4.049  24.407  0.00  0.00    +0.339 C 
ATOM     31  C   UNL     1       4.933  -4.944  25.613  0.00  0.00    +0.214 C 
ATOM     32  C   UNL     1       4.805  -6.419  25.232  0.00  0.00    +0.180 C 
ATOM     33  C   UNL     1       3.423  -6.719  24.637  0.00  0.00    +0.174 C 
BRANCH  31  34
ATOM     34  O   UNL     1       4.059  -4.677  26.727  0.00  0.00    -0.383 OA
ATOM     35  H   UNL     1       3.359  -5.361  26.669  0.00  0.00    +0.210 HD
ENDBRANCH  31  34
BRANCH  32  36
ATOM     36  O   UNL     1       4.993  -7.227  26.408  0.00  0.00    -0.386 OA
ATOM     37  H   UNL     1       5.401  -8.054  26.078  0.00  0.00    +0.210 HD
ENDBRANCH  32  36
BRANCH  33  38
ATOM     38  O   UNL     1       3.419  -8.087  24.214  0.00  0.00    -0.387 OA
ATOM     39  H   UNL     1       3.214  -8.098  23.262  0.00  0.00    +0.210 HD
ENDBRANCH  33  38
ENDBRANCH  26  30
ENDBRANCH   1  26
TORSDOF 10
ENDMDL
MODEL 5
REMARK VINA RESULT:      -7.4      1.803      3.155
REMARK  Name = 
REMARK  11 active torsions:
REMARK  status: ('A' for Active; 'I' for Inactive)
REMARK    1  A    between atoms: C_1  and  C_2
REMARK    2  A    between atoms: C_4  and  O_37
REMARK    3  A    between atoms: C_6  and  O_36
REMARK    4  A    between atoms: C_8  and  O_35
REMARK    5  A    between atoms: C_10  and  O_13
REMARK    6  A    between atoms: O_13  and  C_14
REMARK    7  A    between atoms: C_16  and  O_34
REMARK    8  A    between atoms: C_21  and  C_26
REMARK    9  A    between atoms: C_22  and  O_25
REMARK   10  A    between atoms: C_28  and  O_33
REMARK   11  A    between atoms: C_29  and  O_32
REMARK                            x       y       z     vdW  Elec       q    Type
REMARK                         _______ _______ _______ _____ _____    ______ ____
ROOT
ATOM      1  C   UNL     1       6.645  -3.287  23.009  0.00  0.00    +0.131 A 
ATOM      2  C   UNL     1       6.259  -1.937  22.981  0.00  0.00    +0.093 A 
ATOM      3  C   UNL     1       7.193  -0.918  23.241  0.00  0.00    +0.147 A 
ATOM      4  O   UNL     1       6.741   0.388  23.159  0.00  0.00    -0.451 OA
ATOM      5  C   UNL     1       7.643   1.427  23.395  0.00  0.00    +0.181 A 
ATOM      6  C   UNL     1       8.915   1.225  23.785  0.00  0.00    +0.208 A 
ATOM      7  C   UNL     1       9.421  -0.157  23.936  0.00  0.00    +0.238 A 
ATOM      8  O   UNL     1      10.561  -0.298  24.369  0.00  0.00    -0.283 OA
ATOM      9  C   UNL     1       8.512  -1.250  23.570  0.00  0.00    +0.109 A 
ATOM     10  C   UNL     1       8.897  -2.593  23.574  0.00  0.00    +0.135 A 
ATOM     11  C   UNL     1       7.977  -3.601  23.284  0.00  0.00    +0.092 A 
ENDROOT
BRANCH   5  12
ATOM     12  C   UNL     1       7.078   2.801  23.295  0.00  0.00    +0.025 A 
ATOM     13  C   UNL     1       6.163   3.273  24.253  0.00  0.00    +0.015 A 
ATOM     14  C   UNL     1       5.724   4.605  24.234  0.00  0.00    +0.050 A 
ATOM     15  C   UNL     1       6.202   5.472  23.264  0.00  0.00    +0.158 A 
ATOM     16  C   UNL     1       7.082   5.019  22.290  0.00  0.00    +0.159 A 
ATOM     17  C   UNL     1       7.497   3.691  22.282  0.00  0.00    +0.060 A 
BRANCH  15  18
ATOM     18  O   UNL     1       5.824   6.783  23.282  0.00  0.00    -0.503 OA
ATOM     19  H   UNL     1       6.391   7.192  23.969  0.00  0.00    +0.292 HD
ENDBRANCH  15  18
BRANCH  16  20
ATOM     20  O   UNL     1       7.541   5.926  21.373  0.00  0.00    -0.503 OA
ATOM     21  H   UNL     1       7.639   6.785  21.825  0.00  0.00    +0.292 HD
ENDBRANCH  16  20
ENDBRANCH   5  12
BRANCH   6  22
ATOM     22  O   UNL     1       9.790   2.238  24.143  0.00  0.00    -0.501 OA
ATOM     23  H   UNL     1      10.645   1.980  23.738  0.00  0.00    +0.292 HD
ENDBRANCH   6  22
BRANCH  10  24
ATOM     24  O   UNL     1      10.187  -2.951  23.858  0.00  0.00    -0.506 OA
ATOM     25  H   UNL     1      10.241  -3.902  24.057  0.00  0.00    +0.292 HD
ENDBRANCH  10  24
BRANCH   1  26
ATOM     26  O   UNL     1       5.649  -4.208  22.784  0.00  0.00    -0.461 OA
BRANCH  26  30
ATOM     27  C   UNL     1       2.897  -3.493  25.979  0.00  0.00    +0.041 C 
ATOM     28  C   UNL     1       3.416  -4.115  24.686  0.00  0.00    +0.150 C 
ATOM     29  O   UNL     1       4.724  -4.618  24.965  0.00  0.00    -0.334 OA
ATOM     30  C   UNL     1       5.387  -5.181  23.817  0.00  0.00    +0.339 C 
ATOM     31  C   UNL     1       4.559  -6.355  23.248  0.00  0.00    +0.214 C 
ATOM     32  C   UNL     1       3.131  -5.897  22.951  0.00  0.00    +0.180 C 
ATOM     33  C   UNL     1       2.495  -5.234  24.179  0.00  0.00    +0.174 C 
BRANCH  31  34
ATOM     34  O   UNL     1       4.508  -7.445  24.190  0.00  0.00    -0.383 OA
ATOM     35  H   UNL     1       4.731  -8.243  23.665  0.00  0.00    +0.210 HD
ENDBRANCH  31  34
BRANCH  32  36
ATOM     36  O   UNL     1       2.338  -7.038  22.574  0.00  0.00    -0.386 OA
ATOM     37  H   UNL     1       1.969  -7.373  23.417  0.00  0.00    +0.210 HD
ENDBRANCH  32  36
BRANCH  33  38
ATOM     38  O   UNL     1       1.206  -4.744  23.792  0.00  0.00    -0.387 OA
ATOM     39  H   UNL     1       1.302  -4.330  22.915  0.00  0.00    +0.210 HD
ENDBRANCH  33  38
ENDBRANCH  26  30
ENDBRANCH   1  26
TORSDOF 10
ENDMDL
MODEL 6
REMARK VINA RESULT:      -7.2      1.820      9.119
REMARK  Name = 
REMARK  11 active torsions:
REMARK  status: ('A' for Active; 'I' for Inactive)
REMARK    1  A    between atoms: C_1  and  C_2
REMARK    2  A    between atoms: C_4  and  O_37
REMARK    3  A    between atoms: C_6  and  O_36
REMARK    4  A    between atoms: C_8  and  O_35
REMARK    5  A    between atoms: C_10  and  O_13
REMARK    6  A    between atoms: O_13  and  C_14
REMARK    7  A    between atoms: C_16  and  O_34
REMARK    8  A    between atoms: C_21  and  C_26
REMARK    9  A    between atoms: C_22  and  O_25
REMARK   10  A    between atoms: C_28  and  O_33
REMARK   11  A    between atoms: C_29  and  O_32
REMARK                            x       y       z     vdW  Elec       q    Type
REMARK                         _______ _______ _______ _____ _____    ______ ____
ROOT
ATOM      1  C   UNL     1       7.228   0.955  24.797  0.00  0.00    +0.131 A 
ATOM      2  C   UNL     1       6.514  -0.250  24.889  0.00  0.00    +0.093 A 
ATOM      3  C   UNL     1       7.166  -1.486  24.735  0.00  0.00    +0.147 A 
ATOM      4  O   UNL     1       6.397  -2.628  24.875  0.00  0.00    -0.451 OA
ATOM      5  C   UNL     1       7.014  -3.874  24.744  0.00  0.00    +0.181 A 
ATOM      6  C   UNL     1       8.306  -4.025  24.401  0.00  0.00    +0.208 A 
ATOM      7  C   UNL     1       9.149  -2.828  24.191  0.00  0.00    +0.238 A 
ATOM      8  O   UNL     1      10.300  -3.007  23.803  0.00  0.00    -0.283 OA
ATOM      9  C   UNL     1       8.536  -1.519  24.447  0.00  0.00    +0.109 A 
ATOM     10  C   UNL     1       9.248  -0.319  24.379  0.00  0.00    +0.135 A 
ATOM     11  C   UNL     1       8.604   0.906  24.564  0.00  0.00    +0.092 A 
ENDROOT
BRANCH   5  12
ATOM     12  C   UNL     1       6.117  -5.053  24.902  0.00  0.00    +0.025 A 
ATOM     13  C   UNL     1       5.990  -5.697  26.146  0.00  0.00    +0.015 A 
ATOM     14  C   UNL     1       5.056  -6.726  26.331  0.00  0.00    +0.050 A 
ATOM     15  C   UNL     1       4.241  -7.111  25.278  0.00  0.00    +0.158 A 
ATOM     16  C   UNL     1       4.371  -6.511  24.034  0.00  0.00    +0.159 A 
ATOM     17  C   UNL     1       5.318  -5.511  23.832  0.00  0.00    +0.060 A 
BRANCH  15  18
ATOM     18  O   UNL     1       3.289  -8.070  25.474  0.00  0.00    -0.503 OA
ATOM     19  H   UNL     1       3.714  -8.717  26.074  0.00  0.00    +0.292 HD
ENDBRANCH  15  18
BRANCH  16  20
ATOM     20  O   UNL     1       3.522  -6.913  23.038  0.00  0.00    -0.503 OA
ATOM     21  H   UNL     1       2.699  -7.228  23.456  0.00  0.00    +0.292 HD
ENDBRANCH  16  20
ENDBRANCH   5  12
BRANCH   6  22
ATOM     22  O   UNL     1       8.906  -5.247  24.147  0.00  0.00    -0.501 OA
ATOM     23  H   UNL     1       8.441  -5.878  24.738  0.00  0.00    +0.292 HD
ENDBRANCH   6  22
BRANCH  10  24
ATOM     24  O   UNL     1      10.594  -0.315  24.133  0.00  0.00    -0.506 OA
ATOM     25  H   UNL     1      11.087  -0.077  24.937  0.00  0.00    +0.292 HD
ENDBRANCH  10  24
BRANCH   1  26
ATOM     26  O   UNL     1       6.492   2.109  24.918  0.00  0.00    -0.461 OA
BRANCH  26  30
ATOM     27  C   UNL     1       3.873   5.490  25.010  0.00  0.00    +0.041 C 
ATOM     28  C   UNL     1       5.147   4.709  24.701  0.00  0.00    +0.150 C 
ATOM     29  O   UNL     1       4.746   3.509  24.039  0.00  0.00    -0.334 OA
ATOM     30  C   UNL     1       5.837   2.619  23.737  0.00  0.00    +0.339 C 
ATOM     31  C   UNL     1       6.861   3.324  22.821  0.00  0.00    +0.214 C 
ATOM     32  C   UNL     1       7.317   4.639  23.455  0.00  0.00    +0.180 C 
ATOM     33  C   UNL     1       6.118   5.518  23.829  0.00  0.00    +0.174 C 
BRANCH  31  34
ATOM     34  O   UNL     1       6.280   3.610  21.533  0.00  0.00    -0.383 OA
ATOM     35  H   UNL     1       6.515   2.840  20.973  0.00  0.00    +0.210 HD
ENDBRANCH  31  34
BRANCH  32  36
ATOM     36  O   UNL     1       8.144   5.352  22.517  0.00  0.00    -0.386 OA
ATOM     37  H   UNL     1       7.821   5.072  21.637  0.00  0.00    +0.210 HD
ENDBRANCH  32  36
BRANCH  33  38
ATOM     38  O   UNL     1       6.621   6.676  24.506  0.00  0.00    -0.387 OA
ATOM     39  H   UNL     1       6.384   7.454  23.970  0.00  0.00    +0.210 HD
ENDBRANCH  33  38
ENDBRANCH  26  30
ENDBRANCH   1  26
TORSDOF 10
ENDMDL
MODEL 7
REMARK VINA RESULT:      -7.2      2.802      4.179
REMARK  Name = 
REMARK  11 active torsions:
REMARK  status: ('A' for Active; 'I' for Inactive)
REMARK    1  A    between atoms: C_1  and  C_2
REMARK    2  A    between atoms: C_4  and  O_37
REMARK    3  A    between atoms: C_6  and  O_36
REMARK    4  A    between atoms: C_8  and  O_35
REMARK    5  A    between atoms: C_10  and  O_13
REMARK    6  A    between atoms: O_13  and  C_14
REMARK    7  A    between atoms: C_16  and  O_34
REMARK    8  A    between atoms: C_21  and  C_26
REMARK    9  A    between atoms: C_22  and  O_25
REMARK   10  A    between atoms: C_28  and  O_33
REMARK   11  A    between atoms: C_29  and  O_32
REMARK                            x       y       z     vdW  Elec       q    Type
REMARK                         _______ _______ _______ _____ _____    ______ ____
ROOT
ATOM      1  C   UNL     1       7.273  -2.918  23.856  0.00  0.00    +0.131 A 
ATOM      2  C   UNL     1       6.622  -1.689  24.049  0.00  0.00    +0.093 A 
ATOM      3  C   UNL     1       7.093  -0.521  23.423  0.00  0.00    +0.147 A 
ATOM      4  O   UNL     1       6.374   0.643  23.637  0.00  0.00    -0.451 OA
ATOM      5  C   UNL     1       6.802   1.819  23.019  0.00  0.00    +0.181 A 
ATOM      6  C   UNL     1       7.932   1.903  22.293  0.00  0.00    +0.208 A 
ATOM      7  C   UNL     1       8.756   0.692  22.086  0.00  0.00    +0.238 A 
ATOM      8  O   UNL     1       9.818   0.827  21.485  0.00  0.00    -0.283 OA
ATOM      9  C   UNL     1       8.245  -0.571  22.631  0.00  0.00    +0.109 A 
ATOM     10  C   UNL     1       8.876  -1.800  22.422  0.00  0.00    +0.135 A 
ATOM     11  C   UNL     1       8.389  -2.965  23.018  0.00  0.00    +0.092 A 
ENDROOT
BRANCH   5  12
ATOM     12  C   UNL     1       5.980   3.028  23.304  0.00  0.00    +0.025 A 
ATOM     13  C   UNL     1       6.240   3.824  24.435  0.00  0.00    +0.015 A 
ATOM     14  C   UNL     1       5.553   5.029  24.641  0.00  0.00    +0.050 A 
ATOM     15  C   UNL     1       4.609   5.447  23.716  0.00  0.00    +0.158 A 
ATOM     16  C   UNL     1       4.314   4.662  22.610  0.00  0.00    +0.159 A 
ATOM     17  C   UNL     1       4.967   3.450  22.415  0.00  0.00    +0.060 A 
BRANCH  15  18
ATOM     18  O   UNL     1       3.984   6.649  23.883  0.00  0.00    -0.503 OA
ATOM     19  H   UNL     1       4.336   6.992  24.731  0.00  0.00    +0.292 HD
ENDBRANCH  15  18
BRANCH  16  20
ATOM     20  O   UNL     1       3.392   5.139  21.717  0.00  0.00    -0.503 OA
ATOM     21  H   UNL     1       2.968   5.922  22.114  0.00  0.00    +0.292 HD
ENDBRANCH  16  20
ENDBRANCH   5  12
BRANCH   6  22
ATOM     22  O   UNL     1       8.439   3.084  21.776  0.00  0.00    -0.501 OA
ATOM     23  H   UNL     1       9.383   2.887  21.594  0.00  0.00    +0.292 HD
ENDBRANCH   6  22
BRANCH  10  24
ATOM     24  O   UNL     1       9.985  -1.892  21.626  0.00  0.00    -0.506 OA
ATOM     25  H   UNL     1       9.738  -1.824  20.687  0.00  0.00    +0.292 HD
ENDBRANCH  10  24
BRANCH   1  26
ATOM     26  O   UNL     1       6.761  -3.992  24.545  0.00  0.00    -0.461 OA
BRANCH  26  30
ATOM     27  C   UNL     1       4.639  -2.362  27.881  0.00  0.00    +0.041 C 
ATOM     28  C   UNL     1       5.147  -3.445  26.934  0.00  0.00    +0.150 C 
ATOM     29  O   UNL     1       6.561  -3.272  26.830  0.00  0.00    -0.334 OA
ATOM     30  C   UNL     1       7.191  -4.183  25.909  0.00  0.00    +0.339 C 
ATOM     31  C   UNL     1       6.941  -5.642  26.350  0.00  0.00    +0.214 C 
ATOM     32  C   UNL     1       5.442  -5.894  26.510  0.00  0.00    +0.180 C 
ATOM     33  C   UNL     1       4.802  -4.853  27.437  0.00  0.00    +0.174 C 
BRANCH  31  34
ATOM     34  O   UNL     1       7.592  -5.914  27.607  0.00  0.00    -0.383 OA
ATOM     35  H   UNL     1       7.020  -6.576  28.050  0.00  0.00    +0.210 HD
ENDBRANCH  31  34
BRANCH  32  36
ATOM     36  O   UNL     1       5.241  -7.205  27.071  0.00  0.00    -0.386 OA
ATOM     37  H   UNL     1       5.689  -7.174  27.941  0.00  0.00    +0.210 HD
ENDBRANCH  32  36
BRANCH  33  38
ATOM     38  O   UNL     1       3.389  -5.094  27.453  0.00  0.00    -0.387 OA
ATOM     39  H   UNL     1       2.974  -4.442  26.861  0.00  0.00    +0.210 HD
ENDBRANCH  33  38
ENDBRANCH  26  30
ENDBRANCH   1  26
TORSDOF 10
ENDMDL
MODEL 8
REMARK VINA RESULT:      -7.2      1.935      9.113
REMARK  Name = 
REMARK  11 active torsions:
REMARK  status: ('A' for Active; 'I' for Inactive)
REMARK    1  A    between atoms: C_1  and  C_2
REMARK    2  A    between atoms: C_4  and  O_37
REMARK    3  A    between atoms: C_6  and  O_36
REMARK    4  A    between atoms: C_8  and  O_35
REMARK    5  A    between atoms: C_10  and  O_13
REMARK    6  A    between atoms: O_13  and  C_14
REMARK    7  A    between atoms: C_16  and  O_34
REMARK    8  A    between atoms: C_21  and  C_26
REMARK    9  A    between atoms: C_22  and  O_25
REMARK   10  A    between atoms: C_28  and  O_33
REMARK   11  A    between atoms: C_29  and  O_32
REMARK                            x       y       z     vdW  Elec       q    Type
REMARK                         _______ _______ _______ _____ _____    ______ ____
ROOT
ATOM      1  C   UNL     1       7.608   1.417  24.033  0.00  0.00    +0.131 A 
ATOM      2  C   UNL     1       6.830   0.259  24.192  0.00  0.00    +0.093 A 
ATOM      3  C   UNL     1       7.430  -1.013  24.205  0.00  0.00    +0.147 A 
ATOM      4  O   UNL     1       6.597  -2.101  24.401  0.00  0.00    -0.451 OA
ATOM      5  C   UNL     1       7.158  -3.379  24.437  0.00  0.00    +0.181 A 
ATOM      6  C   UNL     1       8.461  -3.618  24.202  0.00  0.00    +0.208 A 
ATOM      7  C   UNL     1       9.375  -2.486  23.935  0.00  0.00    +0.238 A 
ATOM      8  O   UNL     1      10.538  -2.753  23.649  0.00  0.00    -0.283 OA
ATOM      9  C   UNL     1       8.812  -1.133  24.019  0.00  0.00    +0.109 A 
ATOM     10  C   UNL     1       9.585   0.022  23.885  0.00  0.00    +0.135 A 
ATOM     11  C   UNL     1       8.992   1.286  23.904  0.00  0.00    +0.092 A 
ENDROOT
BRANCH   5  12
ATOM     12  C   UNL     1       6.196  -4.496  24.645  0.00  0.00    +0.025 A 
ATOM     13  C   UNL     1       5.382  -4.948  23.591  0.00  0.00    +0.015 A 
ATOM     14  C   UNL     1       4.566  -6.078  23.746  0.00  0.00    +0.050 A 
ATOM     15  C   UNL     1       4.564  -6.764  24.950  0.00  0.00    +0.158 A 
ATOM     16  C   UNL     1       5.336  -6.317  26.014  0.00  0.00    +0.159 A 
ATOM     17  C   UNL     1       6.123  -5.177  25.879  0.00  0.00    +0.060 A 
BRANCH  15  18
ATOM     18  O   UNL     1       3.818  -7.899  25.083  0.00  0.00    -0.503 OA
ATOM     19  H   UNL     1       3.658  -8.196  24.162  0.00  0.00    +0.292 HD
ENDBRANCH  15  18
BRANCH  16  20
ATOM     20  O   UNL     1       5.315  -7.049  27.171  0.00  0.00    -0.503 OA
ATOM     21  H   UNL     1       6.184  -7.479  27.268  0.00  0.00    +0.292 HD
ENDBRANCH  16  20
ENDBRANCH   5  12
BRANCH   6  22
ATOM     22  O   UNL     1       9.016  -4.885  24.110  0.00  0.00    -0.501 OA
ATOM     23  H   UNL     1       8.736  -5.337  24.936  0.00  0.00    +0.292 HD
ENDBRANCH   6  22
BRANCH  10  24
ATOM     24  O   UNL     1      10.943  -0.057  23.735  0.00  0.00    -0.506 OA
ATOM     25  H   UNL     1      11.362  -0.350  24.563  0.00  0.00    +0.292 HD
ENDBRANCH  10  24
BRANCH   1  26
ATOM     26  O   UNL     1       6.924   2.608  23.990  0.00  0.00    -0.461 OA
BRANCH  26  30
ATOM     27  C   UNL     1       3.194   4.016  22.442  0.00  0.00    +0.041 C 
ATOM     28  C   UNL     1       4.587   4.118  23.054  0.00  0.00    +0.150 C 
ATOM     29  O   UNL     1       5.458   3.340  22.230  0.00  0.00    -0.334 OA
ATOM     30  C   UNL     1       6.812   3.275  22.715  0.00  0.00    +0.339 C 
ATOM     31  C   UNL     1       7.415   4.696  22.800  0.00  0.00    +0.214 C 
ATOM     32  C   UNL     1       6.517   5.598  23.647  0.00  0.00    +0.180 C 
ATOM     33  C   UNL     1       5.070   5.573  23.140  0.00  0.00    +0.174 C 
BRANCH  31  34
ATOM     34  O   UNL     1       7.543   5.274  21.486  0.00  0.00    -0.383 OA
ATOM     35  H   UNL     1       6.729   5.806  21.363  0.00  0.00    +0.210 HD
ENDBRANCH  31  34
BRANCH  32  36
ATOM     36  O   UNL     1       7.011   6.949  23.582  0.00  0.00    -0.386 OA
ATOM     37  H   UNL     1       6.445   7.450  24.204  0.00  0.00    +0.210 HD
ENDBRANCH  32  36
BRANCH  33  38
ATOM     38  O   UNL     1       4.278   6.356  24.041  0.00  0.00    -0.387 OA
ATOM     39  H   UNL     1       3.892   7.089  23.529  0.00  0.00    +0.210 HD
ENDBRANCH  33  38
ENDBRANCH  26  30
ENDBRANCH   1  26
TORSDOF 10
ENDMDL
MODEL 9
REMARK VINA RESULT:      -7.1      2.801      3.161
REMARK  Name = 
REMARK  11 active torsions:
REMARK  status: ('A' for Active; 'I' for Inactive)
REMARK    1  A    between atoms: C_1  and  C_2
REMARK    2  A    between atoms: C_4  and  O_37
REMARK    3  A    between atoms: C_6  and  O_36
REMARK    4  A    between atoms: C_8  and  O_35
REMARK    5  A    between atoms: C_10  and  O_13
REMARK    6  A    between atoms: O_13  and  C_14
REMARK    7  A    between atoms: C_16  and  O_34
REMARK    8  A    between atoms: C_21  and  C_26
REMARK    9  A    between atoms: C_22  and  O_25
REMARK   10  A    between atoms: C_28  and  O_33
REMARK   11  A    between atoms: C_29  and  O_32
REMARK                            x       y       z     vdW  Elec       q    Type
REMARK                         _______ _______ _______ _____ _____    ______ ____
ROOT
ATOM      1  C   UNL     1       5.967  -3.843  25.622  0.00  0.00    +0.131 A 
ATOM      2  C   UNL     1       6.064  -2.493  25.252  0.00  0.00    +0.093 A 
ATOM      3  C   UNL     1       7.188  -2.018  24.554  0.00  0.00    +0.147 A 
ATOM      4  O   UNL     1       7.190  -0.680  24.195  0.00  0.00    -0.451 OA
ATOM      5  C   UNL     1       8.283  -0.177  23.487  0.00  0.00    +0.181 A 
ATOM      6  C   UNL     1       9.380  -0.904  23.208  0.00  0.00    +0.208 A 
ATOM      7  C   UNL     1       9.438  -2.323  23.621  0.00  0.00    +0.238 A 
ATOM      8  O   UNL     1      10.487  -2.929  23.418  0.00  0.00    -0.283 OA
ATOM      9  C   UNL     1       8.243  -2.889  24.257  0.00  0.00    +0.109 A 
ATOM     10  C   UNL     1       8.132  -4.237  24.606  0.00  0.00    +0.135 A 
ATOM     11  C   UNL     1       7.001  -4.714  25.271  0.00  0.00    +0.092 A 
ENDROOT
BRANCH   5  12
ATOM     12  C   UNL     1       8.212   1.271  23.145  0.00  0.00    +0.025 A 
ATOM     13  C   UNL     1       7.402   1.720  22.086  0.00  0.00    +0.015 A 
ATOM     14  C   UNL     1       7.234   3.090  21.840  0.00  0.00    +0.050 A 
ATOM     15  C   UNL     1       7.869   4.017  22.652  0.00  0.00    +0.158 A 
ATOM     16  C   UNL     1       8.698   3.595  23.683  0.00  0.00    +0.159 A 
ATOM     17  C   UNL     1       8.896   2.238  23.914  0.00  0.00    +0.060 A 
BRANCH  15  18
ATOM     18  O   UNL     1       7.658   5.350  22.452  0.00  0.00    -0.503 OA
ATOM     19  H   UNL     1       8.422   5.640  21.909  0.00  0.00    +0.292 HD
ENDBRANCH  15  18
BRANCH  16  20
ATOM     20  O   UNL     1       9.278   4.555  24.469  0.00  0.00    -0.503 OA
ATOM     21  H   UNL     1       8.841   4.531  25.340  0.00  0.00    +0.292 HD
ENDBRANCH  16  20
ENDBRANCH   5  12
BRANCH   6  22
ATOM     22  O   UNL     1      10.523  -0.392  22.616  0.00  0.00    -0.501 OA
ATOM     23  H   UNL     1      10.249  -0.169  21.701  0.00  0.00    +0.292 HD
ENDBRANCH   6  22
BRANCH  10  24
ATOM     24  O   UNL     1       9.129  -5.124  24.302  0.00  0.00    -0.506 OA
ATOM     25  H   UNL     1       9.779  -5.168  25.024  0.00  0.00    +0.292 HD
ENDBRANCH  10  24
BRANCH   1  26
ATOM     26  O   UNL     1       4.849  -4.199  26.339  0.00  0.00    -0.461 OA
BRANCH  26  30
ATOM     27  C   UNL     1       1.516  -5.064  28.875  0.00  0.00    +0.041 C 
ATOM     28  C   UNL     1       2.846  -5.314  28.172  0.00  0.00    +0.150 C 
ATOM     29  O   UNL     1       3.672  -4.178  28.435  0.00  0.00    -0.334 OA
ATOM     30  C   UNL     1       4.953  -4.226  27.778  0.00  0.00    +0.339 C 
ATOM     31  C   UNL     1       5.738  -5.476  28.235  0.00  0.00    +0.214 C 
ATOM     32  C   UNL     1       4.901  -6.735  28.009  0.00  0.00    +0.180 C 
ATOM     33  C   UNL     1       3.518  -6.604  28.660  0.00  0.00    +0.174 C 
BRANCH  31  34
ATOM     34  O   UNL     1       6.069  -5.386  29.635  0.00  0.00    -0.383 OA
ATOM     35  H   UNL     1       5.294  -5.761  30.102  0.00  0.00    +0.210 HD
ENDBRANCH  31  34
BRANCH  32  36
ATOM     36  O   UNL     1       5.583  -7.864  28.584  0.00  0.00    -0.386 OA
ATOM     37  H   UNL     1       6.372  -7.482  29.021  0.00  0.00    +0.210 HD
ENDBRANCH  32  36
BRANCH  33  38
ATOM     38  O   UNL     1       2.764  -7.773  28.318  0.00  0.00    -0.387 OA
ATOM     39  H   UNL     1       2.543  -7.713  27.372  0.00  0.00    +0.210 HD
ENDBRANCH  33  38
ENDBRANCH  26  30
ENDBRANCH   1  26
TORSDOF 10
ENDMDL
