MODEL 1
REMARK VINA RESULT:      -7.3      0.000      0.000
REMARK  Name = 
REMARK  8 active torsions:
REMARK  status: ('A' for Active; 'I' for Inactive)
REMARK    1  A    between atoms: C_3  and  O_26
REMARK    2  A    between atoms: C_4  and  O_21
REMARK    3  A    between atoms: C_6  and  C_7
REMARK    4  A    between atoms: C_8  and  O_20
REMARK    5  A    between atoms: C_12  and  O_19
REMARK    6  A    between atoms: C_14  and  O_18
REMARK    7  A    between atoms: O_21  and  S_22
REMARK    8  A    between atoms: S_22  and  O_25
REMARK                            x       y       z     vdW  Elec       q    Type
REMARK                         _______ _______ _______ _____ _____    ______ ____
ROOT
ATOM      1  C   UNL     1       6.871  -2.559  23.191  0.00  0.00    +0.181 A 
ATOM      2  O   UNL     1       7.243  -2.899  24.492  0.00  0.00    -0.451 OA
ATOM      3  C   UNL     1       6.694  -4.015  25.075  0.00  0.00    +0.147 A 
ATOM      4  C   UNL     1       5.682  -4.758  24.475  0.00  0.00    +0.109 A 
ATOM      5  C   UNL     1       5.151  -5.880  25.123  0.00  0.00    +0.135 A 
ATOM      6  C   UNL     1       5.633  -6.266  26.370  0.00  0.00    +0.091 A 
ATOM      7  C   UNL     1       6.651  -5.522  26.959  0.00  0.00    +0.124 A 
ATOM      8  C   UNL     1       5.216  -4.355  23.148  0.00  0.00    +0.238 A 
ATOM      9  O   UNL     1       4.295  -4.967  22.612  0.00  0.00    -0.283 OA
ATOM     10  C   UNL     1       7.185  -4.401  26.323  0.00  0.00    +0.092 A 
ATOM     11  C   UNL     1       5.936  -3.234  22.486  0.00  0.00    +0.208 A 
ENDROOT
BRANCH   1  13
ATOM     12  C   UNL     1       8.849  -1.571  21.942  0.00  0.00    +0.015 A 
ATOM     13  C   UNL     1       7.643  -1.402  22.648  0.00  0.00    +0.025 A 
ATOM     14  C   UNL     1       7.176  -0.087  22.843  0.00  0.00    +0.064 A 
ATOM     15  C   UNL     1       7.927   1.016  22.415  0.00  0.00    +0.201 A 
ATOM     16  C   UNL     1       9.168   0.813  21.810  0.00  0.00    +0.161 A 
ATOM     17  C   UNL     1       9.625  -0.474  21.553  0.00  0.00    +0.050 A 
BRANCH  16  18
ATOM     18  O   UNL     1       9.927   1.898  21.469  0.00  0.00    -0.503 OA
ATOM     19  H   UNL     1       9.452   2.421  20.802  0.00  0.00    +0.292 HD
ENDBRANCH  16  18
BRANCH  15  20
ATOM     20  O   UNL     1       7.554   2.318  22.635  0.00  0.00    -0.321 OA
BRANCH  20  21
ATOM     21  S   UNL     1       8.115   3.152  23.915  0.00  0.00    +0.251 S 
ATOM     22  O   UNL     1       8.800   2.245  24.810  0.00  0.00    -0.108 OA
ATOM     23  O   UNL     1       7.082   4.051  24.381  0.00  0.00    -0.108 OA
BRANCH  21  24
ATOM     24  O   UNL     1       9.228   4.105  23.242  0.00  0.00    -0.222 OA
ATOM     25  H   UNL     1       8.945   5.033  23.371  0.00  0.00    +0.248 HD
ENDBRANCH  21  24
ENDBRANCH  20  21
ENDBRANCH  15  20
ENDBRANCH   1  13
BRANCH   5  26
ATOM     26  O   UNL     1       4.158  -6.653  24.583  0.00  0.00    -0.506 OA
ATOM     27  H   UNL     1       4.409  -7.599  24.695  0.00  0.00    +0.292 HD
ENDBRANCH   5  26
BRANCH   7  28
ATOM     28  O   UNL     1       7.156  -5.868  28.180  0.00  0.00    -0.507 OA
ATOM     29  H   UNL     1       8.097  -5.626  28.208  0.00  0.00    +0.292 HD
ENDBRANCH   7  28
BRANCH  11  30
ATOM     30  O   UNL     1       5.608  -3.000  21.162  0.00  0.00    -0.501 OA
ATOM     31  H   UNL     1       6.388  -2.637  20.713  0.00  0.00    +0.292 HD
ENDBRANCH  11  30
TORSDOF 8
ENDMDL
MODEL 2
REMARK VINA RESULT:      -7.3      1.098      2.654
REMARK  Name = 
REMARK  8 active torsions:
REMARK  status: ('A' for Active; 'I' for Inactive)
REMARK    1  A    between atoms: C_3  and  O_26
REMARK    2  A    between atoms: C_4  and  O_21
REMARK    3  A    between atoms: C_6  and  C_7
REMARK    4  A    between atoms: C_8  and  O_20
REMARK    5  A    between atoms: C_12  and  O_19
REMARK    6  A    between atoms: C_14  and  O_18
REMARK    7  A    between atoms: O_21  and  S_22
REMARK    8  A    between atoms: S_22  and  O_25
REMARK                            x       y       z     vdW  Elec       q    Type
REMARK                         _______ _______ _______ _____ _____    ______ ____
ROOT
ATOM      1  C   UNL     1       7.593  -2.569  23.822  0.00  0.00    +0.181 A 
ATOM      2  O   UNL     1       6.665  -3.304  23.084  0.00  0.00    -0.451 OA
ATOM      3  C   UNL     1       6.021  -4.361  23.680  0.00  0.00    +0.147 A 
ATOM      4  C   UNL     1       6.342  -4.817  24.954  0.00  0.00    +0.109 A 
ATOM      5  C   UNL     1       5.661  -5.908  25.507  0.00  0.00    +0.135 A 
ATOM      6  C   UNL     1       4.651  -6.543  24.790  0.00  0.00    +0.091 A 
ATOM      7  C   UNL     1       4.330  -6.075  23.519  0.00  0.00    +0.124 A 
ATOM      8  C   UNL     1       7.382  -4.111  25.704  0.00  0.00    +0.238 A 
ATOM      9  O   UNL     1       7.716  -4.516  26.815  0.00  0.00    -0.283 OA
ATOM     10  C   UNL     1       5.005  -4.991  22.959  0.00  0.00    +0.092 A 
ATOM     11  C   UNL     1       7.951  -2.883  25.087  0.00  0.00    +0.208 A 
ENDROOT
BRANCH   1  13
ATOM     12  C   UNL     1       9.243  -1.451  22.248  0.00  0.00    +0.015 A 
ATOM     13  C   UNL     1       8.113  -1.379  23.084  0.00  0.00    +0.025 A 
ATOM     14  C   UNL     1       7.475  -0.131  23.218  0.00  0.00    +0.064 A 
ATOM     15  C   UNL     1       7.995   1.015  22.602  0.00  0.00    +0.201 A 
ATOM     16  C   UNL     1       9.177   0.926  21.865  0.00  0.00    +0.161 A 
ATOM     17  C   UNL     1       9.794  -0.304  21.668  0.00  0.00    +0.050 A 
BRANCH  16  18
ATOM     18  O   UNL     1       9.718   2.064  21.335  0.00  0.00    -0.503 OA
ATOM     19  H   UNL     1       9.687   2.008  20.365  0.00  0.00    +0.292 HD
ENDBRANCH  16  18
BRANCH  15  20
ATOM     20  O   UNL     1       7.455   2.267  22.750  0.00  0.00    -0.321 OA
BRANCH  20  21
ATOM     21  S   UNL     1       7.951   3.267  23.935  0.00  0.00    +0.251 S 
ATOM     22  O   UNL     1       8.762   2.524  24.874  0.00  0.00    -0.108 OA
ATOM     23  O   UNL     1       6.833   4.078  24.365  0.00  0.00    -0.108 OA
BRANCH  21  24
ATOM     24  O   UNL     1       8.925   4.279  23.144  0.00  0.00    -0.222 OA
ATOM     25  H   UNL     1       9.770   3.813  22.978  0.00  0.00    +0.248 HD
ENDBRANCH  21  24
ENDBRANCH  20  21
ENDBRANCH  15  20
ENDBRANCH   1  13
BRANCH   5  26
ATOM     26  O   UNL     1       5.929  -6.400  26.756  0.00  0.00    -0.506 OA
ATOM     27  H   UNL     1       6.536  -5.771  27.210  0.00  0.00    +0.292 HD
ENDBRANCH   5  26
BRANCH   7  28
ATOM     28  O   UNL     1       3.343  -6.666  22.783  0.00  0.00    -0.507 OA
ATOM     29  H   UNL     1       2.498  -6.558  23.250  0.00  0.00    +0.292 HD
ENDBRANCH   7  28
BRANCH  11  30
ATOM     30  O   UNL     1       8.785  -2.129  25.893  0.00  0.00    -0.501 OA
ATOM     31  H   UNL     1       9.463  -1.717  25.333  0.00  0.00    +0.292 HD
ENDBRANCH  11  30
TORSDOF 8
ENDMDL
MODEL 3
REMARK VINA RESULT:      -7.2      2.626      7.741
REMARK  Name = 
REMARK  8 active torsions:
REMARK  status: ('A' for Active; 'I' for Inactive)
REMARK    1  A    between atoms: C_3  and  O_26
REMARK    2  A    between atoms: C_4  and  O_21
REMARK    3  A    between atoms: C_6  and  C_7
REMARK    4  A    between atoms: C_8  and  O_20
REMARK    5  A    between atoms: C_12  and  O_19
REMARK    6  A    between atoms: C_14  and  O_18
REMARK    7  A    between atoms: O_21  and  S_22
REMARK    8  A    between atoms: S_22  and  O_25
REMARK                            x       y       z     vdW  Elec       q    Type
REMARK                         _______ _______ _______ _____ _____    ______ ____
ROOT
ATOM      1  C   UNL     1       8.240  -1.613  24.355  0.00  0.00    +0.181 A 
ATOM      2  O   UNL     1       8.163  -0.446  25.116  0.00  0.00    -0.451 OA
ATOM      3  C   UNL     1       8.503   0.753  24.539  0.00  0.00    +0.147 A 
ATOM      4  C   UNL     1       9.046   0.848  23.261  0.00  0.00    +0.109 A 
ATOM      5  C   UNL     1       9.386   2.097  22.729  0.00  0.00    +0.135 A 
ATOM      6  C   UNL     1       9.181   3.257  23.470  0.00  0.00    +0.091 A 
ATOM      7  C   UNL     1       8.630   3.154  24.744  0.00  0.00    +0.124 A 
ATOM      8  C   UNL     1       9.220  -0.381  22.486  0.00  0.00    +0.238 A 
ATOM      9  O   UNL     1       9.734  -0.333  21.372  0.00  0.00    -0.283 OA
ATOM     10  C   UNL     1       8.290   1.914  25.284  0.00  0.00    +0.092 A 
ATOM     11  C   UNL     1       8.703  -1.641  23.084  0.00  0.00    +0.208 A 
ENDROOT
BRANCH   1  13
ATOM     12  C   UNL     1       8.424  -3.416  26.133  0.00  0.00    +0.015 A 
ATOM     13  C   UNL     1       7.719  -2.813  25.074  0.00  0.00    +0.025 A 
ATOM     14  C   UNL     1       6.489  -3.385  24.695  0.00  0.00    +0.064 A 
ATOM     15  C   UNL     1       6.023  -4.560  25.301  0.00  0.00    +0.201 A 
ATOM     16  C   UNL     1       6.798  -5.188  26.276  0.00  0.00    +0.161 A 
ATOM     17  C   UNL     1       7.987  -4.613  26.710  0.00  0.00    +0.050 A 
BRANCH  16  18
ATOM     18  O   UNL     1       6.371  -6.375  26.803  0.00  0.00    -0.503 OA
ATOM     19  H   UNL     1       6.552  -6.382  27.758  0.00  0.00    +0.292 HD
ENDBRANCH  16  18
BRANCH  15  20
ATOM     20  O   UNL     1       4.866  -5.197  24.929  0.00  0.00    -0.321 OA
BRANCH  20  21
ATOM     21  S   UNL     1       4.748  -5.965  23.498  0.00  0.00    +0.251 S 
ATOM     22  O   UNL     1       6.068  -6.099  22.921  0.00  0.00    -0.108 OA
ATOM     23  O   UNL     1       3.641  -5.405  22.754  0.00  0.00    -0.108 OA
BRANCH  21  24
ATOM     24  O   UNL     1       4.257  -7.436  23.939  0.00  0.00    -0.222 OA
ATOM     25  H   UNL     1       4.166  -7.441  24.914  0.00  0.00    +0.248 HD
ENDBRANCH  21  24
ENDBRANCH  20  21
ENDBRANCH  15  20
ENDBRANCH   1  13
BRANCH   5  26
ATOM     26  O   UNL     1       9.919   2.255  21.478  0.00  0.00    -0.506 OA
ATOM     27  H   UNL     1       9.265   2.741  20.924  0.00  0.00    +0.292 HD
ENDBRANCH   5  26
BRANCH   7  28
ATOM     28  O   UNL     1       8.407   4.267  25.503  0.00  0.00    -0.507 OA
ATOM     29  H   UNL     1       7.506   4.587  25.331  0.00  0.00    +0.292 HD
ENDBRANCH   7  28
BRANCH  11  30
ATOM     30  O   UNL     1       8.702  -2.750  22.257  0.00  0.00    -0.501 OA
ATOM     31  H   UNL     1       9.203  -2.535  21.454  0.00  0.00    +0.292 HD
ENDBRANCH  11  30
TORSDOF 8
ENDMDL
MODEL 4
REMARK VINA RESULT:      -7.1      2.284      2.805
REMARK  Name = 
REMARK  8 active torsions:
REMARK  status: ('A' for Active; 'I' for Inactive)
REMARK    1  A    between atoms: C_3  and  O_26
REMARK    2  A    between atoms: C_4  and  O_21
REMARK    3  A    between atoms: C_6  and  C_7
REMARK    4  A    between atoms: C_8  and  O_20
REMARK    5  A    between atoms: C_12  and  O_19
REMARK    6  A    between atoms: C_14  and  O_18
REMARK    7  A    between atoms: O_21  and  S_22
REMARK    8  A    between atoms: S_22  and  O_25
REMARK                            x       y       z     vdW  Elec       q    Type
REMARK                         _______ _______ _______ _____ _____    ______ ____
ROOT
ATOM      1  C   UNL     1       8.346  -2.086  24.569  0.00  0.00    +0.181 A 
ATOM      2  O   UNL     1       7.153  -1.879  25.262  0.00  0.00    -0.451 OA
ATOM      3  C   UNL     1       6.734  -2.820  26.171  0.00  0.00    +0.147 A 
ATOM      4  C   UNL     1       7.381  -4.040  26.345  0.00  0.00    +0.109 A 
ATOM      5  C   UNL     1       6.902  -4.967  27.278  0.00  0.00    +0.135 A 
ATOM      6  C   UNL     1       5.778  -4.676  28.044  0.00  0.00    +0.091 A 
ATOM      7  C   UNL     1       5.141  -3.451  27.871  0.00  0.00    +0.124 A 
ATOM      8  C   UNL     1       8.582  -4.309  25.554  0.00  0.00    +0.238 A 
ATOM      9  O   UNL     1       9.150  -5.394  25.655  0.00  0.00    -0.283 OA
ATOM     10  C   UNL     1       5.610  -2.521  26.942  0.00  0.00    +0.092 A 
ATOM     11  C   UNL     1       9.090  -3.209  24.691  0.00  0.00    +0.208 A 
ENDROOT
BRANCH   1  13
ATOM     12  C   UNL     1       8.888  -1.037  22.321  0.00  0.00    +0.015 A 
ATOM     13  C   UNL     1       8.733  -0.924  23.716  0.00  0.00    +0.025 A 
ATOM     14  C   UNL     1       8.965   0.336  24.301  0.00  0.00    +0.064 A 
ATOM     15  C   UNL     1       9.410   1.419  23.530  0.00  0.00    +0.201 A 
ATOM     16  C   UNL     1       9.652   1.242  22.168  0.00  0.00    +0.161 A 
ATOM     17  C   UNL     1       9.376   0.026  21.554  0.00  0.00    +0.050 A 
BRANCH  16  18
ATOM     18  O   UNL     1      10.162   2.283  21.442  0.00  0.00    -0.503 OA
ATOM     19  H   UNL     1       9.431   2.761  21.017  0.00  0.00    +0.292 HD
ENDBRANCH  16  18
BRANCH  15  20
ATOM     20  O   UNL     1       9.714   2.648  24.056  0.00  0.00    -0.321 OA
BRANCH  20  21
ATOM     21  S   UNL     1       8.601   3.833  24.132  0.00  0.00    +0.251 S 
ATOM     22  O   UNL     1       8.755   4.550  25.378  0.00  0.00    -0.108 OA
ATOM     23  O   UNL     1       7.323   3.305  23.707  0.00  0.00    -0.108 OA
BRANCH  21  24
ATOM     24  O   UNL     1       9.065   4.817  22.942  0.00  0.00    -0.222 OA
ATOM     25  H   UNL     1       9.886   5.268  23.229  0.00  0.00    +0.248 HD
ENDBRANCH  21  24
ENDBRANCH  20  21
ENDBRANCH  15  20
ENDBRANCH   1  13
BRANCH   5  26
ATOM     26  O   UNL     1       7.496  -6.181  27.496  0.00  0.00    -0.506 OA
ATOM     27  H   UNL     1       7.955  -6.146  28.368  0.00  0.00    +0.292 HD
ENDBRANCH   5  26
BRANCH   7  28
ATOM     28  O   UNL     1       4.038  -3.122  28.606  0.00  0.00    -0.507 OA
ATOM     29  H   UNL     1       4.325  -2.659  29.410  0.00  0.00    +0.292 HD
ENDBRANCH   7  28
BRANCH  11  30
ATOM     30  O   UNL     1      10.326  -3.417  24.106  0.00  0.00    -0.501 OA
ATOM     31  H   UNL     1      10.984  -3.529  24.811  0.00  0.00    +0.292 HD
ENDBRANCH  11  30
TORSDOF 8
ENDMDL
MODEL 5
REMARK VINA RESULT:      -7.1      2.601      7.771
REMARK  Name = 
REMARK  8 active torsions:
REMARK  status: ('A' for Active; 'I' for Inactive)
REMARK    1  A    between atoms: C_3  and  O_26
REMARK    2  A    between atoms: C_4  and  O_21
REMARK    3  A    between atoms: C_6  and  C_7
REMARK    4  A    between atoms: C_8  and  O_20
REMARK    5  A    between atoms: C_12  and  O_19
REMARK    6  A    between atoms: C_14  and  O_18
REMARK    7  A    between atoms: O_21  and  S_22
REMARK    8  A    between atoms: S_22  and  O_25
REMARK                            x       y       z     vdW  Elec       q    Type
REMARK                         _______ _______ _______ _____ _____    ______ ____
ROOT
ATOM      1  C   UNL     1       7.930  -1.904  23.266  0.00  0.00    +0.181 A 
ATOM      2  O   UNL     1       7.038  -0.869  22.982  0.00  0.00    -0.451 OA
ATOM      3  C   UNL     1       7.520   0.407  22.826  0.00  0.00    +0.147 A 
ATOM      4  C   UNL     1       8.849   0.745  23.064  0.00  0.00    +0.109 A 
ATOM      5  C   UNL     1       9.283   2.066  22.902  0.00  0.00    +0.135 A 
ATOM      6  C   UNL     1       8.391   3.054  22.496  0.00  0.00    +0.091 A 
ATOM      7  C   UNL     1       7.065   2.707  22.252  0.00  0.00    +0.124 A 
ATOM      8  C   UNL     1       9.777  -0.317  23.455  0.00  0.00    +0.238 A 
ATOM      9  O   UNL     1      10.947  -0.042  23.712  0.00  0.00    -0.283 OA
ATOM     10  C   UNL     1       6.623   1.393  22.413  0.00  0.00    +0.092 A 
ATOM     11  C   UNL     1       9.253  -1.709  23.468  0.00  0.00    +0.208 A 
ENDROOT
BRANCH   1  13
ATOM     12  C   UNL     1       7.197  -4.053  22.128  0.00  0.00    +0.015 A 
ATOM     13  C   UNL     1       7.278  -3.247  23.280  0.00  0.00    +0.025 A 
ATOM     14  C   UNL     1       6.711  -3.745  24.469  0.00  0.00    +0.064 A 
ATOM     15  C   UNL     1       6.022  -4.965  24.484  0.00  0.00    +0.201 A 
ATOM     16  C   UNL     1       5.872  -5.687  23.300  0.00  0.00    +0.161 A 
ATOM     17  C   UNL     1       6.472  -5.248  22.125  0.00  0.00    +0.050 A 
BRANCH  16  18
ATOM     18  O   UNL     1       5.130  -6.836  23.310  0.00  0.00    -0.503 OA
ATOM     19  H   UNL     1       4.309  -6.678  23.805  0.00  0.00    +0.292 HD
ENDBRANCH  16  18
BRANCH  15  20
ATOM     20  O   UNL     1       5.394  -5.467  25.596  0.00  0.00    -0.321 OA
BRANCH  20  21
ATOM     21  S   UNL     1       6.182  -5.628  27.010  0.00  0.00    +0.251 S 
ATOM     22  O   UNL     1       5.821  -4.532  27.882  0.00  0.00    -0.108 OA
ATOM     23  O   UNL     1       7.563  -5.969  26.743  0.00  0.00    -0.108 OA
BRANCH  21  24
ATOM     24  O   UNL     1       5.528  -6.970  27.617  0.00  0.00    -0.222 OA
ATOM     25  H   UNL     1       6.114  -7.294  28.331  0.00  0.00    +0.248 HD
ENDBRANCH  21  24
ENDBRANCH  20  21
ENDBRANCH  15  20
ENDBRANCH   1  13
BRANCH   5  26
ATOM     26  O   UNL     1      10.576   2.459  23.117  0.00  0.00    -0.506 OA
ATOM     27  H   UNL     1      10.567   3.211  23.753  0.00  0.00    +0.292 HD
ENDBRANCH   5  26
BRANCH   7  28
ATOM     28  O   UNL     1       6.157   3.643  21.847  0.00  0.00    -0.507 OA
ATOM     29  H   UNL     1       6.571   4.521  21.898  0.00  0.00    +0.292 HD
ENDBRANCH   7  28
BRANCH  11  30
ATOM     30  O   UNL     1      10.190  -2.709  23.650  0.00  0.00    -0.501 OA
ATOM     31  H   UNL     1      10.986  -2.480  23.143  0.00  0.00    +0.292 HD
ENDBRANCH  11  30
TORSDOF 8
ENDMDL
MODEL 6
REMARK VINA RESULT:      -7.0      1.911      3.300
REMARK  Name = 
REMARK  8 active torsions:
REMARK  status: ('A' for Active; 'I' for Inactive)
REMARK    1  A    between atoms: C_3  and  O_26
REMARK    2  A    between atoms: C_4  and  O_21
REMARK    3  A    between atoms: C_6  and  C_7
REMARK    4  A    between atoms: C_8  and  O_20
REMARK    5  A    between atoms: C_12  and  O_19
REMARK    6  A    between atoms: C_14  and  O_18
REMARK    7  A    between atoms: O_21  and  S_22
REMARK    8  A    between atoms: S_22  and  O_25
REMARK                            x       y       z     vdW  Elec       q    Type
REMARK                         _______ _______ _______ _____ _____    ______ ____
ROOT
ATOM      1  C   UNL     1       8.454  -1.666  24.165  0.00  0.00    +0.181 A 
ATOM      2  O   UNL     1       8.033  -2.400  23.056  0.00  0.00    -0.451 OA
ATOM      3  C   UNL     1       7.322  -3.559  23.251  0.00  0.00    +0.147 A 
ATOM      4  C   UNL     1       7.107  -4.108  24.512  0.00  0.00    +0.109 A 
ATOM      5  C   UNL     1       6.385  -5.300  24.650  0.00  0.00    +0.135 A 
ATOM      6  C   UNL     1       5.871  -5.944  23.529  0.00  0.00    +0.091 A 
ATOM      7  C   UNL     1       6.082  -5.384  22.273  0.00  0.00    +0.124 A 
ATOM      8  C   UNL     1       7.627  -3.395  25.679  0.00  0.00    +0.238 A 
ATOM      9  O   UNL     1       7.489  -3.877  26.801  0.00  0.00    -0.283 OA
ATOM     10  C   UNL     1       6.803  -4.198  22.124  0.00  0.00    +0.092 A 
ATOM     11  C   UNL     1       8.260  -2.071  25.441  0.00  0.00    +0.208 A 
ENDROOT
BRANCH   1  13
ATOM     12  C   UNL     1      10.374  -0.007  24.272  0.00  0.00    +0.015 A 
ATOM     13  C   UNL     1       9.100  -0.372  23.795  0.00  0.00    +0.025 A 
ATOM     14  C   UNL     1       8.432   0.535  22.950  0.00  0.00    +0.064 A 
ATOM     15  C   UNL     1       8.984   1.790  22.659  0.00  0.00    +0.201 A 
ATOM     16  C   UNL     1      10.201   2.159  23.232  0.00  0.00    +0.161 A 
ATOM     17  C   UNL     1      10.909   1.261  24.022  0.00  0.00    +0.050 A 
BRANCH  16  18
ATOM     18  O   UNL     1      10.691   3.415  23.005  0.00  0.00    -0.503 OA
ATOM     19  H   UNL     1      11.642   3.425  23.203  0.00  0.00    +0.292 HD
ENDBRANCH  16  18
BRANCH  15  20
ATOM     20  O   UNL     1       8.350   2.738  21.896  0.00  0.00    -0.321 OA
BRANCH  20  21
ATOM     21  S   UNL     1       7.236   3.735  22.542  0.00  0.00    +0.251 S 
ATOM     22  O   UNL     1       7.629   4.075  23.892  0.00  0.00    -0.108 OA
ATOM     23  O   UNL     1       5.917   3.228  22.235  0.00  0.00    -0.108 OA
BRANCH  21  24
ATOM     24  O   UNL     1       7.398   5.060  21.638  0.00  0.00    -0.222 OA
ATOM     25  H   UNL     1       8.267   5.014  21.192  0.00  0.00    +0.248 HD
ENDBRANCH  21  24
ENDBRANCH  20  21
ENDBRANCH  15  20
ENDBRANCH   1  13
BRANCH   5  26
ATOM     26  O   UNL     1       6.138  -5.887  25.862  0.00  0.00    -0.506 OA
ATOM     27  H   UNL     1       5.722  -6.765  25.699  0.00  0.00    +0.292 HD
ENDBRANCH   5  26
BRANCH   7  28
ATOM     28  O   UNL     1       5.591  -5.980  21.146  0.00  0.00    -0.507 OA
ATOM     29  H   UNL     1       5.167  -6.818  21.396  0.00  0.00    +0.292 HD
ENDBRANCH   7  28
BRANCH  11  30
ATOM     30  O   UNL     1       8.566  -1.332  26.570  0.00  0.00    -0.501 OA
ATOM     31  H   UNL     1       7.913  -0.619  26.656  0.00  0.00    +0.292 HD
ENDBRANCH  11  30
TORSDOF 8
ENDMDL
MODEL 7
REMARK VINA RESULT:      -6.9      2.961      8.060
REMARK  Name = 
REMARK  8 active torsions:
REMARK  status: ('A' for Active; 'I' for Inactive)
REMARK    1  A    between atoms: C_3  and  O_26
REMARK    2  A    between atoms: C_4  and  O_21
REMARK    3  A    between atoms: C_6  and  C_7
REMARK    4  A    between atoms: C_8  and  O_20
REMARK    5  A    between atoms: C_12  and  O_19
REMARK    6  A    between atoms: C_14  and  O_18
REMARK    7  A    between atoms: O_21  and  S_22
REMARK    8  A    between atoms: S_22  and  O_25
REMARK                            x       y       z     vdW  Elec       q    Type
REMARK                         _______ _______ _______ _____ _____    ______ ____
ROOT
ATOM      1  C   UNL     1       8.461   0.315  23.775  0.00  0.00    +0.181 A 
ATOM      2  O   UNL     1       7.213   0.889  23.533  0.00  0.00    -0.451 OA
ATOM      3  C   UNL     1       7.139   2.225  23.223  0.00  0.00    +0.147 A 
ATOM      4  C   UNL     1       8.244   3.070  23.262  0.00  0.00    +0.109 A 
ATOM      5  C   UNL     1       8.106   4.427  22.948  0.00  0.00    +0.135 A 
ATOM      6  C   UNL     1       6.865   4.944  22.589  0.00  0.00    +0.091 A 
ATOM      7  C   UNL     1       5.767   4.090  22.543  0.00  0.00    +0.124 A 
ATOM      8  C   UNL     1       9.545   2.498  23.608  0.00  0.00    +0.238 A 
ATOM      9  O   UNL     1      10.530   3.227  23.692  0.00  0.00    -0.283 OA
ATOM     10  C   UNL     1       5.893   2.737  22.857  0.00  0.00    +0.092 A 
ATOM     11  C   UNL     1       9.614   1.023  23.791  0.00  0.00    +0.208 A 
ENDROOT
BRANCH   1  13
ATOM     12  C   UNL     1       8.800  -1.779  25.171  0.00  0.00    +0.015 A 
ATOM     13  C   UNL     1       8.395  -1.164  23.972  0.00  0.00    +0.025 A 
ATOM     14  C   UNL     1       7.923  -1.993  22.936  0.00  0.00    +0.064 A 
ATOM     15  C   UNL     1       7.931  -3.389  23.069  0.00  0.00    +0.201 A 
ATOM     16  C   UNL     1       8.437  -3.968  24.233  0.00  0.00    +0.161 A 
ATOM     17  C   UNL     1       8.854  -3.171  25.293  0.00  0.00    +0.050 A 
BRANCH  16  18
ATOM     18  O   UNL     1       8.513  -5.330  24.320  0.00  0.00    -0.503 OA
ATOM     19  H   UNL     1       9.105  -5.659  23.623  0.00  0.00    +0.292 HD
ENDBRANCH  16  18
BRANCH  15  20
ATOM     20  O   UNL     1       7.545  -4.247  22.071  0.00  0.00    -0.321 OA
BRANCH  20  21
ATOM     21  S   UNL     1       6.029  -4.836  22.003  0.00  0.00    +0.251 S 
ATOM     22  O   UNL     1       5.090  -3.739  22.064  0.00  0.00    -0.108 OA
ATOM     23  O   UNL     1       5.929  -5.979  22.885  0.00  0.00    -0.108 OA
BRANCH  21  24
ATOM     24  O   UNL     1       5.967  -5.450  20.513  0.00  0.00    -0.222 OA
ATOM     25  H   UNL     1       5.070  -5.283  20.158  0.00  0.00    +0.248 HD
ENDBRANCH  21  24
ENDBRANCH  20  21
ENDBRANCH  15  20
ENDBRANCH   1  13
BRANCH   5  26
ATOM     26  O   UNL     1       9.155   5.307  22.966  0.00  0.00    -0.506 OA
ATOM     27  H   UNL     1       8.815   6.195  22.707  0.00  0.00    +0.292 HD
ENDBRANCH   5  26
BRANCH   7  28
ATOM     28  O   UNL     1       4.532   4.554  22.191  0.00  0.00    -0.507 OA
ATOM     29  H   UNL     1       3.991   3.804  21.890  0.00  0.00    +0.292 HD
ENDBRANCH   7  28
BRANCH  11  30
ATOM     30  O   UNL     1      10.881   0.486  23.924  0.00  0.00    -0.501 OA
ATOM     31  H   UNL     1      11.373   1.015  24.573  0.00  0.00    +0.292 HD
ENDBRANCH  11  30
TORSDOF 8
ENDMDL
MODEL 8
REMARK VINA RESULT:      -6.8      2.287      3.855
REMARK  Name = 
REMARK  8 active torsions:
REMARK  status: ('A' for Active; 'I' for Inactive)
REMARK    1  A    between atoms: C_3  and  O_26
REMARK    2  A    between atoms: C_4  and  O_21
REMARK    3  A    between atoms: C_6  and  C_7
REMARK    4  A    between atoms: C_8  and  O_20
REMARK    5  A    between atoms: C_12  and  O_19
REMARK    6  A    between atoms: C_14  and  O_18
REMARK    7  A    between atoms: O_21  and  S_22
REMARK    8  A    between atoms: S_22  and  O_25
REMARK                            x       y       z     vdW  Elec       q    Type
REMARK                         _______ _______ _______ _____ _____    ______ ____
ROOT
ATOM      1  C   UNL     1       8.116  -0.609  23.205  0.00  0.00    +0.181 A 
ATOM      2  O   UNL     1       6.953  -1.263  22.800  0.00  0.00    -0.451 OA
ATOM      3  C   UNL     1       6.856  -2.624  22.966  0.00  0.00    +0.147 A 
ATOM      4  C   UNL     1       7.920  -3.406  23.406  0.00  0.00    +0.109 A 
ATOM      5  C   UNL     1       7.768  -4.791  23.545  0.00  0.00    +0.135 A 
ATOM      6  C   UNL     1       6.552  -5.398  23.249  0.00  0.00    +0.091 A 
ATOM      7  C   UNL     1       5.491  -4.608  22.817  0.00  0.00    +0.124 A 
ATOM      8  C   UNL     1       9.178  -2.741  23.746  0.00  0.00    +0.238 A 
ATOM      9  O   UNL     1      10.147  -3.410  24.097  0.00  0.00    -0.283 OA
ATOM     10  C   UNL     1       5.632  -3.227  22.673  0.00  0.00    +0.092 A 
ATOM     11  C   UNL     1       9.198  -1.255  23.696  0.00  0.00    +0.208 A 
ENDROOT
BRANCH   1  13
ATOM     12  C   UNL     1       7.596   1.503  21.894  0.00  0.00    +0.015 A 
ATOM     13  C   UNL     1       8.023   0.876  23.080  0.00  0.00    +0.025 A 
ATOM     14  C   UNL     1       8.375   1.700  24.166  0.00  0.00    +0.064 A 
ATOM     15  C   UNL     1       8.375   3.096  24.043  0.00  0.00    +0.201 A 
ATOM     16  C   UNL     1       8.046   3.680  22.819  0.00  0.00    +0.161 A 
ATOM     17  C   UNL     1       7.638   2.893  21.749  0.00  0.00    +0.050 A 
BRANCH  16  18
ATOM     18  O   UNL     1       8.127   5.039  22.688  0.00  0.00    -0.503 OA
ATOM     19  H   UNL     1       7.468   5.454  23.270  0.00  0.00    +0.292 HD
ENDBRANCH  16  18
BRANCH  15  20
ATOM     20  O   UNL     1       8.771   3.945  25.045  0.00  0.00    -0.321 OA
BRANCH  20  21
ATOM     21  S   UNL     1       7.700   4.553  26.110  0.00  0.00    +0.251 S 
ATOM     22  O   UNL     1       6.423   4.722  25.454  0.00  0.00    -0.108 OA
ATOM     23  O   UNL     1       8.329   5.626  26.848  0.00  0.00    -0.108 OA
BRANCH  21  24
ATOM     24  O   UNL     1       7.549   3.347  27.169  0.00  0.00    -0.222 OA
ATOM     25  H   UNL     1       6.718   2.872  26.966  0.00  0.00    +0.248 HD
ENDBRANCH  21  24
ENDBRANCH  20  21
ENDBRANCH  15  20
ENDBRANCH   1  13
BRANCH   5  26
ATOM     26  O   UNL     1       8.775  -5.612  23.976  0.00  0.00    -0.506 OA
ATOM     27  H   UNL     1       8.400  -6.513  24.112  0.00  0.00    +0.292 HD
ENDBRANCH   5  26
BRANCH   7  28
ATOM     28  O   UNL     1       4.278  -5.162  22.520  0.00  0.00    -0.507 OA
ATOM     29  H   UNL     1       4.423  -5.965  21.993  0.00  0.00    +0.292 HD
ENDBRANCH   7  28
BRANCH  11  30
ATOM     30  O   UNL     1      10.330  -0.645  24.205  0.00  0.00    -0.501 OA
ATOM     31  H   UNL     1      11.104  -0.989  23.731  0.00  0.00    +0.292 HD
ENDBRANCH  11  30
TORSDOF 8
ENDMDL
MODEL 9
REMARK VINA RESULT:      -6.8      3.264      8.369
REMARK  Name = 
REMARK  8 active torsions:
REMARK  status: ('A' for Active; 'I' for Inactive)
REMARK    1  A    between atoms: C_3  and  O_26
REMARK    2  A    between atoms: C_4  and  O_21
REMARK    3  A    between atoms: C_6  and  C_7
REMARK    4  A    between atoms: C_8  and  O_20
REMARK    5  A    between atoms: C_12  and  O_19
REMARK    6  A    between atoms: C_14  and  O_18
REMARK    7  A    between atoms: O_21  and  S_22
REMARK    8  A    between atoms: S_22  and  O_25
REMARK                            x       y       z     vdW  Elec       q    Type
REMARK                         _______ _______ _______ _____ _____    ______ ____
ROOT
ATOM      1  C   UNL     1       8.851   1.428  23.852  0.00  0.00    +0.181 A 
ATOM      2  O   UNL     1      10.145   1.889  23.612  0.00  0.00    -0.451 OA
ATOM      3  C   UNL     1      10.386   3.242  23.616  0.00  0.00    +0.147 A 
ATOM      4  C   UNL     1       9.371   4.187  23.723  0.00  0.00    +0.109 A 
ATOM      5  C   UNL     1       9.674   5.554  23.709  0.00  0.00    +0.135 A 
ATOM      6  C   UNL     1      10.993   5.980  23.593  0.00  0.00    +0.091 A 
ATOM      7  C   UNL     1      12.003   5.028  23.494  0.00  0.00    +0.124 A 
ATOM      8  C   UNL     1       7.994   3.715  23.881  0.00  0.00    +0.238 A 
ATOM      9  O   UNL     1       7.073   4.526  23.936  0.00  0.00    -0.283 OA
ATOM     10  C   UNL     1      11.711   3.664  23.505  0.00  0.00    +0.092 A 
ATOM     11  C   UNL     1       7.790   2.249  24.022  0.00  0.00    +0.208 A 
ENDROOT
BRANCH   1  13
ATOM     12  C   UNL     1       9.283  -0.773  25.044  0.00  0.00    +0.015 A 
ATOM     13  C   UNL     1       8.771  -0.060  23.943  0.00  0.00    +0.025 A 
ATOM     14  C   UNL     1       8.175  -0.800  22.903  0.00  0.00    +0.064 A 
ATOM     15  C   UNL     1       8.165  -2.202  22.929  0.00  0.00    +0.201 A 
ATOM     16  C   UNL     1       8.774  -2.877  23.987  0.00  0.00    +0.161 A 
ATOM     17  C   UNL     1       9.316  -2.171  25.054  0.00  0.00    +0.050 A 
BRANCH  16  18
ATOM     18  O   UNL     1       8.828  -4.243  23.962  0.00  0.00    -0.503 OA
ATOM     19  H   UNL     1       8.177  -4.597  24.592  0.00  0.00    +0.292 HD
ENDBRANCH  16  18
BRANCH  15  20
ATOM     20  O   UNL     1       7.659  -2.975  21.915  0.00  0.00    -0.321 OA
BRANCH  20  21
ATOM     21  S   UNL     1       6.140  -3.558  21.975  0.00  0.00    +0.251 S 
ATOM     22  O   UNL     1       5.649  -3.744  20.627  0.00  0.00    -0.108 OA
ATOM     23  O   UNL     1       5.391  -2.818  22.966  0.00  0.00    -0.108 OA
BRANCH  21  24
ATOM     24  O   UNL     1       6.360  -5.019  22.620  0.00  0.00    -0.222 OA
ATOM     25  H   UNL     1       6.530  -4.902  23.576  0.00  0.00    +0.248 HD
ENDBRANCH  21  24
ENDBRANCH  20  21
ENDBRANCH  15  20
ENDBRANCH   1  13
BRANCH   5  26
ATOM     26  O   UNL     1       8.720   6.531  23.814  0.00  0.00    -0.506 OA
ATOM     27  H   UNL     1       7.920   6.135  24.231  0.00  0.00    +0.292 HD
ENDBRANCH   5  26
BRANCH   7  28
ATOM     28  O   UNL     1      13.312   5.403  23.383  0.00  0.00    -0.507 OA
ATOM     29  H   UNL     1      13.660   5.587  24.272  0.00  0.00    +0.292 HD
ENDBRANCH   7  28
BRANCH  11  30
ATOM     30  O   UNL     1       6.512   1.844  24.363  0.00  0.00    -0.501 OA
ATOM     31  H   UNL     1       6.472   1.732  25.326  0.00  0.00    +0.292 HD
ENDBRANCH  11  30
TORSDOF 8
ENDMDL
