MODEL 1
REMARK VINA RESULT:      -6.6      0.000      0.000
REMARK  Name = 
REMARK  10 active torsions:
REMARK  status: ('A' for Active; 'I' for Inactive)
REMARK    1  A    between atoms: C_1  and  O_2
REMARK    2  A    between atoms: O_2  and  C_3
REMARK    3  A    between atoms: C_7  and  O_9
REMARK    4  A    between atoms: O_9  and  C_10
REMARK    5  A    between atoms: C_13  and  O_25
REMARK    6  A    between atoms: C_14  and  C_16
REMARK    7  A    between atoms: C_18  and  O_23
REMARK    8  A    between atoms: C_19  and  O_22
REMARK    9  A    between atoms: O_23  and  C_24
REMARK   10  A    between atoms: O_25  and  C_26
REMARK                            x       y       z     vdW  Elec       q    Type
REMARK                         _______ _______ _______ _____ _____    ______ ____
ROOT
ATOM      1  C   UNL     1       7.419   4.190  22.581  0.00  0.00    +0.127 A 
ATOM      2  C   UNL     1       8.732   4.291  23.043  0.00  0.00    +0.092 A 
ATOM      3  C   UNL     1       9.426   3.158  23.473  0.00  0.00    +0.138 A 
ATOM      4  C   UNL     1       8.785   1.901  23.431  0.00  0.00    +0.109 A 
ATOM      5  C   UNL     1       9.452   0.677  23.904  0.00  0.00    +0.238 A 
ATOM      6  C   UNL     1       8.652  -0.588  23.921  0.00  0.00    +0.211 A 
ATOM      7  C   UNL     1       7.416  -0.570  23.373  0.00  0.00    +0.181 A 
ATOM      8  O   UNL     1       6.820   0.582  22.856  0.00  0.00    -0.451 OA
ATOM      9  O   UNL     1      10.624   0.689  24.273  0.00  0.00    -0.283 OA
ATOM     10  C   UNL     1       7.483   1.786  22.951  0.00  0.00    +0.147 A 
ATOM     11  C   UNL     1       6.800   2.935  22.529  0.00  0.00    +0.092 A 
ENDROOT
BRANCH   7  12
ATOM     12  C   UNL     1       6.545  -1.793  23.308  0.00  0.00    +0.025 A 
ATOM     13  C   UNL     1       5.595  -2.069  24.317  0.00  0.00    +0.015 A 
ATOM     14  C   UNL     1       4.693  -3.127  24.216  0.00  0.00    +0.050 A 
ATOM     15  C   UNL     1       4.768  -3.967  23.122  0.00  0.00    +0.158 A 
ATOM     16  C   UNL     1       5.743  -3.791  22.136  0.00  0.00    +0.162 A 
ATOM     17  C   UNL     1       6.631  -2.707  22.234  0.00  0.00    +0.061 A 
BRANCH  15  18
ATOM     18  O   UNL     1       3.853  -4.981  23.026  0.00  0.00    -0.503 OA
ATOM     19  H   UNL     1       3.006  -4.540  22.821  0.00  0.00    +0.292 HD
ENDBRANCH  15  18
BRANCH  16  20
ATOM     20  O   UNL     1       5.696  -4.732  21.139  0.00  0.00    -0.491 OA
ATOM     21  C   UNL     1       6.638  -5.793  21.206  0.00  0.00    +0.277 C 
ENDBRANCH  16  20
ENDBRANCH   7  12
BRANCH   1  23
ATOM     22  C   UNL     1       7.308   6.522  22.106  0.00  0.00    +0.277 C 
ATOM     23  O   UNL     1       6.660   5.251  22.160  0.00  0.00    -0.495 OA
ENDBRANCH   1  23
BRANCH   3  24
ATOM     24  O   UNL     1      10.710   3.205  23.943  0.00  0.00    -0.494 OA
ATOM     25  C   UNL     1      11.638   4.105  23.358  0.00  0.00    +0.277 C 
ENDBRANCH   3  24
BRANCH   6  26
ATOM     26  O   UNL     1       9.149  -1.726  24.551  0.00  0.00    -0.488 OA
ATOM     27  C   UNL     1       9.990  -2.582  23.782  0.00  0.00    +0.277 C 
ENDBRANCH   6  26
TORSDOF 6
ENDMDL
MODEL 2
REMARK VINA RESULT:      -6.6      2.337      3.573
REMARK  Name = 
REMARK  10 active torsions:
REMARK  status: ('A' for Active; 'I' for Inactive)
REMARK    1  A    between atoms: C_1  and  O_2
REMARK    2  A    between atoms: O_2  and  C_3
REMARK    3  A    between atoms: C_7  and  O_9
REMARK    4  A    between atoms: O_9  and  C_10
REMARK    5  A    between atoms: C_13  and  O_25
REMARK    6  A    between atoms: C_14  and  C_16
REMARK    7  A    between atoms: C_18  and  O_23
REMARK    8  A    between atoms: C_19  and  O_22
REMARK    9  A    between atoms: O_23  and  C_24
REMARK   10  A    between atoms: O_25  and  C_26
REMARK                            x       y       z     vdW  Elec       q    Type
REMARK                         _______ _______ _______ _____ _____    ______ ____
ROOT
ATOM      1  C   UNL     1       7.162   1.380  23.697  0.00  0.00    +0.127 A 
ATOM      2  C   UNL     1       8.553   1.333  23.594  0.00  0.00    +0.092 A 
ATOM      3  C   UNL     1       9.226   0.110  23.570  0.00  0.00    +0.138 A 
ATOM      4  C   UNL     1       8.482  -1.087  23.647  0.00  0.00    +0.109 A 
ATOM      5  C   UNL     1       9.138  -2.405  23.664  0.00  0.00    +0.238 A 
ATOM      6  C   UNL     1       8.270  -3.610  23.857  0.00  0.00    +0.211 A 
ATOM      7  C   UNL     1       6.929  -3.438  23.864  0.00  0.00    +0.181 A 
ATOM      8  O   UNL     1       6.313  -2.188  23.771  0.00  0.00    -0.451 OA
ATOM      9  O   UNL     1      10.353  -2.516  23.523  0.00  0.00    -0.283 OA
ATOM     10  C   UNL     1       7.092  -1.053  23.727  0.00  0.00    +0.147 A 
ATOM     11  C   UNL     1       6.435   0.184  23.755  0.00  0.00    +0.092 A 
ENDROOT
BRANCH   7  12
ATOM     12  C   UNL     1       5.969  -4.585  24.017  0.00  0.00    +0.025 A 
ATOM     13  C   UNL     1       5.210  -5.052  22.922  0.00  0.00    +0.015 A 
ATOM     14  C   UNL     1       4.408  -6.189  23.008  0.00  0.00    +0.050 A 
ATOM     15  C   UNL     1       4.307  -6.846  24.220  0.00  0.00    +0.158 A 
ATOM     16  C   UNL     1       4.970  -6.377  25.357  0.00  0.00    +0.162 A 
ATOM     17  C   UNL     1       5.797  -5.246  25.253  0.00  0.00    +0.061 A 
BRANCH  15  18
ATOM     18  O   UNL     1       3.540  -7.978  24.276  0.00  0.00    -0.503 OA
ATOM     19  H   UNL     1       3.005  -7.881  25.088  0.00  0.00    +0.292 HD
ENDBRANCH  15  18
BRANCH  16  20
ATOM     20  O   UNL     1       4.736  -7.127  26.482  0.00  0.00    -0.491 OA
ATOM     21  C   UNL     1       5.049  -6.532  27.733  0.00  0.00    +0.277 C 
ENDBRANCH  16  20
ENDBRANCH   7  12
BRANCH   1  23
ATOM     22  C   UNL     1       6.241   3.231  22.513  0.00  0.00    +0.277 C 
ATOM     23  O   UNL     1       6.425   2.534  23.746  0.00  0.00    -0.495 OA
ENDBRANCH   1  23
BRANCH   3  24
ATOM     24  O   UNL     1      10.588   0.011  23.480  0.00  0.00    -0.494 OA
ATOM     25  C   UNL     1      11.404   0.717  24.401  0.00  0.00    +0.277 C 
ENDBRANCH   3  24
BRANCH   6  26
ATOM     26  O   UNL     1       8.842  -4.857  24.094  0.00  0.00    -0.488 OA
ATOM     27  C   UNL     1       9.446  -5.065  25.368  0.00  0.00    +0.277 C 
ENDBRANCH   6  26
TORSDOF 6
ENDMDL
MODEL 3
REMARK VINA RESULT:      -6.5      2.528      7.918
REMARK  Name = 
REMARK  10 active torsions:
REMARK  status: ('A' for Active; 'I' for Inactive)
REMARK    1  A    between atoms: C_1  and  O_2
REMARK    2  A    between atoms: O_2  and  C_3
REMARK    3  A    between atoms: C_7  and  O_9
REMARK    4  A    between atoms: O_9  and  C_10
REMARK    5  A    between atoms: C_13  and  O_25
REMARK    6  A    between atoms: C_14  and  C_16
REMARK    7  A    between atoms: C_18  and  O_23
REMARK    8  A    between atoms: C_19  and  O_22
REMARK    9  A    between atoms: O_23  and  C_24
REMARK   10  A    between atoms: O_25  and  C_26
REMARK                            x       y       z     vdW  Elec       q    Type
REMARK                         _______ _______ _______ _____ _____    ______ ____
ROOT
ATOM      1  C   UNL     1       3.940  -5.863  23.374  0.00  0.00    +0.127 A 
ATOM      2  C   UNL     1       4.326  -6.480  24.565  0.00  0.00    +0.092 A 
ATOM      3  C   UNL     1       5.340  -5.934  25.355  0.00  0.00    +0.138 A 
ATOM      4  C   UNL     1       5.972  -4.743  24.937  0.00  0.00    +0.109 A 
ATOM      5  C   UNL     1       7.072  -4.140  25.709  0.00  0.00    +0.238 A 
ATOM      6  C   UNL     1       7.750  -2.939  25.128  0.00  0.00    +0.211 A 
ATOM      7  C   UNL     1       7.231  -2.391  24.007  0.00  0.00    +0.181 A 
ATOM      8  O   UNL     1       6.138  -2.927  23.323  0.00  0.00    -0.451 OA
ATOM      9  O   UNL     1       7.422  -4.604  26.791  0.00  0.00    -0.283 OA
ATOM     10  C   UNL     1       5.580  -4.107  23.762  0.00  0.00    +0.147 A 
ATOM     11  C   UNL     1       4.564  -4.673  22.979  0.00  0.00    +0.092 A 
ENDROOT
BRANCH   7  12
ATOM     12  C   UNL     1       7.815  -1.164  23.363  0.00  0.00    +0.025 A 
ATOM     13  C   UNL     1       8.916  -1.256  22.482  0.00  0.00    +0.015 A 
ATOM     14  C   UNL     1       9.396  -0.151  21.779  0.00  0.00    +0.050 A 
ATOM     15  C   UNL     1       8.812   1.083  21.994  0.00  0.00    +0.158 A 
ATOM     16  C   UNL     1       7.775   1.245  22.917  0.00  0.00    +0.162 A 
ATOM     17  C   UNL     1       7.283   0.122  23.601  0.00  0.00    +0.061 A 
BRANCH  15  18
ATOM     18  O   UNL     1       9.277   2.148  21.270  0.00  0.00    -0.503 OA
ATOM     19  H   UNL     1      10.044   1.802  20.774  0.00  0.00    +0.292 HD
ENDBRANCH  15  18
BRANCH  16  20
ATOM     20  O   UNL     1       7.334   2.540  23.030  0.00  0.00    -0.491 OA
ATOM     21  C   UNL     1       6.019   2.817  22.572  0.00  0.00    +0.277 C 
ENDBRANCH  16  20
ENDBRANCH   7  12
BRANCH   1  23
ATOM     22  C   UNL     1       1.615  -6.092  22.906  0.00  0.00    +0.277 C 
ATOM     23  O   UNL     1       2.970  -6.341  22.531  0.00  0.00    -0.495 OA
ENDBRANCH   1  23
BRANCH   3  24
ATOM     24  O   UNL     1       5.760  -6.504  26.525  0.00  0.00    -0.494 OA
ATOM     25  C   UNL     1       4.815  -6.793  27.543  0.00  0.00    +0.277 C 
ENDBRANCH   3  24
BRANCH   6  26
ATOM     26  O   UNL     1       8.925  -2.452  25.695  0.00  0.00    -0.488 OA
ATOM     27  C   UNL     1       8.799  -1.424  26.674  0.00  0.00    +0.277 C 
ENDBRANCH   6  26
TORSDOF 6
ENDMDL
MODEL 4
REMARK VINA RESULT:      -6.4      2.194      7.805
REMARK  Name = 
REMARK  10 active torsions:
REMARK  status: ('A' for Active; 'I' for Inactive)
REMARK    1  A    between atoms: C_1  and  O_2
REMARK    2  A    between atoms: O_2  and  C_3
REMARK    3  A    between atoms: C_7  and  O_9
REMARK    4  A    between atoms: O_9  and  C_10
REMARK    5  A    between atoms: C_13  and  O_25
REMARK    6  A    between atoms: C_14  and  C_16
REMARK    7  A    between atoms: C_18  and  O_23
REMARK    8  A    between atoms: C_19  and  O_22
REMARK    9  A    between atoms: O_23  and  C_24
REMARK   10  A    between atoms: O_25  and  C_26
REMARK                            x       y       z     vdW  Elec       q    Type
REMARK                         _______ _______ _______ _____ _____    ______ ____
ROOT
ATOM      1  C   UNL     1       7.099  -5.196  22.719  0.00  0.00    +0.127 A 
ATOM      2  C   UNL     1       6.514  -5.597  23.921  0.00  0.00    +0.092 A 
ATOM      3  C   UNL     1       6.478  -4.736  25.019  0.00  0.00    +0.138 A 
ATOM      4  C   UNL     1       7.038  -3.446  24.901  0.00  0.00    +0.109 A 
ATOM      5  C   UNL     1       7.062  -2.507  26.035  0.00  0.00    +0.238 A 
ATOM      6  C   UNL     1       7.775  -1.204  25.843  0.00  0.00    +0.211 A 
ATOM      7  C   UNL     1       8.232  -0.901  24.607  0.00  0.00    +0.181 A 
ATOM      8  O   UNL     1       8.136  -1.769  23.517  0.00  0.00    -0.451 OA
ATOM      9  O   UNL     1       6.518  -2.779  27.102  0.00  0.00    -0.283 OA
ATOM     10  C   UNL     1       7.604  -3.027  23.700  0.00  0.00    +0.147 A 
ATOM     11  C   UNL     1       7.637  -3.907  22.610  0.00  0.00    +0.092 A 
ENDROOT
BRANCH   7  12
ATOM     12  C   UNL     1       8.930   0.394  24.300  0.00  0.00    +0.025 A 
ATOM     13  C   UNL     1      10.330   0.520  24.439  0.00  0.00    +0.015 A 
ATOM     14  C   UNL     1      11.013   1.669  24.044  0.00  0.00    +0.050 A 
ATOM     15  C   UNL     1      10.291   2.741  23.553  0.00  0.00    +0.158 A 
ATOM     16  C   UNL     1       8.896   2.701  23.473  0.00  0.00    +0.162 A 
ATOM     17  C   UNL     1       8.220   1.529  23.850  0.00  0.00    +0.061 A 
BRANCH  15  18
ATOM     18  O   UNL     1      10.983   3.848  23.141  0.00  0.00    -0.503 OA
ATOM     19  H   UNL     1      11.410   3.582  22.303  0.00  0.00    +0.292 HD
ENDBRANCH  15  18
BRANCH  16  20
ATOM     20  O   UNL     1       8.337   3.859  22.995  0.00  0.00    -0.491 OA
ATOM     21  C   UNL     1       7.162   3.732  22.208  0.00  0.00    +0.277 C 
ENDBRANCH  16  20
ENDBRANCH   7  12
BRANCH   1  23
ATOM     22  C   UNL     1       6.109  -5.917  20.675  0.00  0.00    +0.277 C 
ATOM     23  O   UNL     1       7.194  -5.983  21.601  0.00  0.00    -0.495 OA
ENDBRANCH   1  23
BRANCH   3  24
ATOM     24  O   UNL     1       5.924  -5.084  26.221  0.00  0.00    -0.494 OA
ATOM     25  C   UNL     1       5.206  -6.303  26.335  0.00  0.00    +0.277 C 
ENDBRANCH   3  24
BRANCH   6  26
ATOM     26  O   UNL     1       8.018  -0.369  26.930  0.00  0.00    -0.488 OA
ATOM     27  C   UNL     1       6.975   0.522  27.314  0.00  0.00    +0.277 C 
ENDBRANCH   6  26
TORSDOF 6
ENDMDL
MODEL 5
REMARK VINA RESULT:      -6.4      1.707      7.300
REMARK  Name = 
REMARK  10 active torsions:
REMARK  status: ('A' for Active; 'I' for Inactive)
REMARK    1  A    between atoms: C_1  and  O_2
REMARK    2  A    between atoms: O_2  and  C_3
REMARK    3  A    between atoms: C_7  and  O_9
REMARK    4  A    between atoms: O_9  and  C_10
REMARK    5  A    between atoms: C_13  and  O_25
REMARK    6  A    between atoms: C_14  and  C_16
REMARK    7  A    between atoms: C_18  and  O_23
REMARK    8  A    between atoms: C_19  and  O_22
REMARK    9  A    between atoms: O_23  and  C_24
REMARK   10  A    between atoms: O_25  and  C_26
REMARK                            x       y       z     vdW  Elec       q    Type
REMARK                         _______ _______ _______ _____ _____    ______ ____
ROOT
ATOM      1  C   UNL     1       5.543  -4.497  22.921  0.00  0.00    +0.127 A 
ATOM      2  C   UNL     1       6.698  -5.169  23.322  0.00  0.00    +0.092 A 
ATOM      3  C   UNL     1       7.867  -4.463  23.618  0.00  0.00    +0.138 A 
ATOM      4  C   UNL     1       7.868  -3.056  23.511  0.00  0.00    +0.109 A 
ATOM      5  C   UNL     1       9.079  -2.261  23.773  0.00  0.00    +0.238 A 
ATOM      6  C   UNL     1       9.008  -0.786  23.527  0.00  0.00    +0.211 A 
ATOM      7  C   UNL     1       7.809  -0.246  23.216  0.00  0.00    +0.181 A 
ATOM      8  O   UNL     1       6.646  -1.001  23.044  0.00  0.00    -0.451 OA
ATOM      9  O   UNL     1      10.112  -2.786  24.180  0.00  0.00    -0.283 OA
ATOM     10  C   UNL     1       6.713  -2.374  23.133  0.00  0.00    +0.147 A 
ATOM     11  C   UNL     1       5.552  -3.099  22.835  0.00  0.00    +0.092 A 
ENDROOT
BRANCH   7  12
ATOM     12  C   UNL     1       7.623   1.227  22.984  0.00  0.00    +0.025 A 
ATOM     13  C   UNL     1       7.659   1.772  21.681  0.00  0.00    +0.015 A 
ATOM     14  C   UNL     1       7.367   3.112  21.429  0.00  0.00    +0.050 A 
ATOM     15  C   UNL     1       7.090   3.947  22.495  0.00  0.00    +0.158 A 
ATOM     16  C   UNL     1       7.123   3.479  23.812  0.00  0.00    +0.162 A 
ATOM     17  C   UNL     1       7.393   2.122  24.052  0.00  0.00    +0.061 A 
BRANCH  15  18
ATOM     18  O   UNL     1       6.775   5.251  22.224  0.00  0.00    -0.503 OA
ATOM     19  H   UNL     1       7.388   5.517  21.511  0.00  0.00    +0.292 HD
ENDBRANCH  15  18
BRANCH  16  20
ATOM     20  O   UNL     1       6.856   4.446  24.748  0.00  0.00    -0.491 OA
ATOM     21  C   UNL     1       7.939   4.876  25.561  0.00  0.00    +0.277 C 
ENDBRANCH  16  20
ENDBRANCH   7  12
BRANCH   1  23
ATOM     22  C   UNL     1       3.284  -4.962  23.520  0.00  0.00    +0.277 C 
ATOM     23  O   UNL     1       4.361  -5.111  22.595  0.00  0.00    -0.495 OA
ENDBRANCH   1  23
BRANCH   3  24
ATOM     24  O   UNL     1       9.028  -5.075  24.006  0.00  0.00    -0.494 OA
ATOM     25  C   UNL     1       9.108  -5.677  25.288  0.00  0.00    +0.277 C 
ENDBRANCH   3  24
BRANCH   6  26
ATOM     26  O   UNL     1      10.166  -0.014  23.550  0.00  0.00    -0.488 OA
ATOM     27  C   UNL     1      10.587   0.494  24.813  0.00  0.00    +0.277 C 
ENDBRANCH   6  26
TORSDOF 6
ENDMDL
MODEL 6
REMARK VINA RESULT:      -6.4      2.121      3.681
REMARK  Name = 
REMARK  10 active torsions:
REMARK  status: ('A' for Active; 'I' for Inactive)
REMARK    1  A    between atoms: C_1  and  O_2
REMARK    2  A    between atoms: O_2  and  C_3
REMARK    3  A    between atoms: C_7  and  O_9
REMARK    4  A    between atoms: O_9  and  C_10
REMARK    5  A    between atoms: C_13  and  O_25
REMARK    6  A    between atoms: C_14  and  C_16
REMARK    7  A    between atoms: C_18  and  O_23
REMARK    8  A    between atoms: C_19  and  O_22
REMARK    9  A    between atoms: O_23  and  C_24
REMARK   10  A    between atoms: O_25  and  C_26
REMARK                            x       y       z     vdW  Elec       q    Type
REMARK                         _______ _______ _______ _____ _____    ______ ____
ROOT
ATOM      1  C   UNL     1      10.723   3.442  23.578  0.00  0.00    +0.127 A 
ATOM      2  C   UNL     1       9.541   4.174  23.458  0.00  0.00    +0.092 A 
ATOM      3  C   UNL     1       8.303   3.571  23.689  0.00  0.00    +0.138 A 
ATOM      4  C   UNL     1       8.257   2.208  24.052  0.00  0.00    +0.109 A 
ATOM      5  C   UNL     1       6.981   1.509  24.272  0.00  0.00    +0.238 A 
ATOM      6  C   UNL     1       7.033   0.038  24.547  0.00  0.00    +0.211 A 
ATOM      7  C   UNL     1       8.244  -0.538  24.716  0.00  0.00    +0.181 A 
ATOM      8  O   UNL     1       9.451   0.151  24.580  0.00  0.00    -0.451 OA
ATOM      9  O   UNL     1       5.909   2.108  24.234  0.00  0.00    -0.283 OA
ATOM     10  C   UNL     1       9.432   1.474  24.196  0.00  0.00    +0.147 A 
ATOM     11  C   UNL     1      10.665   2.095  23.955  0.00  0.00    +0.092 A 
ENDROOT
BRANCH   7  12
ATOM     12  C   UNL     1       8.406  -2.000  25.029  0.00  0.00    +0.025 A 
ATOM     13  C   UNL     1       8.560  -2.449  26.360  0.00  0.00    +0.015 A 
ATOM     14  C   UNL     1       8.588  -3.804  26.685  0.00  0.00    +0.050 A 
ATOM     15  C   UNL     1       8.520  -4.738  25.668  0.00  0.00    +0.158 A 
ATOM     16  C   UNL     1       8.451  -4.348  24.328  0.00  0.00    +0.162 A 
ATOM     17  C   UNL     1       8.398  -2.980  24.012  0.00  0.00    +0.061 A 
BRANCH  15  18
ATOM     18  O   UNL     1       8.517  -6.063  26.011  0.00  0.00    -0.503 OA
ATOM     19  H   UNL     1       7.574  -6.321  26.019  0.00  0.00    +0.292 HD
ENDBRANCH  15  18
BRANCH  16  20
ATOM     20  O   UNL     1       8.423  -5.400  23.447  0.00  0.00    -0.491 OA
ATOM     21  C   UNL     1       7.281  -5.512  22.611  0.00  0.00    +0.277 C 
ENDBRANCH  16  20
ENDBRANCH   7  12
BRANCH   1  23
ATOM     22  C   UNL     1      12.118   5.368  23.424  0.00  0.00    +0.277 C 
ATOM     23  O   UNL     1      11.976   3.949  23.351  0.00  0.00    -0.495 OA
ENDBRANCH   1  23
BRANCH   3  24
ATOM     24  O   UNL     1       7.115   4.242  23.576  0.00  0.00    -0.494 OA
ATOM     25  C   UNL     1       6.888   5.080  22.454  0.00  0.00    +0.277 C 
ENDBRANCH   3  24
BRANCH   6  26
ATOM     26  O   UNL     1       5.864  -0.718  24.553  0.00  0.00    -0.488 OA
ATOM     27  C   UNL     1       5.210  -0.899  25.806  0.00  0.00    +0.277 C 
ENDBRANCH   6  26
TORSDOF 6
ENDMDL
MODEL 7
REMARK VINA RESULT:      -6.3      1.792      3.821
REMARK  Name = 
REMARK  10 active torsions:
REMARK  status: ('A' for Active; 'I' for Inactive)
REMARK    1  A    between atoms: C_1  and  O_2
REMARK    2  A    between atoms: O_2  and  C_3
REMARK    3  A    between atoms: C_7  and  O_9
REMARK    4  A    between atoms: O_9  and  C_10
REMARK    5  A    between atoms: C_13  and  O_25
REMARK    6  A    between atoms: C_14  and  C_16
REMARK    7  A    between atoms: C_18  and  O_23
REMARK    8  A    between atoms: C_19  and  O_22
REMARK    9  A    between atoms: O_23  and  C_24
REMARK   10  A    between atoms: O_25  and  C_26
REMARK                            x       y       z     vdW  Elec       q    Type
REMARK                         _______ _______ _______ _____ _____    ______ ____
ROOT
ATOM      1  C   UNL     1      11.691   4.693  23.480  0.00  0.00    +0.127 A 
ATOM      2  C   UNL     1      10.626   5.569  23.694  0.00  0.00    +0.092 A 
ATOM      3  C   UNL     1       9.332   5.083  23.894  0.00  0.00    +0.138 A 
ATOM      4  C   UNL     1       9.111   3.689  23.884  0.00  0.00    +0.109 A 
ATOM      5  C   UNL     1       7.764   3.119  24.053  0.00  0.00    +0.238 A 
ATOM      6  C   UNL     1       7.617   1.635  23.918  0.00  0.00    +0.211 A 
ATOM      7  C   UNL     1       8.737   0.890  23.789  0.00  0.00    +0.181 A 
ATOM      8  O   UNL     1      10.019   1.436  23.706  0.00  0.00    -0.451 OA
ATOM      9  O   UNL     1       6.794   3.832  24.297  0.00  0.00    -0.283 OA
ATOM     10  C   UNL     1      10.171   2.805  23.693  0.00  0.00    +0.147 A 
ATOM     11  C   UNL     1      11.461   3.312  23.488  0.00  0.00    +0.092 A 
ENDROOT
BRANCH   7  12
ATOM     12  C   UNL     1       8.701  -0.609  23.681  0.00  0.00    +0.025 A 
ATOM     13  C   UNL     1       9.477  -1.422  24.536  0.00  0.00    +0.015 A 
ATOM     14  C   UNL     1       9.368  -2.812  24.538  0.00  0.00    +0.050 A 
ATOM     15  C   UNL     1       8.516  -3.416  23.634  0.00  0.00    +0.158 A 
ATOM     16  C   UNL     1       7.787  -2.665  22.708  0.00  0.00    +0.162 A 
ATOM     17  C   UNL     1       7.885  -1.264  22.731  0.00  0.00    +0.061 A 
BRANCH  15  18
ATOM     18  O   UNL     1       8.399  -4.780  23.673  0.00  0.00    -0.503 OA
ATOM     19  H   UNL     1       9.318  -5.111  23.710  0.00  0.00    +0.292 HD
ENDBRANCH  15  18
BRANCH  16  20
ATOM     20  O   UNL     1       7.016  -3.424  21.864  0.00  0.00    -0.491 OA
ATOM     21  C   UNL     1       5.607  -3.323  22.010  0.00  0.00    +0.277 C 
ENDBRANCH  16  20
ENDBRANCH   7  12
BRANCH   1  23
ATOM     22  C   UNL     1      13.274   5.648  21.976  0.00  0.00    +0.277 C 
ATOM     23  O   UNL     1      12.986   5.085  23.256  0.00  0.00    -0.495 OA
ENDBRANCH   1  23
BRANCH   3  24
ATOM     24  O   UNL     1       8.254   5.899  24.099  0.00  0.00    -0.494 OA
ATOM     25  C   UNL     1       7.895   6.849  23.107  0.00  0.00    +0.277 C 
ENDBRANCH   3  24
BRANCH   6  26
ATOM     26  O   UNL     1       6.351   1.058  23.854  0.00  0.00    -0.488 OA
ATOM     27  C   UNL     1       5.720   0.733  25.089  0.00  0.00    +0.277 C 
ENDBRANCH   6  26
TORSDOF 6
ENDMDL
MODEL 8
REMARK VINA RESULT:      -6.3      2.088      3.508
REMARK  Name = 
REMARK  10 active torsions:
REMARK  status: ('A' for Active; 'I' for Inactive)
REMARK    1  A    between atoms: C_1  and  O_2
REMARK    2  A    between atoms: O_2  and  C_3
REMARK    3  A    between atoms: C_7  and  O_9
REMARK    4  A    between atoms: O_9  and  C_10
REMARK    5  A    between atoms: C_13  and  O_25
REMARK    6  A    between atoms: C_14  and  C_16
REMARK    7  A    between atoms: C_18  and  O_23
REMARK    8  A    between atoms: C_19  and  O_22
REMARK    9  A    between atoms: O_23  and  C_24
REMARK   10  A    between atoms: O_25  and  C_26
REMARK                            x       y       z     vdW  Elec       q    Type
REMARK                         _______ _______ _______ _____ _____    ______ ____
ROOT
ATOM      1  C   UNL     1      10.509   3.453  23.547  0.00  0.00    +0.127 A 
ATOM      2  C   UNL     1       9.590   4.243  24.240  0.00  0.00    +0.092 A 
ATOM      3  C   UNL     1       8.399   3.695  24.721  0.00  0.00    +0.138 A 
ATOM      4  C   UNL     1       8.134   2.326  24.505  0.00  0.00    +0.109 A 
ATOM      5  C   UNL     1       6.880   1.700  24.956  0.00  0.00    +0.238 A 
ATOM      6  C   UNL     1       6.644   0.270  24.584  0.00  0.00    +0.211 A 
ATOM      7  C   UNL     1       7.646  -0.408  23.980  0.00  0.00    +0.181 A 
ATOM      8  O   UNL     1       8.864   0.175  23.623  0.00  0.00    -0.451 OA
ATOM      9  O   UNL     1       6.055   2.327  25.616  0.00  0.00    -0.283 OA
ATOM     10  C   UNL     1       9.055   1.524  23.835  0.00  0.00    +0.147 A 
ATOM     11  C   UNL     1      10.241   2.092  23.353  0.00  0.00    +0.092 A 
ENDROOT
BRANCH   7  12
ATOM     12  C   UNL     1       7.525  -1.856  23.596  0.00  0.00    +0.025 A 
ATOM     13  C   UNL     1       6.644  -2.269  22.571  0.00  0.00    +0.015 A 
ATOM     14  C   UNL     1       6.604  -3.585  22.114  0.00  0.00    +0.050 A 
ATOM     15  C   UNL     1       7.411  -4.528  22.722  0.00  0.00    +0.158 A 
ATOM     16  C   UNL     1       8.240  -4.192  23.796  0.00  0.00    +0.162 A 
ATOM     17  C   UNL     1       8.291  -2.857  24.232  0.00  0.00    +0.061 A 
BRANCH  15  18
ATOM     18  O   UNL     1       7.381  -5.808  22.238  0.00  0.00    -0.503 OA
ATOM     19  H   UNL     1       6.436  -6.059  22.246  0.00  0.00    +0.292 HD
ENDBRANCH  15  18
BRANCH  16  20
ATOM     20  O   UNL     1       8.947  -5.253  24.301  0.00  0.00    -0.491 OA
ATOM     21  C   UNL     1       9.728  -5.015  25.463  0.00  0.00    +0.277 C 
ENDBRANCH  16  20
ENDBRANCH   7  12
BRANCH   1  23
ATOM     22  C   UNL     1      12.128   5.200  23.464  0.00  0.00    +0.277 C 
ATOM     23  O   UNL     1      11.690   3.913  23.026  0.00  0.00    -0.495 OA
ENDBRANCH   1  23
BRANCH   3  24
ATOM     24  O   UNL     1       7.462   4.428  25.397  0.00  0.00    -0.494 OA
ATOM     25  C   UNL     1       7.880   5.382  26.361  0.00  0.00    +0.277 C 
ENDBRANCH   3  24
BRANCH   6  26
ATOM     26  O   UNL     1       5.398  -0.315  24.792  0.00  0.00    -0.488 OA
ATOM     27  C   UNL     1       5.164  -0.916  26.063  0.00  0.00    +0.277 C 
ENDBRANCH   6  26
TORSDOF 6
ENDMDL
MODEL 9
REMARK VINA RESULT:      -6.0      2.148      7.564
REMARK  Name = 
REMARK  10 active torsions:
REMARK  status: ('A' for Active; 'I' for Inactive)
REMARK    1  A    between atoms: C_1  and  O_2
REMARK    2  A    between atoms: O_2  and  C_3
REMARK    3  A    between atoms: C_7  and  O_9
REMARK    4  A    between atoms: O_9  and  C_10
REMARK    5  A    between atoms: C_13  and  O_25
REMARK    6  A    between atoms: C_14  and  C_16
REMARK    7  A    between atoms: C_18  and  O_23
REMARK    8  A    between atoms: C_19  and  O_22
REMARK    9  A    between atoms: O_23  and  C_24
REMARK   10  A    between atoms: O_25  and  C_26
REMARK                            x       y       z     vdW  Elec       q    Type
REMARK                         _______ _______ _______ _____ _____    ______ ____
ROOT
ATOM      1  C   UNL     1       7.216  -4.732  22.693  0.00  0.00    +0.127 A 
ATOM      2  C   UNL     1       6.954  -5.117  24.008  0.00  0.00    +0.092 A 
ATOM      3  C   UNL     1       6.826  -4.163  25.019  0.00  0.00    +0.138 A 
ATOM      4  C   UNL     1       6.959  -2.795  24.696  0.00  0.00    +0.109 A 
ATOM      5  C   UNL     1       6.871  -1.746  25.725  0.00  0.00    +0.238 A 
ATOM      6  C   UNL     1       7.134  -0.334  25.301  0.00  0.00    +0.211 A 
ATOM      7  C   UNL     1       7.299  -0.082  23.984  0.00  0.00    +0.181 A 
ATOM      8  O   UNL     1       7.305  -1.077  23.004  0.00  0.00    -0.451 OA
ATOM      9  O   UNL     1       6.590  -2.015  26.890  0.00  0.00    -0.283 OA
ATOM     10  C   UNL     1       7.199  -2.398  23.383  0.00  0.00    +0.147 A 
ATOM     11  C   UNL     1       7.330  -3.370  22.383  0.00  0.00    +0.092 A 
ENDROOT
BRANCH   7  12
ATOM     12  C   UNL     1       7.535   1.304  23.450  0.00  0.00    +0.025 A 
ATOM     13  C   UNL     1       6.597   1.926  22.596  0.00  0.00    +0.015 A 
ATOM     14  C   UNL     1       6.733   3.253  22.189  0.00  0.00    +0.050 A 
ATOM     15  C   UNL     1       7.850   3.963  22.587  0.00  0.00    +0.158 A 
ATOM     16  C   UNL     1       8.850   3.369  23.362  0.00  0.00    +0.162 A 
ATOM     17  C   UNL     1       8.691   2.040  23.788  0.00  0.00    +0.061 A 
BRANCH  15  18
ATOM     18  O   UNL     1       7.949   5.273  22.203  0.00  0.00    -0.503 OA
ATOM     19  H   UNL     1       7.379   5.764  22.826  0.00  0.00    +0.292 HD
ENDBRANCH  15  18
BRANCH  16  20
ATOM     20  O   UNL     1       9.903   4.205  23.640  0.00  0.00    -0.491 OA
ATOM     21  C   UNL     1      11.204   3.731  23.326  0.00  0.00    +0.277 C 
ENDBRANCH  16  20
ENDBRANCH   7  12
BRANCH   1  23
ATOM     22  C   UNL     1       6.226  -5.848  20.835  0.00  0.00    +0.277 C 
ATOM     23  O   UNL     1       7.375  -5.601  21.645  0.00  0.00    -0.495 OA
ENDBRANCH   1  23
BRANCH   3  24
ATOM     24  O   UNL     1       6.578  -4.490  26.324  0.00  0.00    -0.494 OA
ATOM     25  C   UNL     1       7.484  -5.331  27.020  0.00  0.00    +0.277 C 
ENDBRANCH   3  24
BRANCH   6  26
ATOM     26  O   UNL     1       7.277   0.671  26.254  0.00  0.00    -0.488 OA
ATOM     27  C   UNL     1       6.091   1.335  26.683  0.00  0.00    +0.277 C 
ENDBRANCH   6  26
TORSDOF 6
ENDMDL
