MODEL 1
REMARK VINA RESULT:      -7.1      0.000      0.000
REMARK  Name = 
REMARK  16 active torsions:
REMARK  status: ('A' for Active; 'I' for Inactive)
REMARK    1  A    between atoms: C_2  and  O_51
REMARK    2  A    between atoms: C_4  and  O_50
REMARK    3  A    between atoms: C_6  and  O_49
REMARK    4  A    between atoms: C_8  and  O_11
REMARK    5  A    between atoms: O_11  and  C_12
REMARK    6  A    between atoms: C_14  and  O_48
REMARK    7  A    between atoms: C_16  and  O_47
REMARK    8  A    between atoms: C_18  and  C_45
REMARK    9  A    between atoms: C_21  and  O_23
REMARK   10  A    between atoms: O_23  and  C_24
REMARK   11  A    between atoms: C_25  and  C_37
REMARK   12  A    between atoms: C_29  and  O_36
REMARK   13  A    between atoms: C_31  and  O_35
REMARK   14  A    between atoms: C_39  and  O_44
REMARK   15  A    between atoms: C_40  and  O_43
REMARK   16  A    between atoms: C_45  and  O_46
REMARK                            x       y       z     vdW  Elec       q    Type
REMARK                         _______ _______ _______ _____ _____    ______ ____
ROOT
ATOM      1  C   UNL     1       7.198   0.983  23.586  0.00  0.00    +0.221 C 
ATOM      2  C   UNL     1       6.626  -0.489  23.766  0.00  0.00    +0.340 C 
ATOM      3  O   UNL     1       7.710  -1.324  24.244  0.00  0.00    -0.331 OA
ATOM      4  C   UNL     1       8.747  -1.505  23.250  0.00  0.00    +0.179 C 
ATOM      5  C   UNL     1       9.341  -0.144  22.914  0.00  0.00    +0.177 C 
ATOM      6  C   UNL     1       8.181   0.694  22.345  0.00  0.00    +0.180 C 
ENDROOT
BRANCH   6   7
ATOM      7  O   UNL     1       8.788   1.692  21.522  0.00  0.00    -0.386 OA
ATOM      8  H   UNL     1       8.475   1.550  20.605  0.00  0.00    +0.210 HD
ENDBRANCH   6   7
BRANCH   5   9
ATOM      9  O   UNL     1      10.399  -0.218  21.966  0.00  0.00    -0.386 OA
ATOM     10  H   UNL     1      11.024   0.481  22.259  0.00  0.00    +0.210 HD
ENDBRANCH   5   9
BRANCH   4  11
ATOM     11  C   UNL     1       9.830  -2.485  23.714  0.00  0.00    +0.190 C 
BRANCH  11  12
ATOM     12  O   UNL     1       9.281  -3.749  24.093  0.00  0.00    -0.392 OA
ATOM     13  H   UNL     1      10.005  -4.293  24.459  0.00  0.00    +0.210 HD
ENDBRANCH  11  12
ENDBRANCH   4  11
BRANCH   2  14
ATOM     14  O   UNL     1       5.458  -0.610  24.593  0.00  0.00    -0.453 OA
BRANCH  14  15
ATOM     15  C   UNL     1       5.398  -1.754  25.418  0.00  0.00    +0.214 A 
ATOM     16  C   UNL     1       5.136  -3.128  24.827  0.00  0.00    +0.238 A 
ATOM     17  O   UNL     1       4.887  -3.307  23.641  0.00  0.00    -0.283 OA
ATOM     18  C   UNL     1       5.146  -4.294  25.712  0.00  0.00    +0.109 A 
ATOM     19  C   UNL     1       5.388  -4.084  27.053  0.00  0.00    +0.147 A 
ATOM     20  C   UNL     1       5.458  -5.175  27.932  0.00  0.00    +0.092 A 
ATOM     21  C   UNL     1       5.258  -6.460  27.444  0.00  0.00    +0.124 A 
ATOM     22  C   UNL     1       4.948  -6.683  26.104  0.00  0.00    +0.091 A 
ATOM     23  O   UNL     1       5.544  -2.832  27.588  0.00  0.00    -0.451 OA
ATOM     24  C   UNL     1       4.895  -5.595  25.238  0.00  0.00    +0.135 A 
ATOM     25  C   UNL     1       5.511  -1.685  26.769  0.00  0.00    +0.181 A 
BRANCH  25  26
ATOM     26  C   UNL     1       5.561  -0.428  27.611  0.00  0.00    +0.025 A 
ATOM     27  C   UNL     1       4.468  -0.095  28.452  0.00  0.00    +0.015 A 
ATOM     28  C   UNL     1       4.410   1.112  29.167  0.00  0.00    +0.050 A 
ATOM     29  C   UNL     1       5.448   2.016  29.049  0.00  0.00    +0.158 A 
ATOM     30  C   UNL     1       6.548   1.714  28.258  0.00  0.00    +0.159 A 
ATOM     31  C   UNL     1       6.611   0.508  27.555  0.00  0.00    +0.060 A 
BRANCH  29  32
ATOM     32  O   UNL     1       5.379   3.212  29.700  0.00  0.00    -0.503 OA
ATOM     33  H   UNL     1       5.340   3.879  28.985  0.00  0.00    +0.292 HD
ENDBRANCH  29  32
BRANCH  30  34
ATOM     34  O   UNL     1       7.549   2.644  28.171  0.00  0.00    -0.503 OA
ATOM     35  H   UNL     1       8.401   2.183  28.281  0.00  0.00    +0.292 HD
ENDBRANCH  30  34
ENDBRANCH  25  26
BRANCH  24  36
ATOM     36  O   UNL     1       4.563  -5.838  23.935  0.00  0.00    -0.506 OA
ATOM     37  H   UNL     1       3.953  -6.590  23.862  0.00  0.00    +0.292 HD
ENDBRANCH  24  36
BRANCH  21  38
ATOM     38  O   UNL     1       5.325  -7.567  28.242  0.00  0.00    -0.507 OA
ATOM     39  H   UNL     1       4.526  -8.097  28.113  0.00  0.00    +0.292 HD
ENDBRANCH  21  38
ENDBRANCH  14  15
ENDBRANCH   2  14
BRANCH   1  40
ATOM     40  O   UNL     1       6.128   1.923  23.404  0.00  0.00    -0.337 OA
BRANCH  40  43
ATOM     41  C   UNL     1       8.254   3.987  24.959  0.00  0.00    +0.197 C 
ATOM     42  O   UNL     1       6.983   3.382  25.221  0.00  0.00    -0.346 OA
ATOM     43  C   UNL     1       6.072   3.183  24.142  0.00  0.00    +0.282 C 
ATOM     44  C   UNL     1       5.951   4.428  23.238  0.00  0.00    +0.201 C 
ATOM     45  C   UNL     1       7.339   4.617  22.685  0.00  0.00    +0.178 C 
ATOM     46  C   UNL     1       8.462   4.804  23.675  0.00  0.00    +0.171 C 
BRANCH  46  47
ATOM     47  O   UNL     1       9.662   4.330  23.014  0.00  0.00    -0.387 OA
ATOM     48  H   UNL     1       9.501   4.294  22.057  0.00  0.00    +0.210 HD
ENDBRANCH  46  47
BRANCH  45  49
ATOM     49  O   UNL     1       7.445   5.457  21.546  0.00  0.00    -0.386 OA
ATOM     50  H   UNL     1       6.835   6.200  21.746  0.00  0.00    +0.210 HD
ENDBRANCH  45  49
BRANCH  44  51
ATOM     51  O   UNL     1       5.002   4.183  22.186  0.00  0.00    -0.384 OA
ATOM     52  H   UNL     1       4.684   3.268  22.285  0.00  0.00    +0.210 HD
ENDBRANCH  44  51
ENDBRANCH  40  43
ENDBRANCH   1  40
TORSDOF 16
ENDMDL
MODEL 2
REMARK VINA RESULT:      -7.1      2.359      6.379
REMARK  Name = 
REMARK  16 active torsions:
REMARK  status: ('A' for Active; 'I' for Inactive)
REMARK    1  A    between atoms: C_2  and  O_51
REMARK    2  A    between atoms: C_4  and  O_50
REMARK    3  A    between atoms: C_6  and  O_49
REMARK    4  A    between atoms: C_8  and  O_11
REMARK    5  A    between atoms: O_11  and  C_12
REMARK    6  A    between atoms: C_14  and  O_48
REMARK    7  A    between atoms: C_16  and  O_47
REMARK    8  A    between atoms: C_18  and  C_45
REMARK    9  A    between atoms: C_21  and  O_23
REMARK   10  A    between atoms: O_23  and  C_24
REMARK   11  A    between atoms: C_25  and  C_37
REMARK   12  A    between atoms: C_29  and  O_36
REMARK   13  A    between atoms: C_31  and  O_35
REMARK   14  A    between atoms: C_39  and  O_44
REMARK   15  A    between atoms: C_40  and  O_43
REMARK   16  A    between atoms: C_45  and  O_46
REMARK                            x       y       z     vdW  Elec       q    Type
REMARK                         _______ _______ _______ _____ _____    ______ ____
ROOT
ATOM      1  C   UNL     1       7.141  -3.464  23.070  0.00  0.00    +0.221 C 
ATOM      2  C   UNL     1       6.547  -3.617  24.537  0.00  0.00    +0.340 C 
ATOM      3  O   UNL     1       6.339  -5.031  24.777  0.00  0.00    -0.331 OA
ATOM      4  C   UNL     1       5.287  -5.582  23.949  0.00  0.00    +0.179 C 
ATOM      5  C   UNL     1       5.688  -5.429  22.488  0.00  0.00    +0.177 C 
ATOM      6  C   UNL     1       5.834  -3.915  22.247  0.00  0.00    +0.180 C 
ENDROOT
BRANCH   6   7
ATOM      7  O   UNL     1       5.631  -3.721  20.846  0.00  0.00    -0.386 OA
ATOM      8  H   UNL     1       5.038  -2.949  20.737  0.00  0.00    +0.210 HD
ENDBRANCH   6   7
BRANCH   5   9
ATOM      9  O   UNL     1       4.731  -5.974  21.588  0.00  0.00    -0.386 OA
ATOM     10  H   UNL     1       4.109  -5.229  21.431  0.00  0.00    +0.210 HD
ENDBRANCH   5   9
BRANCH   4  11
ATOM     11  C   UNL     1       4.985  -7.045  24.292  0.00  0.00    +0.190 C 
BRANCH  11  12
ATOM     12  O   UNL     1       3.678  -7.437  23.865  0.00  0.00    -0.392 OA
ATOM     13  H   UNL     1       3.776  -8.200  23.264  0.00  0.00    +0.210 HD
ENDBRANCH  11  12
ENDBRANCH   4  11
BRANCH   2  14
ATOM     14  O   UNL     1       7.311  -3.006  25.589  0.00  0.00    -0.453 OA
BRANCH  14  15
ATOM     15  C   UNL     1       6.619  -2.084  26.404  0.00  0.00    +0.214 A 
ATOM     16  C   UNL     1       6.986  -0.611  26.399  0.00  0.00    +0.238 A 
ATOM     17  O   UNL     1       7.934  -0.163  25.765  0.00  0.00    -0.283 OA
ATOM     18  C   UNL     1       6.200   0.319  27.211  0.00  0.00    +0.109 A 
ATOM     19  C   UNL     1       5.159  -0.196  27.953  0.00  0.00    +0.147 A 
ATOM     20  C   UNL     1       4.344   0.662  28.707  0.00  0.00    +0.092 A 
ATOM     21  C   UNL     1       4.612   2.025  28.717  0.00  0.00    +0.124 A 
ATOM     22  C   UNL     1       5.700   2.552  28.025  0.00  0.00    +0.091 A 
ATOM     23  O   UNL     1       4.885  -1.538  28.012  0.00  0.00    -0.451 OA
ATOM     24  C   UNL     1       6.493   1.694  27.269  0.00  0.00    +0.135 A 
ATOM     25  C   UNL     1       5.641  -2.464  27.265  0.00  0.00    +0.181 A 
BRANCH  25  26
ATOM     26  C   UNL     1       5.241  -3.882  27.613  0.00  0.00    +0.025 A 
ATOM     27  C   UNL     1       3.886  -4.286  27.490  0.00  0.00    +0.015 A 
ATOM     28  C   UNL     1       3.437  -5.550  27.904  0.00  0.00    +0.050 A 
ATOM     29  C   UNL     1       4.341  -6.438  28.456  0.00  0.00    +0.158 A 
ATOM     30  C   UNL     1       5.680  -6.090  28.566  0.00  0.00    +0.159 A 
ATOM     31  C   UNL     1       6.128  -4.836  28.144  0.00  0.00    +0.060 A 
BRANCH  29  32
ATOM     32  O   UNL     1       3.906  -7.649  28.906  0.00  0.00    -0.503 OA
ATOM     33  H   UNL     1       2.940  -7.637  28.752  0.00  0.00    +0.292 HD
ENDBRANCH  29  32
BRANCH  30  34
ATOM     34  O   UNL     1       6.534  -7.004  29.124  0.00  0.00    -0.503 OA
ATOM     35  H   UNL     1       6.106  -7.372  29.918  0.00  0.00    +0.292 HD
ENDBRANCH  30  34
ENDBRANCH  25  26
BRANCH  24  36
ATOM     36  O   UNL     1       7.569   2.232  26.621  0.00  0.00    -0.506 OA
ATOM     37  H   UNL     1       8.359   1.678  26.732  0.00  0.00    +0.292 HD
ENDBRANCH  24  36
BRANCH  21  38
ATOM     38  O   UNL     1       3.852   2.917  29.419  0.00  0.00    -0.507 OA
ATOM     39  H   UNL     1       4.435   3.560  29.846  0.00  0.00    +0.292 HD
ENDBRANCH  21  38
ENDBRANCH  14  15
ENDBRANCH   2  14
BRANCH   1  40
ATOM     40  O   UNL     1       7.651  -2.136  22.866  0.00  0.00    -0.337 OA
BRANCH  40  43
ATOM     41  C   UNL     1       9.257   0.433  21.447  0.00  0.00    +0.197 C 
ATOM     42  O   UNL     1       8.969  -0.936  21.139  0.00  0.00    -0.346 OA
ATOM     43  C   UNL     1       8.926  -1.892  22.198  0.00  0.00    +0.282 C 
ATOM     44  C   UNL     1      10.119  -1.748  23.167  0.00  0.00    +0.201 C 
ATOM     45  C   UNL     1       9.959  -0.365  23.743  0.00  0.00    +0.178 C 
ATOM     46  C   UNL     1       9.938   0.792  22.775  0.00  0.00    +0.171 C 
BRANCH  46  47
ATOM     47  O   UNL     1       9.172   1.839  23.420  0.00  0.00    -0.387 OA
ATOM     48  H   UNL     1       9.017   1.592  24.347  0.00  0.00    +0.210 HD
ENDBRANCH  46  47
BRANCH  45  49
ATOM     49  O   UNL     1      10.694  -0.097  24.928  0.00  0.00    -0.386 OA
ATOM     50  H   UNL     1      11.564  -0.522  24.764  0.00  0.00    +0.210 HD
ENDBRANCH  45  49
BRANCH  44  51
ATOM     51  O   UNL     1      10.041  -2.750  24.196  0.00  0.00    -0.384 OA
ATOM     52  H   UNL     1      10.679  -3.450  23.972  0.00  0.00    +0.210 HD
ENDBRANCH  44  51
ENDBRANCH  40  43
ENDBRANCH   1  40
TORSDOF 16
ENDMDL
MODEL 3
REMARK VINA RESULT:      -7.1      1.983      2.652
REMARK  Name = 
REMARK  16 active torsions:
REMARK  status: ('A' for Active; 'I' for Inactive)
REMARK    1  A    between atoms: C_2  and  O_51
REMARK    2  A    between atoms: C_4  and  O_50
REMARK    3  A    between atoms: C_6  and  O_49
REMARK    4  A    between atoms: C_8  and  O_11
REMARK    5  A    between atoms: O_11  and  C_12
REMARK    6  A    between atoms: C_14  and  O_48
REMARK    7  A    between atoms: C_16  and  O_47
REMARK    8  A    between atoms: C_18  and  C_45
REMARK    9  A    between atoms: C_21  and  O_23
REMARK   10  A    between atoms: O_23  and  C_24
REMARK   11  A    between atoms: C_25  and  C_37
REMARK   12  A    between atoms: C_29  and  O_36
REMARK   13  A    between atoms: C_31  and  O_35
REMARK   14  A    between atoms: C_39  and  O_44
REMARK   15  A    between atoms: C_40  and  O_43
REMARK   16  A    between atoms: C_45  and  O_46
REMARK                            x       y       z     vdW  Elec       q    Type
REMARK                         _______ _______ _______ _____ _____    ______ ____
ROOT
ATOM      1  C   UNL     1       7.698  -1.035  23.123  0.00  0.00    +0.221 C 
ATOM      2  C   UNL     1       6.809  -2.298  23.501  0.00  0.00    +0.340 C 
ATOM      3  O   UNL     1       7.464  -2.978  24.601  0.00  0.00    -0.331 OA
ATOM      4  C   UNL     1       8.721  -3.579  24.208  0.00  0.00    +0.179 C 
ATOM      5  C   UNL     1       9.661  -2.477  23.738  0.00  0.00    +0.177 C 
ATOM      6  C   UNL     1       8.970  -1.821  22.528  0.00  0.00    +0.180 C 
ENDROOT
BRANCH   6   7
ATOM      7  O   UNL     1      10.016  -1.234  21.752  0.00  0.00    -0.386 OA
ATOM      8  H   UNL     1      10.843  -1.716  21.959  0.00  0.00    +0.210 HD
ENDBRANCH   6   7
BRANCH   5   9
ATOM      9  O   UNL     1      10.943  -2.963  23.360  0.00  0.00    -0.386 OA
ATOM     10  H   UNL     1      11.092  -3.722  23.966  0.00  0.00    +0.210 HD
ENDBRANCH   5   9
BRANCH   4  11
ATOM     11  C   UNL     1       9.350  -4.401  25.339  0.00  0.00    +0.190 C 
BRANCH  11  12
ATOM     12  O   UNL     1      10.382  -5.267  24.863  0.00  0.00    -0.392 OA
ATOM     13  H   UNL     1      11.101  -5.268  25.523  0.00  0.00    +0.210 HD
ENDBRANCH  11  12
ENDBRANCH   4  11
BRANCH   2  14
ATOM     14  O   UNL     1       5.428  -2.029  23.789  0.00  0.00    -0.453 OA
BRANCH  14  15
ATOM     15  C   UNL     1       4.740  -3.026  24.514  0.00  0.00    +0.214 A 
ATOM     16  C   UNL     1       4.219  -4.273  23.821  0.00  0.00    +0.238 A 
ATOM     17  O   UNL     1       4.292  -4.442  22.610  0.00  0.00    -0.283 OA
ATOM     18  C   UNL     1       3.567  -5.310  24.623  0.00  0.00    +0.109 A 
ATOM     19  C   UNL     1       3.453  -5.097  25.980  0.00  0.00    +0.147 A 
ATOM     20  C   UNL     1       2.883  -6.084  26.798  0.00  0.00    +0.092 A 
ATOM     21  C   UNL     1       2.415  -7.261  26.226  0.00  0.00    +0.124 A 
ATOM     22  C   UNL     1       2.465  -7.462  24.848  0.00  0.00    +0.091 A 
ATOM     23  O   UNL     1       3.856  -3.935  26.583  0.00  0.00    -0.451 OA
ATOM     24  C   UNL     1       3.045  -6.483  24.048  0.00  0.00    +0.135 A 
ATOM     25  C   UNL     1       4.460  -2.903  25.836  0.00  0.00    +0.181 A 
BRANCH  25  26
ATOM     26  C   UNL     1       4.677  -1.678  26.698  0.00  0.00    +0.025 A 
ATOM     27  C   UNL     1       3.571  -0.881  27.089  0.00  0.00    +0.015 A 
ATOM     28  C   UNL     1       3.724   0.326  27.790  0.00  0.00    +0.050 A 
ATOM     29  C   UNL     1       4.995   0.761  28.113  0.00  0.00    +0.158 A 
ATOM     30  C   UNL     1       6.101  -0.005  27.773  0.00  0.00    +0.159 A 
ATOM     31  C   UNL     1       5.948  -1.211  27.084  0.00  0.00    +0.060 A 
BRANCH  29  32
ATOM     32  O   UNL     1       5.157   1.956  28.751  0.00  0.00    -0.503 OA
ATOM     33  H   UNL     1       5.651   2.510  28.114  0.00  0.00    +0.292 HD
ENDBRANCH  29  32
BRANCH  30  34
ATOM     34  O   UNL     1       7.339   0.472  28.111  0.00  0.00    -0.503 OA
ATOM     35  H   UNL     1       7.217   1.217  28.729  0.00  0.00    +0.292 HD
ENDBRANCH  30  34
ENDBRANCH  25  26
BRANCH  24  36
ATOM     36  O   UNL     1       3.057  -6.693  22.698  0.00  0.00    -0.506 OA
ATOM     37  H   UNL     1       2.171  -6.583  22.317  0.00  0.00    +0.292 HD
ENDBRANCH  24  36
BRANCH  21  38
ATOM     38  O   UNL     1       1.861  -8.267  26.965  0.00  0.00    -0.507 OA
ATOM     39  H   UNL     1       1.341  -8.837  26.381  0.00  0.00    +0.292 HD
ENDBRANCH  21  38
ENDBRANCH  14  15
ENDBRANCH   2  14
BRANCH   1  40
ATOM     40  O   UNL     1       6.975  -0.150  22.252  0.00  0.00    -0.337 OA
BRANCH  40  43
ATOM     41  C   UNL     1       6.925   1.945  24.861  0.00  0.00    +0.197 C 
ATOM     42  O   UNL     1       6.219   1.774  23.627  0.00  0.00    -0.346 OA
ATOM     43  C   UNL     1       6.924   1.292  22.484  0.00  0.00    +0.282 C 
ATOM     44  C   UNL     1       8.280   2.001  22.287  0.00  0.00    +0.201 C 
ATOM     45  C   UNL     1       9.058   1.656  23.530  0.00  0.00    +0.178 C 
ATOM     46  C   UNL     1       8.457   2.049  24.857  0.00  0.00    +0.171 C 
BRANCH  46  47
ATOM     47  O   UNL     1       8.986   1.112  25.829  0.00  0.00    -0.387 OA
ATOM     48  H   UNL     1       9.680   1.552  26.347  0.00  0.00    +0.210 HD
ENDBRANCH  46  47
BRANCH  45  49
ATOM     49  O   UNL     1      10.461   1.864  23.462  0.00  0.00    -0.386 OA
ATOM     50  H   UNL     1      10.813   1.325  24.204  0.00  0.00    +0.210 HD
ENDBRANCH  45  49
BRANCH  44  51
ATOM     51  O   UNL     1       8.934   1.498  21.110  0.00  0.00    -0.384 OA
ATOM     52  H   UNL     1       9.894   1.601  21.241  0.00  0.00    +0.210 HD
ENDBRANCH  44  51
ENDBRANCH  40  43
ENDBRANCH   1  40
TORSDOF 16
ENDMDL
MODEL 4
REMARK VINA RESULT:      -6.9      1.921      4.843
REMARK  Name = 
REMARK  16 active torsions:
REMARK  status: ('A' for Active; 'I' for Inactive)
REMARK    1  A    between atoms: C_2  and  O_51
REMARK    2  A    between atoms: C_4  and  O_50
REMARK    3  A    between atoms: C_6  and  O_49
REMARK    4  A    between atoms: C_8  and  O_11
REMARK    5  A    between atoms: O_11  and  C_12
REMARK    6  A    between atoms: C_14  and  O_48
REMARK    7  A    between atoms: C_16  and  O_47
REMARK    8  A    between atoms: C_18  and  C_45
REMARK    9  A    between atoms: C_21  and  O_23
REMARK   10  A    between atoms: O_23  and  C_24
REMARK   11  A    between atoms: C_25  and  C_37
REMARK   12  A    between atoms: C_29  and  O_36
REMARK   13  A    between atoms: C_31  and  O_35
REMARK   14  A    between atoms: C_39  and  O_44
REMARK   15  A    between atoms: C_40  and  O_43
REMARK   16  A    between atoms: C_45  and  O_46
REMARK                            x       y       z     vdW  Elec       q    Type
REMARK                         _______ _______ _______ _____ _____    ______ ____
ROOT
ATOM      1  C   UNL     1       6.154   1.952  26.621  0.00  0.00    +0.221 C 
ATOM      2  C   UNL     1       5.999   0.430  26.185  0.00  0.00    +0.340 C 
ATOM      3  O   UNL     1       5.001  -0.170  27.047  0.00  0.00    -0.331 OA
ATOM      4  C   UNL     1       5.449  -0.276  28.420  0.00  0.00    +0.179 C 
ATOM      5  C   UNL     1       5.720   1.124  28.953  0.00  0.00    +0.177 C 
ATOM      6  C   UNL     1       6.831   1.708  28.060  0.00  0.00    +0.180 C 
ENDROOT
BRANCH   6   7
ATOM      7  O   UNL     1       7.479   2.707  28.849  0.00  0.00    -0.386 OA
ATOM      8  H   UNL     1       7.036   2.728  29.722  0.00  0.00    +0.210 HD
ENDBRANCH   6   7
BRANCH   5   9
ATOM      9  O   UNL     1       6.135   1.131  30.313  0.00  0.00    -0.386 OA
ATOM     10  H   UNL     1       6.263   0.180  30.522  0.00  0.00    +0.210 HD
ENDBRANCH   5   9
BRANCH   4  11
ATOM     11  C   UNL     1       4.443  -1.023  29.303  0.00  0.00    +0.190 C 
BRANCH  11  12
ATOM     12  O   UNL     1       4.013  -2.248  28.707  0.00  0.00    -0.392 OA
ATOM     13  H   UNL     1       3.187  -2.070  28.218  0.00  0.00    +0.210 HD
ENDBRANCH  11  12
ENDBRANCH   4  11
BRANCH   2  14
ATOM     14  O   UNL     1       5.708   0.203  24.797  0.00  0.00    -0.453 OA
BRANCH  14  15
ATOM     15  C   UNL     1       6.054  -1.069  24.291  0.00  0.00    +0.214 A 
ATOM     16  C   UNL     1       5.106  -2.247  24.430  0.00  0.00    +0.238 A 
ATOM     17  O   UNL     1       4.049  -2.183  25.046  0.00  0.00    -0.283 OA
ATOM     18  C   UNL     1       5.479  -3.531  23.834  0.00  0.00    +0.109 A 
ATOM     19  C   UNL     1       6.687  -3.609  23.176  0.00  0.00    +0.147 A 
ATOM     20  C   UNL     1       7.066  -4.803  22.544  0.00  0.00    +0.092 A 
ATOM     21  C   UNL     1       6.225  -5.908  22.610  0.00  0.00    +0.124 A 
ATOM     22  C   UNL     1       5.031  -5.864  23.328  0.00  0.00    +0.091 A 
ATOM     23  O   UNL     1       7.570  -2.563  23.124  0.00  0.00    -0.451 OA
ATOM     24  C   UNL     1       4.659  -4.670  23.938  0.00  0.00    +0.135 A 
ATOM     25  C   UNL     1       7.256  -1.321  23.713  0.00  0.00    +0.181 A 
BRANCH  25  26
ATOM     26  C   UNL     1       8.443  -0.384  23.647  0.00  0.00    +0.025 A 
ATOM     27  C   UNL     1       9.273  -0.211  24.785  0.00  0.00    +0.015 A 
ATOM     28  C   UNL     1      10.318   0.726  24.819  0.00  0.00    +0.050 A 
ATOM     29  C   UNL     1      10.550   1.516  23.709  0.00  0.00    +0.158 A 
ATOM     30  C   UNL     1       9.778   1.357  22.566  0.00  0.00    +0.159 A 
ATOM     31  C   UNL     1       8.746   0.416  22.530  0.00  0.00    +0.060 A 
BRANCH  29  32
ATOM     32  O   UNL     1      11.530   2.463  23.749  0.00  0.00    -0.503 OA
ATOM     33  H   UNL     1      11.064   3.307  23.581  0.00  0.00    +0.292 HD
ENDBRANCH  29  32
BRANCH  30  34
ATOM     34  O   UNL     1      10.046   2.166  21.495  0.00  0.00    -0.503 OA
ATOM     35  H   UNL     1       9.476   1.886  20.755  0.00  0.00    +0.292 HD
ENDBRANCH  30  34
ENDBRANCH  25  26
BRANCH  24  36
ATOM     36  O   UNL     1       3.497  -4.662  24.657  0.00  0.00    -0.506 OA
ATOM     37  H   UNL     1       3.571  -5.216  25.451  0.00  0.00    +0.292 HD
ENDBRANCH  24  36
BRANCH  21  38
ATOM     38  O   UNL     1       6.526  -7.096  22.008  0.00  0.00    -0.507 OA
ATOM     39  H   UNL     1       7.438  -7.336  22.223  0.00  0.00    +0.292 HD
ENDBRANCH  21  38
ENDBRANCH  14  15
ENDBRANCH   2  14
BRANCH   1  40
ATOM     40  O   UNL     1       6.896   2.687  25.635  0.00  0.00    -0.337 OA
BRANCH  40  43
ATOM     41  C   UNL     1       8.295   5.642  24.924  0.00  0.00    +0.197 C 
ATOM     42  O   UNL     1       7.163   5.155  25.652  0.00  0.00    -0.346 OA
ATOM     43  C   UNL     1       6.469   4.004  25.170  0.00  0.00    +0.282 C 
ATOM     44  C   UNL     1       6.203   4.072  23.652  0.00  0.00    +0.201 C 
ATOM     45  C   UNL     1       7.579   4.113  23.039  0.00  0.00    +0.178 C 
ATOM     46  C   UNL     1       8.491   5.241  23.455  0.00  0.00    +0.171 C 
BRANCH  46  47
ATOM     47  O   UNL     1       9.843   4.744  23.287  0.00  0.00    -0.387 OA
ATOM     48  H   UNL     1      10.234   4.590  24.163  0.00  0.00    +0.210 HD
ENDBRANCH  46  47
BRANCH  45  49
ATOM     49  O   UNL     1       7.652   3.808  21.655  0.00  0.00    -0.386 OA
ATOM     50  H   UNL     1       7.242   2.919  21.589  0.00  0.00    +0.210 HD
ENDBRANCH  45  49
BRANCH  44  51
ATOM     51  O   UNL     1       5.480   2.905  23.225  0.00  0.00    -0.384 OA
ATOM     52  H   UNL     1       5.863   2.138  23.688  0.00  0.00    +0.210 HD
ENDBRANCH  44  51
ENDBRANCH  40  43
ENDBRANCH   1  40
TORSDOF 16
ENDMDL
MODEL 5
REMARK VINA RESULT:      -6.9      2.343      9.072
REMARK  Name = 
REMARK  16 active torsions:
REMARK  status: ('A' for Active; 'I' for Inactive)
REMARK    1  A    between atoms: C_2  and  O_51
REMARK    2  A    between atoms: C_4  and  O_50
REMARK    3  A    between atoms: C_6  and  O_49
REMARK    4  A    between atoms: C_8  and  O_11
REMARK    5  A    between atoms: O_11  and  C_12
REMARK    6  A    between atoms: C_14  and  O_48
REMARK    7  A    between atoms: C_16  and  O_47
REMARK    8  A    between atoms: C_18  and  C_45
REMARK    9  A    between atoms: C_21  and  O_23
REMARK   10  A    between atoms: O_23  and  C_24
REMARK   11  A    between atoms: C_25  and  C_37
REMARK   12  A    between atoms: C_29  and  O_36
REMARK   13  A    between atoms: C_31  and  O_35
REMARK   14  A    between atoms: C_39  and  O_44
REMARK   15  A    between atoms: C_40  and  O_43
REMARK   16  A    between atoms: C_45  and  O_46
REMARK                            x       y       z     vdW  Elec       q    Type
REMARK                         _______ _______ _______ _____ _____    ______ ____
ROOT
ATOM      1  C   UNL     1       4.195  -2.854  27.205  0.00  0.00    +0.221 C 
ATOM      2  C   UNL     1       5.085  -1.663  26.640  0.00  0.00    +0.340 C 
ATOM      3  O   UNL     1       4.805  -0.489  27.443  0.00  0.00    -0.331 OA
ATOM      4  C   UNL     1       3.456   0.002  27.251  0.00  0.00    +0.179 C 
ATOM      5  C   UNL     1       2.478  -1.083  27.682  0.00  0.00    +0.177 C 
ATOM      6  C   UNL     1       2.754  -2.289  26.765  0.00  0.00    +0.180 C 
ENDROOT
BRANCH   6   7
ATOM      7  O   UNL     1       1.542  -3.046  26.741  0.00  0.00    -0.386 OA
ATOM      8  H   UNL     1       1.013  -2.732  25.979  0.00  0.00    +0.210 HD
ENDBRANCH   6   7
BRANCH   5   9
ATOM      9  O   UNL     1       1.118  -0.684  27.564  0.00  0.00    -0.386 OA
ATOM     10  H   UNL     1       0.642  -1.298  28.164  0.00  0.00    +0.210 HD
ENDBRANCH   5   9
BRANCH   4  11
ATOM     11  C   UNL     1       3.203   1.311  28.006  0.00  0.00    +0.190 C 
BRANCH  11  12
ATOM     12  O   UNL     1       2.687   1.082  29.319  0.00  0.00    -0.392 OA
ATOM     13  H   UNL     1       3.397   1.281  29.958  0.00  0.00    +0.210 HD
ENDBRANCH  11  12
ENDBRANCH   4  11
BRANCH   2  14
ATOM     14  O   UNL     1       6.495  -1.922  26.551  0.00  0.00    -0.453 OA
BRANCH  14  15
ATOM     15  C   UNL     1       7.189  -1.236  25.531  0.00  0.00    +0.214 A 
ATOM     16  C   UNL     1       7.593   0.217  25.704  0.00  0.00    +0.238 A 
ATOM     17  O   UNL     1       7.277   0.885  26.682  0.00  0.00    -0.283 OA
ATOM     18  C   UNL     1       8.367   0.869  24.646  0.00  0.00    +0.109 A 
ATOM     19  C   UNL     1       8.687   0.126  23.531  0.00  0.00    +0.147 A 
ATOM     20  C   UNL     1       9.471   0.690  22.514  0.00  0.00    +0.092 A 
ATOM     21  C   UNL     1       9.898   2.007  22.631  0.00  0.00    +0.124 A 
ATOM     22  C   UNL     1       9.527   2.792  23.721  0.00  0.00    +0.091 A 
ATOM     23  O   UNL     1       8.251  -1.160  23.349  0.00  0.00    -0.451 OA
ATOM     24  C   UNL     1       8.762   2.218  24.731  0.00  0.00    +0.135 A 
ATOM     25  C   UNL     1       7.478  -1.809  24.334  0.00  0.00    +0.181 A 
BRANCH  25  26
ATOM     26  C   UNL     1       7.002  -3.156  23.837  0.00  0.00    +0.025 A 
ATOM     27  C   UNL     1       7.940  -4.190  23.584  0.00  0.00    +0.015 A 
ATOM     28  C   UNL     1       7.570  -5.420  23.016  0.00  0.00    +0.050 A 
ATOM     29  C   UNL     1       6.246  -5.637  22.684  0.00  0.00    +0.158 A 
ATOM     30  C   UNL     1       5.294  -4.661  22.942  0.00  0.00    +0.159 A 
ATOM     31  C   UNL     1       5.661  -3.442  23.518  0.00  0.00    +0.060 A 
BRANCH  29  32
ATOM     32  O   UNL     1       5.884  -6.808  22.087  0.00  0.00    -0.503 OA
ATOM     33  H   UNL     1       5.206  -6.550  21.430  0.00  0.00    +0.292 HD
ENDBRANCH  29  32
BRANCH  30  34
ATOM     34  O   UNL     1       3.997  -4.923  22.591  0.00  0.00    -0.503 OA
ATOM     35  H   UNL     1       3.979  -5.773  22.114  0.00  0.00    +0.292 HD
ENDBRANCH  30  34
ENDBRANCH  25  26
BRANCH  24  36
ATOM     36  O   UNL     1       8.390   3.016  25.776  0.00  0.00    -0.506 OA
ATOM     37  H   UNL     1       8.279   2.499  26.590  0.00  0.00    +0.292 HD
ENDBRANCH  24  36
BRANCH  21  38
ATOM     38  O   UNL     1      10.673   2.614  21.684  0.00  0.00    -0.507 OA
ATOM     39  H   UNL     1      10.367   2.345  20.807  0.00  0.00    +0.292 HD
ENDBRANCH  21  38
ENDBRANCH  14  15
ENDBRANCH   2  14
BRANCH   1  40
ATOM     40  O   UNL     1       4.630  -4.111  26.664  0.00  0.00    -0.337 OA
BRANCH  40  43
ATOM     41  C   UNL     1       2.078  -6.216  27.166  0.00  0.00    +0.197 C 
ATOM     42  O   UNL     1       3.107  -5.595  27.945  0.00  0.00    -0.346 OA
ATOM     43  C   UNL     1       4.387  -5.375  27.355  0.00  0.00    +0.282 C 
ATOM     44  C   UNL     1       4.900  -6.611  26.587  0.00  0.00    +0.201 C 
ATOM     45  C   UNL     1       3.882  -6.815  25.496  0.00  0.00    +0.178 C 
ATOM     46  C   UNL     1       2.448  -7.026  25.915  0.00  0.00    +0.171 C 
BRANCH  46  47
ATOM     47  O   UNL     1       1.635  -6.564  24.807  0.00  0.00    -0.387 OA
ATOM     48  H   UNL     1       1.219  -7.330  24.380  0.00  0.00    +0.210 HD
ENDBRANCH  46  47
BRANCH  45  49
ATOM     49  O   UNL     1       4.284  -7.648  24.419  0.00  0.00    -0.386 OA
ATOM     50  H   UNL     1       4.951  -8.245  24.822  0.00  0.00    +0.210 HD
ENDBRANCH  45  49
BRANCH  44  51
ATOM     51  O   UNL     1       6.202  -6.345  26.038  0.00  0.00    -0.384 OA
ATOM     52  H   UNL     1       6.170  -5.466  25.620  0.00  0.00    +0.210 HD
ENDBRANCH  44  51
ENDBRANCH  40  43
ENDBRANCH   1  40
TORSDOF 16
ENDMDL
MODEL 6
REMARK VINA RESULT:      -6.9      2.325      8.220
REMARK  Name = 
REMARK  16 active torsions:
REMARK  status: ('A' for Active; 'I' for Inactive)
REMARK    1  A    between atoms: C_2  and  O_51
REMARK    2  A    between atoms: C_4  and  O_50
REMARK    3  A    between atoms: C_6  and  O_49
REMARK    4  A    between atoms: C_8  and  O_11
REMARK    5  A    between atoms: O_11  and  C_12
REMARK    6  A    between atoms: C_14  and  O_48
REMARK    7  A    between atoms: C_16  and  O_47
REMARK    8  A    between atoms: C_18  and  C_45
REMARK    9  A    between atoms: C_21  and  O_23
REMARK   10  A    between atoms: O_23  and  C_24
REMARK   11  A    between atoms: C_25  and  C_37
REMARK   12  A    between atoms: C_29  and  O_36
REMARK   13  A    between atoms: C_31  and  O_35
REMARK   14  A    between atoms: C_39  and  O_44
REMARK   15  A    between atoms: C_40  and  O_43
REMARK   16  A    between atoms: C_45  and  O_46
REMARK                            x       y       z     vdW  Elec       q    Type
REMARK                         _______ _______ _______ _____ _____    ______ ____
ROOT
ATOM      1  C   UNL     1       5.069  -4.988  26.325  0.00  0.00    +0.221 C 
ATOM      2  C   UNL     1       6.450  -4.522  25.689  0.00  0.00    +0.340 C 
ATOM      3  O   UNL     1       6.214  -4.247  24.286  0.00  0.00    -0.331 OA
ATOM      4  C   UNL     1       5.904  -5.445  23.533  0.00  0.00    +0.179 C 
ATOM      5  C   UNL     1       4.626  -6.055  24.093  0.00  0.00    +0.177 C 
ATOM      6  C   UNL     1       4.933  -6.399  25.563  0.00  0.00    +0.180 C 
ENDROOT
BRANCH   6   7
ATOM      7  O   UNL     1       4.024  -7.444  25.916  0.00  0.00    -0.386 OA
ATOM      8  H   UNL     1       3.345  -7.495  25.212  0.00  0.00    +0.210 HD
ENDBRANCH   6   7
BRANCH   5   9
ATOM      9  O   UNL     1       4.216  -7.224  23.396  0.00  0.00    -0.386 OA
ATOM     10  H   UNL     1       4.440  -7.027  22.460  0.00  0.00    +0.210 HD
ENDBRANCH   5   9
BRANCH   4  11
ATOM     11  C   UNL     1       5.776  -5.169  22.031  0.00  0.00    +0.190 C 
BRANCH  11  12
ATOM     12  O   UNL     1       5.776  -6.374  21.263  0.00  0.00    -0.392 OA
ATOM     13  H   UNL     1       6.325  -6.224  20.469  0.00  0.00    +0.210 HD
ENDBRANCH  11  12
ENDBRANCH   4  11
BRANCH   2  14
ATOM     14  O   UNL     1       7.102  -3.422  26.343  0.00  0.00    -0.453 OA
BRANCH  14  15
ATOM     15  C   UNL     1       7.371  -2.294  25.539  0.00  0.00    +0.214 A 
ATOM     16  C   UNL     1       8.539  -2.289  24.568  0.00  0.00    +0.238 A 
ATOM     17  O   UNL     1       9.343  -3.210  24.489  0.00  0.00    -0.283 OA
ATOM     18  C   UNL     1       8.742  -1.122  23.709  0.00  0.00    +0.109 A 
ATOM     19  C   UNL     1       7.858  -0.071  23.829  0.00  0.00    +0.147 A 
ATOM     20  C   UNL     1       7.981   1.047  22.992  0.00  0.00    +0.092 A 
ATOM     21  C   UNL     1       9.012   1.096  22.062  0.00  0.00    +0.124 A 
ATOM     22  C   UNL     1       9.952   0.071  21.973  0.00  0.00    +0.091 A 
ATOM     23  O   UNL     1       6.855  -0.052  24.763  0.00  0.00    -0.451 OA
ATOM     24  C   UNL     1       9.813  -1.040  22.799  0.00  0.00    +0.135 A 
ATOM     25  C   UNL     1       6.650  -1.147  25.627  0.00  0.00    +0.181 A 
BRANCH  25  26
ATOM     26  C   UNL     1       5.585  -0.824  26.653  0.00  0.00    +0.025 A 
ATOM     27  C   UNL     1       5.920  -0.073  27.809  0.00  0.00    +0.015 A 
ATOM     28  C   UNL     1       5.003   0.160  28.847  0.00  0.00    +0.050 A 
ATOM     29  C   UNL     1       3.727  -0.362  28.748  0.00  0.00    +0.158 A 
ATOM     30  C   UNL     1       3.353  -1.078  27.619  0.00  0.00    +0.159 A 
ATOM     31  C   UNL     1       4.262  -1.300  26.582  0.00  0.00    +0.060 A 
BRANCH  29  32
ATOM     32  O   UNL     1       2.845  -0.183  29.772  0.00  0.00    -0.503 OA
ATOM     33  H   UNL     1       2.636   0.772  29.753  0.00  0.00    +0.292 HD
ENDBRANCH  29  32
BRANCH  30  34
ATOM     34  O   UNL     1       2.079  -1.578  27.572  0.00  0.00    -0.503 OA
ATOM     35  H   UNL     1       1.895  -1.850  26.654  0.00  0.00    +0.292 HD
ENDBRANCH  30  34
ENDBRANCH  25  26
BRANCH  24  36
ATOM     36  O   UNL     1      10.763  -2.018  22.710  0.00  0.00    -0.506 OA
ATOM     37  H   UNL     1      11.440  -1.792  22.053  0.00  0.00    +0.292 HD
ENDBRANCH  24  36
BRANCH  21  38
ATOM     38  O   UNL     1       9.181   2.148  21.208  0.00  0.00    -0.507 OA
ATOM     39  H   UNL     1       9.023   2.973  21.689  0.00  0.00    +0.292 HD
ENDBRANCH  21  38
ENDBRANCH  14  15
ENDBRANCH   2  14
BRANCH   1  40
ATOM     40  O   UNL     1       5.149  -4.992  27.759  0.00  0.00    -0.337 OA
BRANCH  40  43
ATOM     41  C   UNL     1       1.830  -5.423  27.806  0.00  0.00    +0.197 C 
ATOM     42  O   UNL     1       2.761  -4.347  27.970  0.00  0.00    -0.346 OA
ATOM     43  C   UNL     1       4.017  -4.603  28.597  0.00  0.00    +0.282 C 
ATOM     44  C   UNL     1       3.871  -5.450  29.878  0.00  0.00    +0.201 C 
ATOM     45  C   UNL     1       3.286  -6.751  29.394  0.00  0.00    +0.178 C 
ATOM     46  C   UNL     1       1.968  -6.690  28.662  0.00  0.00    +0.171 C 
BRANCH  46  47
ATOM     47  O   UNL     1       1.941  -7.845  27.787  0.00  0.00    -0.387 OA
ATOM     48  H   UNL     1       1.807  -8.644  28.323  0.00  0.00    +0.210 HD
ENDBRANCH  46  47
BRANCH  45  49
ATOM     49  O   UNL     1       3.385  -7.848  30.289  0.00  0.00    -0.386 OA
ATOM     50  H   UNL     1       3.770  -8.564  29.739  0.00  0.00    +0.210 HD
ENDBRANCH  45  49
BRANCH  44  51
ATOM     51  O   UNL     1       5.160  -5.655  30.482  0.00  0.00    -0.384 OA
ATOM     52  H   UNL     1       5.039  -5.625  31.448  0.00  0.00    +0.210 HD
ENDBRANCH  44  51
ENDBRANCH  40  43
ENDBRANCH   1  40
TORSDOF 16
ENDMDL
MODEL 7
REMARK VINA RESULT:      -6.9      2.476      8.687
REMARK  Name = 
REMARK  16 active torsions:
REMARK  status: ('A' for Active; 'I' for Inactive)
REMARK    1  A    between atoms: C_2  and  O_51
REMARK    2  A    between atoms: C_4  and  O_50
REMARK    3  A    between atoms: C_6  and  O_49
REMARK    4  A    between atoms: C_8  and  O_11
REMARK    5  A    between atoms: O_11  and  C_12
REMARK    6  A    between atoms: C_14  and  O_48
REMARK    7  A    between atoms: C_16  and  O_47
REMARK    8  A    between atoms: C_18  and  C_45
REMARK    9  A    between atoms: C_21  and  O_23
REMARK   10  A    between atoms: O_23  and  C_24
REMARK   11  A    between atoms: C_25  and  C_37
REMARK   12  A    between atoms: C_29  and  O_36
REMARK   13  A    between atoms: C_31  and  O_35
REMARK   14  A    between atoms: C_39  and  O_44
REMARK   15  A    between atoms: C_40  and  O_43
REMARK   16  A    between atoms: C_45  and  O_46
REMARK                            x       y       z     vdW  Elec       q    Type
REMARK                         _______ _______ _______ _____ _____    ______ ____
ROOT
ATOM      1  C   UNL     1       4.935  -4.126  26.283  0.00  0.00    +0.221 C 
ATOM      2  C   UNL     1       5.902  -2.872  26.137  0.00  0.00    +0.340 C 
ATOM      3  O   UNL     1       7.197  -3.367  25.716  0.00  0.00    -0.331 OA
ATOM      4  C   UNL     1       7.848  -4.153  26.743  0.00  0.00    +0.179 C 
ATOM      5  C   UNL     1       6.980  -5.366  27.050  0.00  0.00    +0.177 C 
ATOM      6  C   UNL     1       5.639  -4.808  27.559  0.00  0.00    +0.180 C 
ENDROOT
BRANCH   6   7
ATOM      7  O   UNL     1       5.067  -5.840  28.365  0.00  0.00    -0.386 OA
ATOM      8  H   UNL     1       4.352  -6.260  27.843  0.00  0.00    +0.210 HD
ENDBRANCH   6   7
BRANCH   5   9
ATOM      9  O   UNL     1       7.552  -6.226  28.029  0.00  0.00    -0.386 OA
ATOM     10  H   UNL     1       6.808  -6.403  28.645  0.00  0.00    +0.210 HD
ENDBRANCH   5   9
BRANCH   4  11
ATOM     11  C   UNL     1       9.267  -4.571  26.342  0.00  0.00    +0.190 C 
BRANCH  11  12
ATOM     12  O   UNL     1       9.273  -5.777  25.575  0.00  0.00    -0.392 OA
ATOM     13  H   UNL     1       9.467  -6.517  26.182  0.00  0.00    +0.210 HD
ENDBRANCH  11  12
ENDBRANCH   4  11
BRANCH   2  14
ATOM     14  O   UNL     1       5.434  -1.816  25.282  0.00  0.00    -0.453 OA
BRANCH  14  15
ATOM     15  C   UNL     1       6.430  -1.015  24.684  0.00  0.00    +0.214 A 
ATOM     16  C   UNL     1       6.688   0.401  25.171  0.00  0.00    +0.238 A 
ATOM     17  O   UNL     1       6.007   0.943  26.033  0.00  0.00    -0.283 OA
ATOM     18  C   UNL     1       7.774   1.173  24.564  0.00  0.00    +0.109 A 
ATOM     19  C   UNL     1       8.511   0.572  23.567  0.00  0.00    +0.147 A 
ATOM     20  C   UNL     1       9.595   1.252  22.990  0.00  0.00    +0.092 A 
ATOM     21  C   UNL     1       9.899   2.540  23.416  0.00  0.00    +0.124 A 
ATOM     22  C   UNL     1       9.122   3.184  24.377  0.00  0.00    +0.091 A 
ATOM     23  O   UNL     1       8.221  -0.676  23.081  0.00  0.00    -0.451 OA
ATOM     24  C   UNL     1       8.058   2.495  24.951  0.00  0.00    +0.135 A 
ATOM     25  C   UNL     1       7.163  -1.435  23.622  0.00  0.00    +0.181 A 
BRANCH  25  26
ATOM     26  C   UNL     1       6.956  -2.704  22.823  0.00  0.00    +0.025 A 
ATOM     27  C   UNL     1       5.887  -2.790  21.895  0.00  0.00    +0.015 A 
ATOM     28  C   UNL     1       5.577  -3.976  21.211  0.00  0.00    +0.050 A 
ATOM     29  C   UNL     1       6.335  -5.108  21.449  0.00  0.00    +0.158 A 
ATOM     30  C   UNL     1       7.407  -5.056  22.329  0.00  0.00    +0.159 A 
ATOM     31  C   UNL     1       7.720  -3.872  23.001  0.00  0.00    +0.060 A 
BRANCH  29  32
ATOM     32  O   UNL     1       6.012  -6.278  20.827  0.00  0.00    -0.503 OA
ATOM     33  H   UNL     1       6.827  -6.816  20.877  0.00  0.00    +0.292 HD
ENDBRANCH  29  32
BRANCH  30  34
ATOM     34  O   UNL     1       8.123  -6.205  22.533  0.00  0.00    -0.503 OA
ATOM     35  H   UNL     1       8.922  -6.166  21.976  0.00  0.00    +0.292 HD
ENDBRANCH  30  34
ENDBRANCH  25  26
BRANCH  24  36
ATOM     36  O   UNL     1       7.297   3.159  25.871  0.00  0.00    -0.506 OA
ATOM     37  H   UNL     1       7.524   4.102  25.901  0.00  0.00    +0.292 HD
ENDBRANCH  24  36
BRANCH  21  38
ATOM     38  O   UNL     1      10.946   3.253  22.907  0.00  0.00    -0.507 OA
ATOM     39  H   UNL     1      10.773   4.197  23.028  0.00  0.00    +0.292 HD
ENDBRANCH  21  38
ENDBRANCH  14  15
ENDBRANCH   2  14
BRANCH   1  40
ATOM     40  O   UNL     1       3.569  -3.699  26.404  0.00  0.00    -0.337 OA
BRANCH  40  43
ATOM     41  C   UNL     1       3.194  -5.207  23.440  0.00  0.00    +0.197 C 
ATOM     42  O   UNL     1       2.525  -4.200  24.208  0.00  0.00    -0.346 OA
ATOM     43  C   UNL     1       2.494  -4.316  25.631  0.00  0.00    +0.282 C 
ATOM     44  C   UNL     1       2.133  -5.743  26.095  0.00  0.00    +0.201 C 
ATOM     45  C   UNL     1       3.247  -6.599  25.553  0.00  0.00    +0.178 C 
ATOM     46  C   UNL     1       3.472  -6.583  24.061  0.00  0.00    +0.171 C 
BRANCH  46  47
ATOM     47  O   UNL     1       4.872  -6.905  23.864  0.00  0.00    -0.387 OA
ATOM     48  H   UNL     1       5.415  -6.264  24.352  0.00  0.00    +0.210 HD
ENDBRANCH  46  47
BRANCH  45  49
ATOM     49  O   UNL     1       3.376  -7.890  26.130  0.00  0.00    -0.386 OA
ATOM     50  H   UNL     1       2.762  -8.443  25.602  0.00  0.00    +0.210 HD
ENDBRANCH  45  49
BRANCH  44  51
ATOM     51  O   UNL     1       2.090  -5.797  27.531  0.00  0.00    -0.384 OA
ATOM     52  H   UNL     1       2.997  -5.963  27.846  0.00  0.00    +0.210 HD
ENDBRANCH  44  51
ENDBRANCH  40  43
ENDBRANCH   1  40
TORSDOF 16
ENDMDL
MODEL 8
REMARK VINA RESULT:      -6.8      2.068      7.637
REMARK  Name = 
REMARK  16 active torsions:
REMARK  status: ('A' for Active; 'I' for Inactive)
REMARK    1  A    between atoms: C_2  and  O_51
REMARK    2  A    between atoms: C_4  and  O_50
REMARK    3  A    between atoms: C_6  and  O_49
REMARK    4  A    between atoms: C_8  and  O_11
REMARK    5  A    between atoms: O_11  and  C_12
REMARK    6  A    between atoms: C_14  and  O_48
REMARK    7  A    between atoms: C_16  and  O_47
REMARK    8  A    between atoms: C_18  and  C_45
REMARK    9  A    between atoms: C_21  and  O_23
REMARK   10  A    between atoms: O_23  and  C_24
REMARK   11  A    between atoms: C_25  and  C_37
REMARK   12  A    between atoms: C_29  and  O_36
REMARK   13  A    between atoms: C_31  and  O_35
REMARK   14  A    between atoms: C_39  and  O_44
REMARK   15  A    between atoms: C_40  and  O_43
REMARK   16  A    between atoms: C_45  and  O_46
REMARK                            x       y       z     vdW  Elec       q    Type
REMARK                         _______ _______ _______ _____ _____    ______ ____
ROOT
ATOM      1  C   UNL     1       5.110  -4.198  25.829  0.00  0.00    +0.221 C 
ATOM      2  C   UNL     1       6.119  -2.982  25.649  0.00  0.00    +0.340 C 
ATOM      3  O   UNL     1       7.424  -3.539  25.353  0.00  0.00    -0.331 OA
ATOM      4  C   UNL     1       7.986  -4.257  26.477  0.00  0.00    +0.179 C 
ATOM      5  C   UNL     1       7.068  -5.422  26.820  0.00  0.00    +0.177 C 
ATOM      6  C   UNL     1       5.713  -4.793  27.197  0.00  0.00    +0.180 C 
ENDROOT
BRANCH   6   7
ATOM      7  O   UNL     1       5.063  -5.746  28.041  0.00  0.00    -0.386 OA
ATOM      8  H   UNL     1       4.103  -5.706  27.847  0.00  0.00    +0.210 HD
ENDBRANCH   6   7
BRANCH   5   9
ATOM      9  O   UNL     1       7.552  -6.214  27.897  0.00  0.00    -0.386 OA
ATOM     10  H   UNL     1       8.201  -5.627  28.344  0.00  0.00    +0.210 HD
ENDBRANCH   5   9
BRANCH   4  11
ATOM     11  C   UNL     1       9.416  -4.738  26.202  0.00  0.00    +0.190 C 
BRANCH  11  12
ATOM     12  O   UNL     1       9.437  -6.023  25.576  0.00  0.00    -0.392 OA
ATOM     13  H   UNL     1       9.412  -5.885  24.610  0.00  0.00    +0.210 HD
ENDBRANCH  11  12
ENDBRANCH   4  11
BRANCH   2  14
ATOM     14  O   UNL     1       5.736  -1.987  24.688  0.00  0.00    -0.453 OA
BRANCH  14  15
ATOM     15  C   UNL     1       6.625  -0.902  24.529  0.00  0.00    +0.214 A 
ATOM     16  C   UNL     1       7.629  -0.878  23.390  0.00  0.00    +0.238 A 
ATOM     17  O   UNL     1       7.776  -1.811  22.611  0.00  0.00    -0.283 OA
ATOM     18  C   UNL     1       8.488   0.297  23.227  0.00  0.00    +0.109 A 
ATOM     19  C   UNL     1       8.347   1.329  24.130  0.00  0.00    +0.147 A 
ATOM     20  C   UNL     1       9.111   2.496  23.985  0.00  0.00    +0.092 A 
ATOM     21  C   UNL     1      10.025   2.590  22.942  0.00  0.00    +0.124 A 
ATOM     22  C   UNL     1      10.226   1.529  22.061  0.00  0.00    +0.091 A 
ATOM     23  O   UNL     1       7.494   1.263  25.200  0.00  0.00    -0.451 OA
ATOM     24  C   UNL     1       9.453   0.382  22.206  0.00  0.00    +0.135 A 
ATOM     25  C   UNL     1       6.673   0.135  25.404  0.00  0.00    +0.181 A 
BRANCH  25  26
ATOM     26  C   UNL     1       5.938   0.242  26.722  0.00  0.00    +0.025 A 
ATOM     27  C   UNL     1       4.525   0.120  26.758  0.00  0.00    +0.015 A 
ATOM     28  C   UNL     1       3.781   0.323  27.931  0.00  0.00    +0.050 A 
ATOM     29  C   UNL     1       4.441   0.658  29.097  0.00  0.00    +0.158 A 
ATOM     30  C   UNL     1       5.825   0.760  29.110  0.00  0.00    +0.159 A 
ATOM     31  C   UNL     1       6.566   0.547  27.945  0.00  0.00    +0.060 A 
BRANCH  29  32
ATOM     32  O   UNL     1       3.724   0.906  30.230  0.00  0.00    -0.503 OA
ATOM     33  H   UNL     1       3.708   0.049  30.703  0.00  0.00    +0.292 HD
ENDBRANCH  29  32
BRANCH  30  34
ATOM     34  O   UNL     1       6.431   1.099  30.290  0.00  0.00    -0.503 OA
ATOM     35  H   UNL     1       7.245   0.569  30.375  0.00  0.00    +0.292 HD
ENDBRANCH  30  34
ENDBRANCH  25  26
BRANCH  24  36
ATOM     36  O   UNL     1       9.688  -0.653  21.346  0.00  0.00    -0.506 OA
ATOM     37  H   UNL     1       9.433  -1.503  21.740  0.00  0.00    +0.292 HD
ENDBRANCH  24  36
BRANCH  21  38
ATOM     38  O   UNL     1      10.791   3.702  22.736  0.00  0.00    -0.507 OA
ATOM     39  H   UNL     1      11.632   3.435  22.339  0.00  0.00    +0.292 HD
ENDBRANCH  21  38
ENDBRANCH  14  15
ENDBRANCH   2  14
BRANCH   1  40
ATOM     40  O   UNL     1       3.751  -3.732  25.829  0.00  0.00    -0.337 OA
BRANCH  40  43
ATOM     41  C   UNL     1       3.663  -5.654  23.091  0.00  0.00    +0.197 C 
ATOM     42  O   UNL     1       3.083  -4.424  23.541  0.00  0.00    -0.346 OA
ATOM     43  C   UNL     1       2.746  -4.278  24.920  0.00  0.00    +0.282 C 
ATOM     44  C   UNL     1       2.007  -5.512  25.478  0.00  0.00    +0.201 C 
ATOM     45  C   UNL     1       3.001  -6.634  25.329  0.00  0.00    +0.178 C 
ATOM     46  C   UNL     1       3.516  -6.925  23.940  0.00  0.00    +0.171 C 
BRANCH  46  47
ATOM     47  O   UNL     1       4.827  -7.518  24.116  0.00  0.00    -0.387 OA
ATOM     48  H   UNL     1       5.093  -7.427  25.046  0.00  0.00    +0.210 HD
ENDBRANCH  46  47
BRANCH  45  49
ATOM     49  O   UNL     1       2.737  -7.803  26.089  0.00  0.00    -0.386 OA
ATOM     50  H   UNL     1       2.103  -7.498  26.774  0.00  0.00    +0.210 HD
ENDBRANCH  45  49
BRANCH  44  51
ATOM     51  O   UNL     1       1.669  -5.300  26.860  0.00  0.00    -0.384 OA
ATOM     52  H   UNL     1       2.164  -5.954  27.386  0.00  0.00    +0.210 HD
ENDBRANCH  44  51
ENDBRANCH  40  43
ENDBRANCH   1  40
TORSDOF 16
ENDMDL
MODEL 9
REMARK VINA RESULT:      -6.8      2.309      5.203
REMARK  Name = 
REMARK  16 active torsions:
REMARK  status: ('A' for Active; 'I' for Inactive)
REMARK    1  A    between atoms: C_2  and  O_51
REMARK    2  A    between atoms: C_4  and  O_50
REMARK    3  A    between atoms: C_6  and  O_49
REMARK    4  A    between atoms: C_8  and  O_11
REMARK    5  A    between atoms: O_11  and  C_12
REMARK    6  A    between atoms: C_14  and  O_48
REMARK    7  A    between atoms: C_16  and  O_47
REMARK    8  A    between atoms: C_18  and  C_45
REMARK    9  A    between atoms: C_21  and  O_23
REMARK   10  A    between atoms: O_23  and  C_24
REMARK   11  A    between atoms: C_25  and  C_37
REMARK   12  A    between atoms: C_29  and  O_36
REMARK   13  A    between atoms: C_31  and  O_35
REMARK   14  A    between atoms: C_39  and  O_44
REMARK   15  A    between atoms: C_40  and  O_43
REMARK   16  A    between atoms: C_45  and  O_46
REMARK                            x       y       z     vdW  Elec       q    Type
REMARK                         _______ _______ _______ _____ _____    ______ ____
ROOT
ATOM      1  C   UNL     1       5.297   2.969  26.805  0.00  0.00    +0.221 C 
ATOM      2  C   UNL     1       6.136   1.620  26.871  0.00  0.00    +0.340 C 
ATOM      3  O   UNL     1       6.349   1.308  28.270  0.00  0.00    -0.331 OA
ATOM      4  C   UNL     1       7.224   2.260  28.922  0.00  0.00    +0.179 C 
ATOM      5  C   UNL     1       6.575   3.636  28.862  0.00  0.00    +0.177 C 
ATOM      6  C   UNL     1       6.427   3.968  27.366  0.00  0.00    +0.180 C 
ENDROOT
BRANCH   6   7
ATOM      7  O   UNL     1       6.383   5.394  27.285  0.00  0.00    -0.386 OA
ATOM      8  H   UNL     1       5.899   5.720  28.072  0.00  0.00    +0.210 HD
ENDBRANCH   6   7
BRANCH   5   9
ATOM      9  O   UNL     1       7.345   4.642  29.509  0.00  0.00    -0.386 OA
ATOM     10  H   UNL     1       8.166   4.172  29.775  0.00  0.00    +0.210 HD
ENDBRANCH   5   9
BRANCH   4  11
ATOM     11  C   UNL     1       7.545   1.858  30.366  0.00  0.00    +0.190 C 
BRANCH  11  12
ATOM     12  O   UNL     1       8.831   1.245  30.478  0.00  0.00    -0.392 OA
ATOM     13  H   UNL     1       8.942   0.949  31.402  0.00  0.00    +0.210 HD
ENDBRANCH  11  12
ENDBRANCH   4  11
BRANCH   2  14
ATOM     14  O   UNL     1       5.585   0.504  26.155  0.00  0.00    -0.453 OA
BRANCH  14  15
ATOM     15  C   UNL     1       6.495  -0.517  25.804  0.00  0.00    +0.214 A 
ATOM     16  C   UNL     1       6.469  -1.861  26.511  0.00  0.00    +0.238 A 
ATOM     17  O   UNL     1       5.730  -2.101  27.458  0.00  0.00    -0.283 OA
ATOM     18  C   UNL     1       7.387  -2.912  26.070  0.00  0.00    +0.109 A 
ATOM     19  C   UNL     1       8.244  -2.624  25.029  0.00  0.00    +0.147 A 
ATOM     20  C   UNL     1       9.107  -3.615  24.537  0.00  0.00    +0.092 A 
ATOM     21  C   UNL     1       9.107  -4.875  25.123  0.00  0.00    +0.124 A 
ATOM     22  C   UNL     1       8.293  -5.161  26.218  0.00  0.00    +0.091 A 
ATOM     23  O   UNL     1       8.314  -1.384  24.450  0.00  0.00    -0.451 OA
ATOM     24  C   UNL     1       7.432  -4.175  26.689  0.00  0.00    +0.135 A 
ATOM     25  C   UNL     1       7.464  -0.340  24.870  0.00  0.00    +0.181 A 
BRANCH  25  26
ATOM     26  C   UNL     1       7.835   0.957  24.185  0.00  0.00    +0.025 A 
ATOM     27  C   UNL     1       8.889   1.755  24.699  0.00  0.00    +0.015 A 
ATOM     28  C   UNL     1       9.201   3.019  24.174  0.00  0.00    +0.050 A 
ATOM     29  C   UNL     1       8.457   3.513  23.120  0.00  0.00    +0.158 A 
ATOM     30  C   UNL     1       7.436   2.750  22.570  0.00  0.00    +0.159 A 
ATOM     31  C   UNL     1       7.133   1.488  23.086  0.00  0.00    +0.060 A 
BRANCH  29  32
ATOM     32  O   UNL     1       8.720   4.760  22.634  0.00  0.00    -0.503 OA
ATOM     33  H   UNL     1       9.033   4.607  21.720  0.00  0.00    +0.292 HD
ENDBRANCH  29  32
BRANCH  30  34
ATOM     34  O   UNL     1       6.726   3.286  21.529  0.00  0.00    -0.503 OA
ATOM     35  H   UNL     1       6.943   2.781  20.723  0.00  0.00    +0.292 HD
ENDBRANCH  30  34
ENDBRANCH  25  26
BRANCH  24  36
ATOM     36  O   UNL     1       6.665  -4.473  27.780  0.00  0.00    -0.506 OA
ATOM     37  H   UNL     1       5.782  -4.780  27.516  0.00  0.00    +0.292 HD
ENDBRANCH  24  36
BRANCH  21  38
ATOM     38  O   UNL     1       9.912  -5.887  24.686  0.00  0.00    -0.507 OA
ATOM     39  H   UNL     1       9.460  -6.732  24.826  0.00  0.00    +0.292 HD
ENDBRANCH  21  38
ENDBRANCH  14  15
ENDBRANCH   2  14
BRANCH   1  40
ATOM     40  O   UNL     1       4.793   3.186  25.478  0.00  0.00    -0.337 OA
BRANCH  40  43
ATOM     41  C   UNL     1       4.650   6.329  24.336  0.00  0.00    +0.197 C 
ATOM     42  O   UNL     1       4.088   5.566  25.409  0.00  0.00    -0.346 OA
ATOM     43  C   UNL     1       3.771   4.191  25.193  0.00  0.00    +0.282 C 
ATOM     44  C   UNL     1       3.027   3.962  23.861  0.00  0.00    +0.201 C 
ATOM     45  C   UNL     1       4.008   4.414  22.811  0.00  0.00    +0.178 C 
ATOM     46  C   UNL     1       4.502   5.838  22.889  0.00  0.00    +0.171 C 
BRANCH  46  47
ATOM     47  O   UNL     1       5.809   5.843  22.262  0.00  0.00    -0.387 OA
ATOM     48  H   UNL     1       6.469   5.537  22.906  0.00  0.00    +0.210 HD
ENDBRANCH  46  47
BRANCH  45  49
ATOM     49  O   UNL     1       3.742   3.980  21.485  0.00  0.00    -0.386 OA
ATOM     50  H   UNL     1       2.799   3.710  21.513  0.00  0.00    +0.210 HD
ENDBRANCH  45  49
BRANCH  44  51
ATOM     51  O   UNL     1       2.709   2.568  23.707  0.00  0.00    -0.384 OA
ATOM     52  H   UNL     1       3.385   2.059  24.188  0.00  0.00    +0.210 HD
ENDBRANCH  44  51
ENDBRANCH  40  43
ENDBRANCH   1  40
TORSDOF 16
ENDMDL
