MODEL 1
REMARK VINA RESULT:      -7.4      0.000      0.000
REMARK  Name = 
REMARK  16 active torsions:
REMARK  status: ('A' for Active; 'I' for Inactive)
REMARK    1  A    between atoms: C_2  and  O_47
REMARK    2  A    between atoms: C_4  and  O_46
REMARK    3  A    between atoms: C_5  and  O_45
REMARK    4  A    between atoms: C_7  and  O_10
REMARK    5  A    between atoms: O_10  and  C_11
REMARK    6  A    between atoms: C_12  and  O_23
REMARK    7  A    between atoms: C_15  and  C_21
REMARK    8  A    between atoms: C_16  and  O_20
REMARK    9  A    between atoms: C_18  and  O_19
REMARK   10  A    between atoms: C_21  and  O_22
REMARK   11  A    between atoms: O_23  and  C_24
REMARK   12  A    between atoms: C_25  and  C_37
REMARK   13  A    between atoms: C_29  and  O_36
REMARK   14  A    between atoms: C_31  and  O_35
REMARK   15  A    between atoms: C_39  and  O_44
REMARK   16  A    between atoms: C_40  and  O_43
REMARK                            x       y       z     vdW  Elec       q    Type
REMARK                         _______ _______ _______ _____ _____    ______ ____
ROOT
ATOM      1  C   UNL     1       6.606  -2.422  25.310  0.00  0.00    +0.221 C 
ATOM      2  C   UNL     1       6.368  -3.229  24.020  0.00  0.00    +0.180 C 
ATOM      3  C   UNL     1       7.679  -3.837  23.500  0.00  0.00    +0.177 C 
ATOM      4  C   UNL     1       8.782  -2.785  23.352  0.00  0.00    +0.179 C 
ATOM      5  O   UNL     1       8.938  -2.022  24.553  0.00  0.00    -0.331 OA
ATOM      6  C   UNL     1       7.756  -1.408  25.074  0.00  0.00    +0.340 C 
ENDROOT
BRANCH   2   7
ATOM      7  O   UNL     1       5.738  -2.407  23.020  0.00  0.00    -0.386 OA
ATOM      8  H   UNL     1       4.789  -2.304  23.215  0.00  0.00    +0.210 HD
ENDBRANCH   2   7
BRANCH   3   9
ATOM      9  O   UNL     1       7.470  -4.552  22.282  0.00  0.00    -0.386 OA
ATOM     10  H   UNL     1       7.107  -5.426  22.506  0.00  0.00    +0.210 HD
ENDBRANCH   3   9
BRANCH   4  11
ATOM     11  C   UNL     1       8.696  -1.873  22.115  0.00  0.00    +0.190 C 
BRANCH  11  12
ATOM     12  O   UNL     1      10.020  -1.531  21.677  0.00  0.00    -0.392 OA
ATOM     13  H   UNL     1       9.970  -0.630  21.304  0.00  0.00    +0.210 HD
ENDBRANCH  11  12
ENDBRANCH   4  11
BRANCH   6  14
ATOM     14  O   UNL     1       7.306  -0.280  24.318  0.00  0.00    -0.453 OA
BRANCH  14  15
ATOM     15  C   UNL     1       7.782   0.971  24.730  0.00  0.00    +0.214 A 
ATOM     16  C   UNL     1       9.057   1.580  24.208  0.00  0.00    +0.238 A 
ATOM     17  O   UNL     1       9.994   0.899  23.806  0.00  0.00    -0.283 OA
ATOM     18  C   UNL     1       9.193   3.035  24.311  0.00  0.00    +0.109 A 
ATOM     19  C   UNL     1       8.367   3.675  25.226  0.00  0.00    +0.147 A 
ATOM     20  C   UNL     1       8.480   5.050  25.435  0.00  0.00    +0.092 A 
ATOM     21  C   UNL     1       9.444   5.767  24.734  0.00  0.00    +0.124 A 
ATOM     22  C   UNL     1      10.282   5.140  23.819  0.00  0.00    +0.091 A 
ATOM     23  O   UNL     1       7.462   2.998  26.000  0.00  0.00    -0.451 OA
ATOM     24  C   UNL     1      10.148   3.771  23.598  0.00  0.00    +0.135 A 
ATOM     25  C   UNL     1       7.129   1.685  25.676  0.00  0.00    +0.181 A 
BRANCH  25  26
ATOM     26  C   UNL     1       6.029   1.158  26.534  0.00  0.00    +0.025 A 
ATOM     27  C   UNL     1       6.352   0.404  27.687  0.00  0.00    +0.015 A 
ATOM     28  C   UNL     1       5.369  -0.274  28.417  0.00  0.00    +0.050 A 
ATOM     29  C   UNL     1       4.048  -0.186  28.018  0.00  0.00    +0.158 A 
ATOM     30  C   UNL     1       3.695   0.579  26.913  0.00  0.00    +0.159 A 
ATOM     31  C   UNL     1       4.671   1.239  26.166  0.00  0.00    +0.060 A 
BRANCH  29  32
ATOM     32  O   UNL     1       3.094  -0.875  28.708  0.00  0.00    -0.503 OA
ATOM     33  H   UNL     1       2.246  -0.568  28.331  0.00  0.00    +0.292 HD
ENDBRANCH  29  32
BRANCH  30  34
ATOM     34  O   UNL     1       2.368   0.624  26.578  0.00  0.00    -0.503 OA
ATOM     35  H   UNL     1       2.225   0.064  25.795  0.00  0.00    +0.292 HD
ENDBRANCH  30  34
ENDBRANCH  25  26
BRANCH  21  36
ATOM     36  O   UNL     1       9.612   7.108  24.916  0.00  0.00    -0.507 OA
ATOM     37  H   UNL     1       9.998   7.492  24.108  0.00  0.00    +0.292 HD
ENDBRANCH  21  36
BRANCH  24  38
ATOM     38  O   UNL     1      10.951   3.170  22.671  0.00  0.00    -0.506 OA
ATOM     39  H   UNL     1      11.165   3.795  21.959  0.00  0.00    +0.292 HD
ENDBRANCH  24  38
ENDBRANCH  14  15
ENDBRANCH   6  14
BRANCH   1  40
ATOM     40  O   UNL     1       6.839  -3.299  26.444  0.00  0.00    -0.337 OA
BRANCH  40  43
ATOM     41  C   UNL     1       3.618  -4.920  26.813  0.00  0.00    +0.197 C 
ATOM     42  O   UNL     1       4.611  -3.900  26.973  0.00  0.00    -0.346 OA
ATOM     43  C   UNL     1       5.904  -4.392  26.576  0.00  0.00    +0.282 C 
ATOM     44  C   UNL     1       6.338  -5.480  27.595  0.00  0.00    +0.201 C 
ATOM     45  C   UNL     1       5.307  -6.619  27.578  0.00  0.00    +0.178 C 
ATOM     46  C   UNL     1       3.874  -6.106  27.749  0.00  0.00    +0.171 C 
BRANCH  44  47
ATOM     47  O   UNL     1       7.635  -6.040  27.327  0.00  0.00    -0.384 OA
ATOM     48  H   UNL     1       7.913  -5.751  26.439  0.00  0.00    +0.210 HD
ENDBRANCH  44  47
BRANCH  45  49
ATOM     49  O   UNL     1       5.637  -7.596  28.579  0.00  0.00    -0.386 OA
ATOM     50  H   UNL     1       6.447  -8.060  28.303  0.00  0.00    +0.210 HD
ENDBRANCH  45  49
BRANCH  46  51
ATOM     51  O   UNL     1       2.966  -7.173  27.439  0.00  0.00    -0.387 OA
ATOM     52  H   UNL     1       2.756  -7.112  26.493  0.00  0.00    +0.210 HD
ENDBRANCH  46  51
ENDBRANCH  40  43
ENDBRANCH   1  40
TORSDOF 16
ENDMDL
MODEL 2
REMARK VINA RESULT:      -7.4      2.064      6.092
REMARK  Name = 
REMARK  16 active torsions:
REMARK  status: ('A' for Active; 'I' for Inactive)
REMARK    1  A    between atoms: C_2  and  O_47
REMARK    2  A    between atoms: C_4  and  O_46
REMARK    3  A    between atoms: C_5  and  O_45
REMARK    4  A    between atoms: C_7  and  O_10
REMARK    5  A    between atoms: O_10  and  C_11
REMARK    6  A    between atoms: C_12  and  O_23
REMARK    7  A    between atoms: C_15  and  C_21
REMARK    8  A    between atoms: C_16  and  O_20
REMARK    9  A    between atoms: C_18  and  O_19
REMARK   10  A    between atoms: C_21  and  O_22
REMARK   11  A    between atoms: O_23  and  C_24
REMARK   12  A    between atoms: C_25  and  C_37
REMARK   13  A    between atoms: C_29  and  O_36
REMARK   14  A    between atoms: C_31  and  O_35
REMARK   15  A    between atoms: C_39  and  O_44
REMARK   16  A    between atoms: C_40  and  O_43
REMARK                            x       y       z     vdW  Elec       q    Type
REMARK                         _______ _______ _______ _____ _____    ______ ____
ROOT
ATOM      1  C   UNL     1       9.131  -2.722  24.967  0.00  0.00    +0.221 C 
ATOM      2  C   UNL     1       9.616  -4.037  25.604  0.00  0.00    +0.180 C 
ATOM      3  C   UNL     1       8.997  -5.253  24.897  0.00  0.00    +0.177 C 
ATOM      4  C   UNL     1       7.471  -5.156  24.814  0.00  0.00    +0.179 C 
ATOM      5  O   UNL     1       7.060  -3.900  24.266  0.00  0.00    -0.331 OA
ATOM      6  C   UNL     1       7.582  -2.727  24.898  0.00  0.00    +0.340 C 
ENDROOT
BRANCH   2   7
ATOM      7  O   UNL     1       9.330  -4.050  27.015  0.00  0.00    -0.386 OA
ATOM      8  H   UNL     1       9.912  -3.425  27.484  0.00  0.00    +0.210 HD
ENDBRANCH   2   7
BRANCH   3   9
ATOM      9  O   UNL     1       9.412  -6.474  25.510  0.00  0.00    -0.386 OA
ATOM     10  H   UNL     1       9.627  -6.285  26.440  0.00  0.00    +0.210 HD
ENDBRANCH   3   9
BRANCH   4  11
ATOM     11  C   UNL     1       6.695  -5.488  26.101  0.00  0.00    +0.190 C 
BRANCH  11  12
ATOM     12  O   UNL     1       7.578  -6.109  27.049  0.00  0.00    -0.392 OA
ATOM     13  H   UNL     1       8.488  -5.938  26.740  0.00  0.00    +0.210 HD
ENDBRANCH  11  12
ENDBRANCH   4  11
BRANCH   6  14
ATOM     14  O   UNL     1       7.004  -2.452  26.177  0.00  0.00    -0.453 OA
BRANCH  14  15
ATOM     15  C   UNL     1       6.267  -1.265  26.280  0.00  0.00    +0.214 A 
ATOM     16  C   UNL     1       6.900   0.076  26.547  0.00  0.00    +0.238 A 
ATOM     17  O   UNL     1       7.953   0.195  27.162  0.00  0.00    -0.283 OA
ATOM     18  C   UNL     1       6.140   1.263  26.147  0.00  0.00    +0.109 A 
ATOM     19  C   UNL     1       4.776   1.094  25.953  0.00  0.00    +0.147 A 
ATOM     20  C   UNL     1       3.968   2.187  25.638  0.00  0.00    +0.092 A 
ATOM     21  C   UNL     1       4.542   3.451  25.543  0.00  0.00    +0.124 A 
ATOM     22  C   UNL     1       5.906   3.637  25.739  0.00  0.00    +0.091 A 
ATOM     23  O   UNL     1       4.152  -0.115  26.119  0.00  0.00    -0.451 OA
ATOM     24  C   UNL     1       6.709   2.538  26.031  0.00  0.00    +0.135 A 
ATOM     25  C   UNL     1       4.917  -1.276  26.193  0.00  0.00    +0.181 A 
BRANCH  25  26
ATOM     26  C   UNL     1       4.070  -2.504  26.228  0.00  0.00    +0.025 A 
ATOM     27  C   UNL     1       3.729  -3.072  27.477  0.00  0.00    +0.015 A 
ATOM     28  C   UNL     1       3.105  -4.322  27.566  0.00  0.00    +0.050 A 
ATOM     29  C   UNL     1       2.792  -5.006  26.406  0.00  0.00    +0.158 A 
ATOM     30  C   UNL     1       3.078  -4.455  25.164  0.00  0.00    +0.159 A 
ATOM     31  C   UNL     1       3.721  -3.221  25.066  0.00  0.00    +0.060 A 
BRANCH  29  32
ATOM     32  O   UNL     1       2.215  -6.240  26.493  0.00  0.00    -0.503 OA
ATOM     33  H   UNL     1       1.316  -6.069  26.838  0.00  0.00    +0.292 HD
ENDBRANCH  29  32
BRANCH  30  34
ATOM     34  O   UNL     1       2.735  -5.186  24.058  0.00  0.00    -0.503 OA
ATOM     35  H   UNL     1       2.772  -4.606  23.276  0.00  0.00    +0.292 HD
ENDBRANCH  30  34
ENDBRANCH  25  26
BRANCH  21  36
ATOM     36  O   UNL     1       3.796   4.556  25.259  0.00  0.00    -0.507 OA
ATOM     37  H   UNL     1       3.110   4.661  25.943  0.00  0.00    +0.292 HD
ENDBRANCH  21  36
BRANCH  24  38
ATOM     38  O   UNL     1       8.054   2.725  26.186  0.00  0.00    -0.506 OA
ATOM     39  H   UNL     1       8.273   2.803  27.129  0.00  0.00    +0.292 HD
ENDBRANCH  24  38
ENDBRANCH  14  15
ENDBRANCH   6  14
BRANCH   1  40
ATOM     40  O   UNL     1       9.761  -2.498  23.678  0.00  0.00    -0.337 OA
BRANCH  40  43
ATOM     41  C   UNL     1      10.620   0.946  24.413  0.00  0.00    +0.197 C 
ATOM     42  O   UNL     1       9.980  -0.324  24.588  0.00  0.00    -0.346 OA
ATOM     43  C   UNL     1      10.129  -1.128  23.405  0.00  0.00    +0.282 C 
ATOM     44  C   UNL     1       9.309  -0.465  22.265  0.00  0.00    +0.201 C 
ATOM     45  C   UNL     1       9.853   0.950  22.018  0.00  0.00    +0.178 C 
ATOM     46  C   UNL     1       9.947   1.768  23.311  0.00  0.00    +0.171 C 
BRANCH  44  47
ATOM     47  O   UNL     1       9.352  -1.189  21.024  0.00  0.00    -0.384 OA
ATOM     48  H   UNL     1      10.285  -1.374  20.812  0.00  0.00    +0.210 HD
ENDBRANCH  44  47
BRANCH  45  49
ATOM     49  O   UNL     1       9.051   1.619  21.031  0.00  0.00    -0.386 OA
ATOM     50  H   UNL     1       9.245   1.232  20.161  0.00  0.00    +0.210 HD
ENDBRANCH  45  49
BRANCH  46  51
ATOM     51  O   UNL     1      10.716   2.950  23.048  0.00  0.00    -0.387 OA
ATOM     52  H   UNL     1      10.811   3.430  23.887  0.00  0.00    +0.210 HD
ENDBRANCH  46  51
ENDBRANCH  40  43
ENDBRANCH   1  40
TORSDOF 16
ENDMDL
MODEL 3
REMARK VINA RESULT:      -7.2      2.140      6.617
REMARK  Name = 
REMARK  16 active torsions:
REMARK  status: ('A' for Active; 'I' for Inactive)
REMARK    1  A    between atoms: C_2  and  O_47
REMARK    2  A    between atoms: C_4  and  O_46
REMARK    3  A    between atoms: C_5  and  O_45
REMARK    4  A    between atoms: C_7  and  O_10
REMARK    5  A    between atoms: O_10  and  C_11
REMARK    6  A    between atoms: C_12  and  O_23
REMARK    7  A    between atoms: C_15  and  C_21
REMARK    8  A    between atoms: C_16  and  O_20
REMARK    9  A    between atoms: C_18  and  O_19
REMARK   10  A    between atoms: C_21  and  O_22
REMARK   11  A    between atoms: O_23  and  C_24
REMARK   12  A    between atoms: C_25  and  C_37
REMARK   13  A    between atoms: C_29  and  O_36
REMARK   14  A    between atoms: C_31  and  O_35
REMARK   15  A    between atoms: C_39  and  O_44
REMARK   16  A    between atoms: C_40  and  O_43
REMARK                            x       y       z     vdW  Elec       q    Type
REMARK                         _______ _______ _______ _____ _____    ______ ____
ROOT
ATOM      1  C   UNL     1       7.700  -2.994  23.391  0.00  0.00    +0.221 C 
ATOM      2  C   UNL     1       7.925  -4.450  22.947  0.00  0.00    +0.180 C 
ATOM      3  C   UNL     1       6.699  -4.995  22.199  0.00  0.00    +0.177 C 
ATOM      4  C   UNL     1       5.407  -4.807  22.998  0.00  0.00    +0.179 C 
ATOM      5  O   UNL     1       5.259  -3.453  23.437  0.00  0.00    -0.331 OA
ATOM      6  C   UNL     1       6.358  -2.895  24.164  0.00  0.00    +0.340 C 
ENDROOT
BRANCH   2   7
ATOM      7  O   UNL     1       8.259  -5.277  24.078  0.00  0.00    -0.386 OA
ATOM      8  H   UNL     1       9.185  -5.130  24.342  0.00  0.00    +0.210 HD
ENDBRANCH   2   7
BRANCH   3   9
ATOM      9  O   UNL     1       6.887  -6.358  21.821  0.00  0.00    -0.386 OA
ATOM     10  H   UNL     1       7.145  -6.857  22.615  0.00  0.00    +0.210 HD
ENDBRANCH   3   9
BRANCH   4  11
ATOM     11  C   UNL     1       5.165  -5.799  24.150  0.00  0.00    +0.190 C 
BRANCH  11  12
ATOM     12  O   UNL     1       4.885  -7.101  23.611  0.00  0.00    -0.392 OA
ATOM     13  H   UNL     1       4.198  -7.500  24.179  0.00  0.00    +0.210 HD
ENDBRANCH  11  12
ENDBRANCH   4  11
BRANCH   6  14
ATOM     14  O   UNL     1       6.489  -3.400  25.496  0.00  0.00    -0.453 OA
BRANCH  14  15
ATOM     15  C   UNL     1       6.129  -2.523  26.527  0.00  0.00    +0.214 A 
ATOM     16  C   UNL     1       6.834  -1.217  26.781  0.00  0.00    +0.238 A 
ATOM     17  O   UNL     1       8.010  -1.036  26.485  0.00  0.00    -0.283 OA
ATOM     18  C   UNL     1       6.093  -0.190  27.519  0.00  0.00    +0.109 A 
ATOM     19  C   UNL     1       5.008  -0.624  28.268  0.00  0.00    +0.147 A 
ATOM     20  C   UNL     1       4.290   0.279  29.054  0.00  0.00    +0.092 A 
ATOM     21  C   UNL     1       4.688   1.611  29.095  0.00  0.00    +0.124 A 
ATOM     22  C   UNL     1       5.776   2.059  28.355  0.00  0.00    +0.091 A 
ATOM     23  O   UNL     1       4.629  -1.939  28.326  0.00  0.00    -0.451 OA
ATOM     24  C   UNL     1       6.474   1.157  27.555  0.00  0.00    +0.135 A 
ATOM     25  C   UNL     1       5.139  -2.840  27.394  0.00  0.00    +0.181 A 
BRANCH  25  26
ATOM     26  C   UNL     1       4.512  -4.188  27.517  0.00  0.00    +0.025 A 
ATOM     27  C   UNL     1       3.106  -4.308  27.418  0.00  0.00    +0.015 A 
ATOM     28  C   UNL     1       2.451  -5.509  27.716  0.00  0.00    +0.050 A 
ATOM     29  C   UNL     1       3.197  -6.611  28.091  0.00  0.00    +0.158 A 
ATOM     30  C   UNL     1       4.583  -6.535  28.157  0.00  0.00    +0.159 A 
ATOM     31  C   UNL     1       5.242  -5.336  27.885  0.00  0.00    +0.060 A 
BRANCH  29  32
ATOM     32  O   UNL     1       2.558  -7.772  28.415  0.00  0.00    -0.503 OA
ATOM     33  H   UNL     1       1.616  -7.599  28.215  0.00  0.00    +0.292 HD
ENDBRANCH  29  32
BRANCH  30  34
ATOM     34  O   UNL     1       5.257  -7.667  28.531  0.00  0.00    -0.503 OA
ATOM     35  H   UNL     1       6.213  -7.504  28.443  0.00  0.00    +0.292 HD
ENDBRANCH  30  34
ENDBRANCH  25  26
BRANCH  21  36
ATOM     36  O   UNL     1       4.036   2.530  29.863  0.00  0.00    -0.507 OA
ATOM     37  H   UNL     1       3.158   2.701  29.476  0.00  0.00    +0.292 HD
ENDBRANCH  21  36
BRANCH  24  38
ATOM     38  O   UNL     1       7.519   1.613  26.802  0.00  0.00    -0.506 OA
ATOM     39  H   UNL     1       7.302   2.477  26.417  0.00  0.00    +0.292 HD
ENDBRANCH  24  38
ENDBRANCH  14  15
ENDBRANCH   6  14
BRANCH   1  40
ATOM     40  O   UNL     1       7.779  -2.081  22.263  0.00  0.00    -0.337 OA
BRANCH  40  43
ATOM     41  C   UNL     1      10.522   0.034  23.334  0.00  0.00    +0.197 C 
ATOM     42  O   UNL     1       9.655  -1.107  23.330  0.00  0.00    -0.346 OA
ATOM     43  C   UNL     1       8.494  -0.852  22.518  0.00  0.00    +0.282 C 
ATOM     44  C   UNL     1       7.646   0.243  23.221  0.00  0.00    +0.201 C 
ATOM     45  C   UNL     1       8.492   1.518  23.354  0.00  0.00    +0.178 C 
ATOM     46  C   UNL     1       9.856   1.244  23.995  0.00  0.00    +0.171 C 
BRANCH  44  47
ATOM     47  O   UNL     1       6.435   0.574  22.520  0.00  0.00    -0.384 OA
ATOM     48  H   UNL     1       6.280   1.531  22.617  0.00  0.00    +0.210 HD
ENDBRANCH  44  47
BRANCH  45  49
ATOM     49  O   UNL     1       7.761   2.518  24.084  0.00  0.00    -0.386 OA
ATOM     50  H   UNL     1       8.115   3.393  23.849  0.00  0.00    +0.210 HD
ENDBRANCH  45  49
BRANCH  46  51
ATOM     51  O   UNL     1      10.682   2.405  23.826  0.00  0.00    -0.387 OA
ATOM     52  H   UNL     1      10.096   3.179  23.799  0.00  0.00    +0.210 HD
ENDBRANCH  46  51
ENDBRANCH  40  43
ENDBRANCH   1  40
TORSDOF 16
ENDMDL
MODEL 4
REMARK VINA RESULT:      -7.0      2.051      4.971
REMARK  Name = 
REMARK  16 active torsions:
REMARK  status: ('A' for Active; 'I' for Inactive)
REMARK    1  A    between atoms: C_2  and  O_47
REMARK    2  A    between atoms: C_4  and  O_46
REMARK    3  A    between atoms: C_5  and  O_45
REMARK    4  A    between atoms: C_7  and  O_10
REMARK    5  A    between atoms: O_10  and  C_11
REMARK    6  A    between atoms: C_12  and  O_23
REMARK    7  A    between atoms: C_15  and  C_21
REMARK    8  A    between atoms: C_16  and  O_20
REMARK    9  A    between atoms: C_18  and  O_19
REMARK   10  A    between atoms: C_21  and  O_22
REMARK   11  A    between atoms: O_23  and  C_24
REMARK   12  A    between atoms: C_25  and  C_37
REMARK   13  A    between atoms: C_29  and  O_36
REMARK   14  A    between atoms: C_31  and  O_35
REMARK   15  A    between atoms: C_39  and  O_44
REMARK   16  A    between atoms: C_40  and  O_43
REMARK                            x       y       z     vdW  Elec       q    Type
REMARK                         _______ _______ _______ _____ _____    ______ ____
ROOT
ATOM      1  C   UNL     1       5.370  -1.614  25.521  0.00  0.00    +0.221 C 
ATOM      2  C   UNL     1       4.804  -1.805  26.940  0.00  0.00    +0.180 C 
ATOM      3  C   UNL     1       3.557  -0.934  27.157  0.00  0.00    +0.177 C 
ATOM      4  C   UNL     1       3.813   0.535  26.808  0.00  0.00    +0.179 C 
ATOM      5  O   UNL     1       4.387   0.667  25.504  0.00  0.00    -0.331 OA
ATOM      6  C   UNL     1       5.567  -0.100  25.247  0.00  0.00    +0.340 C 
ENDROOT
BRANCH   2   7
ATOM      7  O   UNL     1       5.814  -1.530  27.928  0.00  0.00    -0.386 OA
ATOM      8  H   UNL     1       6.091  -0.597  27.878  0.00  0.00    +0.210 HD
ENDBRANCH   2   7
BRANCH   3   9
ATOM      9  O   UNL     1       3.051  -1.076  28.484  0.00  0.00    -0.386 OA
ATOM     10  H   UNL     1       2.106  -0.850  28.471  0.00  0.00    +0.210 HD
ENDBRANCH   3   9
BRANCH   4  11
ATOM     11  C   UNL     1       4.590   1.360  27.849  0.00  0.00    +0.190 C 
BRANCH  11  12
ATOM     12  O   UNL     1       4.981   2.616  27.272  0.00  0.00    -0.392 OA
ATOM     13  H   UNL     1       5.955   2.657  27.321  0.00  0.00    +0.210 HD
ENDBRANCH  11  12
ENDBRANCH   4  11
BRANCH   6  14
ATOM     14  O   UNL     1       6.737   0.398  25.903  0.00  0.00    -0.453 OA
BRANCH  14  15
ATOM     15  C   UNL     1       7.645   1.099  25.100  0.00  0.00    +0.214 A 
ATOM     16  C   UNL     1       7.507   2.567  24.789  0.00  0.00    +0.238 A 
ATOM     17  O   UNL     1       6.420   3.134  24.767  0.00  0.00    -0.283 OA
ATOM     18  C   UNL     1       8.721   3.281  24.385  0.00  0.00    +0.109 A 
ATOM     19  C   UNL     1       9.775   2.505  23.924  0.00  0.00    +0.147 A 
ATOM     20  C   UNL     1      10.942   3.110  23.456  0.00  0.00    +0.092 A 
ATOM     21  C   UNL     1      11.027   4.498  23.435  0.00  0.00    +0.124 A 
ATOM     22  C   UNL     1       9.977   5.289  23.888  0.00  0.00    +0.091 A 
ATOM     23  O   UNL     1       9.707   1.139  23.846  0.00  0.00    -0.451 OA
ATOM     24  C   UNL     1       8.824   4.678  24.376  0.00  0.00    +0.135 A 
ATOM     25  C   UNL     1       8.686   0.465  24.512  0.00  0.00    +0.181 A 
BRANCH  25  26
ATOM     26  C   UNL     1       8.849  -1.016  24.437  0.00  0.00    +0.025 A 
ATOM     27  C   UNL     1       8.781  -1.656  23.177  0.00  0.00    +0.015 A 
ATOM     28  C   UNL     1       8.734  -3.050  23.067  0.00  0.00    +0.050 A 
ATOM     29  C   UNL     1       8.781  -3.822  24.213  0.00  0.00    +0.158 A 
ATOM     30  C   UNL     1       8.889  -3.223  25.462  0.00  0.00    +0.159 A 
ATOM     31  C   UNL     1       8.913  -1.833  25.583  0.00  0.00    +0.060 A 
BRANCH  29  32
ATOM     32  O   UNL     1       8.701  -5.180  24.108  0.00  0.00    -0.503 OA
ATOM     33  H   UNL     1       8.988  -5.513  24.982  0.00  0.00    +0.292 HD
ENDBRANCH  29  32
BRANCH  30  34
ATOM     34  O   UNL     1       8.936  -4.049  26.553  0.00  0.00    -0.503 OA
ATOM     35  H   UNL     1       8.788  -4.965  26.258  0.00  0.00    +0.292 HD
ENDBRANCH  30  34
ENDBRANCH  25  26
BRANCH  21  36
ATOM     36  O   UNL     1      12.135   5.141  22.968  0.00  0.00    -0.507 OA
ATOM     37  H   UNL     1      12.034   5.294  22.012  0.00  0.00    +0.292 HD
ENDBRANCH  21  36
BRANCH  24  38
ATOM     38  O   UNL     1       7.812   5.462  24.853  0.00  0.00    -0.506 OA
ATOM     39  H   UNL     1       7.049   5.422  24.254  0.00  0.00    +0.292 HD
ENDBRANCH  24  38
ENDBRANCH  14  15
ENDBRANCH   6  14
BRANCH   1  40
ATOM     40  O   UNL     1       4.538  -2.272  24.529  0.00  0.00    -0.337 OA
BRANCH  40  43
ATOM     41  C   UNL     1       5.878  -4.344  21.874  0.00  0.00    +0.197 C 
ATOM     42  O   UNL     1       5.044  -3.351  22.484  0.00  0.00    -0.346 OA
ATOM     43  C   UNL     1       5.122  -3.443  23.918  0.00  0.00    +0.282 C 
ATOM     44  C   UNL     1       4.464  -4.782  24.350  0.00  0.00    +0.201 C 
ATOM     45  C   UNL     1       5.228  -5.945  23.701  0.00  0.00    +0.178 C 
ATOM     46  C   UNL     1       5.388  -5.761  22.188  0.00  0.00    +0.171 C 
BRANCH  44  47
ATOM     47  O   UNL     1       4.452  -4.987  25.773  0.00  0.00    -0.384 OA
ATOM     48  H   UNL     1       3.698  -5.565  25.991  0.00  0.00    +0.210 HD
ENDBRANCH  44  47
BRANCH  45  49
ATOM     49  O   UNL     1       4.582  -7.191  24.012  0.00  0.00    -0.386 OA
ATOM     50  H   UNL     1       3.629  -7.027  24.116  0.00  0.00    +0.210 HD
ENDBRANCH  45  49
BRANCH  46  51
ATOM     51  O   UNL     1       6.340  -6.721  21.709  0.00  0.00    -0.387 OA
ATOM     52  H   UNL     1       6.971  -6.249  21.141  0.00  0.00    +0.210 HD
ENDBRANCH  46  51
ENDBRANCH  40  43
ENDBRANCH   1  40
TORSDOF 16
ENDMDL
MODEL 5
REMARK VINA RESULT:      -7.0      1.963      5.226
REMARK  Name = 
REMARK  16 active torsions:
REMARK  status: ('A' for Active; 'I' for Inactive)
REMARK    1  A    between atoms: C_2  and  O_47
REMARK    2  A    between atoms: C_4  and  O_46
REMARK    3  A    between atoms: C_5  and  O_45
REMARK    4  A    between atoms: C_7  and  O_10
REMARK    5  A    between atoms: O_10  and  C_11
REMARK    6  A    between atoms: C_12  and  O_23
REMARK    7  A    between atoms: C_15  and  C_21
REMARK    8  A    between atoms: C_16  and  O_20
REMARK    9  A    between atoms: C_18  and  O_19
REMARK   10  A    between atoms: C_21  and  O_22
REMARK   11  A    between atoms: O_23  and  C_24
REMARK   12  A    between atoms: C_25  and  C_37
REMARK   13  A    between atoms: C_29  and  O_36
REMARK   14  A    between atoms: C_31  and  O_35
REMARK   15  A    between atoms: C_39  and  O_44
REMARK   16  A    between atoms: C_40  and  O_43
REMARK                            x       y       z     vdW  Elec       q    Type
REMARK                         _______ _______ _______ _____ _____    ______ ____
ROOT
ATOM      1  C   UNL     1       7.750  -2.400  24.301  0.00  0.00    +0.221 C 
ATOM      2  C   UNL     1       8.615  -2.333  23.029  0.00  0.00    +0.180 C 
ATOM      3  C   UNL     1      10.064  -1.953  23.368  0.00  0.00    +0.177 C 
ATOM      4  C   UNL     1      10.143  -0.677  24.211  0.00  0.00    +0.179 C 
ATOM      5  O   UNL     1       9.286  -0.757  25.355  0.00  0.00    -0.331 OA
ATOM      6  C   UNL     1       7.916  -1.082  25.103  0.00  0.00    +0.340 C 
ENDROOT
BRANCH   2   7
ATOM      7  O   UNL     1       8.042  -1.419  22.076  0.00  0.00    -0.386 OA
ATOM      8  H   UNL     1       8.346  -0.511  22.253  0.00  0.00    +0.210 HD
ENDBRANCH   2   7
BRANCH   3   9
ATOM      9  O   UNL     1      10.861  -1.850  22.188  0.00  0.00    -0.386 OA
ATOM     10  H   UNL     1      10.729  -2.660  21.666  0.00  0.00    +0.210 HD
ENDBRANCH   3   9
BRANCH   4  11
ATOM     11  C   UNL     1       9.952   0.652  23.459  0.00  0.00    +0.190 C 
BRANCH  11  12
ATOM     12  O   UNL     1      10.885   1.624  23.957  0.00  0.00    -0.392 OA
ATOM     13  H   UNL     1      11.113   1.355  24.867  0.00  0.00    +0.210 HD
ENDBRANCH  11  12
ENDBRANCH   4  11
BRANCH   6  14
ATOM     14  O   UNL     1       7.166  -0.017  24.511  0.00  0.00    -0.453 OA
BRANCH  14  15
ATOM     15  C   UNL     1       6.239   0.622  25.344  0.00  0.00    +0.214 A 
ATOM     16  C   UNL     1       5.101  -0.100  26.017  0.00  0.00    +0.238 A 
ATOM     17  O   UNL     1       4.595  -1.113  25.547  0.00  0.00    -0.283 OA
ATOM     18  C   UNL     1       4.525   0.526  27.211  0.00  0.00    +0.109 A 
ATOM     19  C   UNL     1       4.768   1.882  27.381  0.00  0.00    +0.147 A 
ATOM     20  C   UNL     1       4.200   2.570  28.454  0.00  0.00    +0.092 A 
ATOM     21  C   UNL     1       3.370   1.886  29.336  0.00  0.00    +0.124 A 
ATOM     22  C   UNL     1       3.113   0.529  29.176  0.00  0.00    +0.091 A 
ATOM     23  O   UNL     1       5.508   2.616  26.492  0.00  0.00    -0.451 OA
ATOM     24  C   UNL     1       3.702  -0.156  28.116  0.00  0.00    +0.135 A 
ATOM     25  C   UNL     1       6.294   1.959  25.548  0.00  0.00    +0.181 A 
BRANCH  25  26
ATOM     26  C   UNL     1       7.137   2.907  24.764  0.00  0.00    +0.025 A 
ATOM     27  C   UNL     1       8.271   3.492  25.375  0.00  0.00    +0.015 A 
ATOM     28  C   UNL     1       8.983   4.527  24.757  0.00  0.00    +0.050 A 
ATOM     29  C   UNL     1       8.584   4.972  23.510  0.00  0.00    +0.158 A 
ATOM     30  C   UNL     1       7.500   4.389  22.867  0.00  0.00    +0.159 A 
ATOM     31  C   UNL     1       6.770   3.373  23.485  0.00  0.00    +0.060 A 
BRANCH  29  32
ATOM     32  O   UNL     1       9.256   6.004  22.923  0.00  0.00    -0.503 OA
ATOM     33  H   UNL     1       9.409   5.709  22.003  0.00  0.00    +0.292 HD
ENDBRANCH  29  32
BRANCH  30  34
ATOM     34  O   UNL     1       7.164   4.877  21.632  0.00  0.00    -0.503 OA
ATOM     35  H   UNL     1       6.674   4.189  21.148  0.00  0.00    +0.292 HD
ENDBRANCH  30  34
ENDBRANCH  25  26
BRANCH  21  36
ATOM     36  O   UNL     1       2.772   2.513  30.389  0.00  0.00    -0.507 OA
ATOM     37  H   UNL     1       3.238   3.350  30.567  0.00  0.00    +0.292 HD
ENDBRANCH  21  36
BRANCH  24  38
ATOM     38  O   UNL     1       3.473  -1.497  27.987  0.00  0.00    -0.506 OA
ATOM     39  H   UNL     1       3.984  -1.988  28.651  0.00  0.00    +0.292 HD
ENDBRANCH  24  38
ENDBRANCH  14  15
ENDBRANCH   6  14
BRANCH   1  40
ATOM     40  O   UNL     1       8.051  -3.587  25.082  0.00  0.00    -0.337 OA
BRANCH  40  43
ATOM     41  C   UNL     1       5.421  -5.508  23.491  0.00  0.00    +0.197 C 
ATOM     42  O   UNL     1       6.109  -4.341  23.957  0.00  0.00    -0.346 OA
ATOM     43  C   UNL     1       7.173  -4.711  24.853  0.00  0.00    +0.282 C 
ATOM     44  C   UNL     1       6.535  -5.292  26.144  0.00  0.00    +0.201 C 
ATOM     45  C   UNL     1       5.698  -6.526  25.774  0.00  0.00    +0.178 C 
ATOM     46  C   UNL     1       4.713  -6.238  24.636  0.00  0.00    +0.171 C 
BRANCH  44  47
ATOM     47  O   UNL     1       7.496  -5.679  27.141  0.00  0.00    -0.384 OA
ATOM     48  H   UNL     1       7.971  -6.464  26.816  0.00  0.00    +0.210 HD
ENDBRANCH  44  47
BRANCH  45  49
ATOM     49  O   UNL     1       5.022  -7.028  26.939  0.00  0.00    -0.386 OA
ATOM     50  H   UNL     1       5.383  -6.579  27.723  0.00  0.00    +0.210 HD
ENDBRANCH  45  49
BRANCH  46  51
ATOM     51  O   UNL     1       4.184  -7.485  24.164  0.00  0.00    -0.387 OA
ATOM     52  H   UNL     1       4.526  -7.626  23.266  0.00  0.00    +0.210 HD
ENDBRANCH  46  51
ENDBRANCH  40  43
ENDBRANCH   1  40
TORSDOF 16
ENDMDL
MODEL 6
REMARK VINA RESULT:      -6.8      2.355      7.387
REMARK  Name = 
REMARK  16 active torsions:
REMARK  status: ('A' for Active; 'I' for Inactive)
REMARK    1  A    between atoms: C_2  and  O_47
REMARK    2  A    between atoms: C_4  and  O_46
REMARK    3  A    between atoms: C_5  and  O_45
REMARK    4  A    between atoms: C_7  and  O_10
REMARK    5  A    between atoms: O_10  and  C_11
REMARK    6  A    between atoms: C_12  and  O_23
REMARK    7  A    between atoms: C_15  and  C_21
REMARK    8  A    between atoms: C_16  and  O_20
REMARK    9  A    between atoms: C_18  and  O_19
REMARK   10  A    between atoms: C_21  and  O_22
REMARK   11  A    between atoms: O_23  and  C_24
REMARK   12  A    between atoms: C_25  and  C_37
REMARK   13  A    between atoms: C_29  and  O_36
REMARK   14  A    between atoms: C_31  and  O_35
REMARK   15  A    between atoms: C_39  and  O_44
REMARK   16  A    between atoms: C_40  and  O_43
REMARK                            x       y       z     vdW  Elec       q    Type
REMARK                         _______ _______ _______ _____ _____    ______ ____
ROOT
ATOM      1  C   UNL     1       7.401   0.035  23.615  0.00  0.00    +0.221 C 
ATOM      2  C   UNL     1       8.846  -0.315  23.218  0.00  0.00    +0.180 C 
ATOM      3  C   UNL     1       8.871  -1.330  22.065  0.00  0.00    +0.177 C 
ATOM      4  C   UNL     1       8.019  -2.566  22.368  0.00  0.00    +0.179 C 
ATOM      5  O   UNL     1       6.700  -2.198  22.784  0.00  0.00    -0.331 OA
ATOM      6  C   UNL     1       6.609  -1.274  23.872  0.00  0.00    +0.340 C 
ENDROOT
BRANCH   2   7
ATOM      7  O   UNL     1       9.581  -0.798  24.358  0.00  0.00    -0.386 OA
ATOM      8  H   UNL     1       9.063  -1.474  24.832  0.00  0.00    +0.210 HD
ENDBRANCH   2   7
BRANCH   3   9
ATOM      9  O   UNL     1      10.209  -1.688  21.720  0.00  0.00    -0.386 OA
ATOM     10  H   UNL     1      10.803  -1.315  22.393  0.00  0.00    +0.210 HD
ENDBRANCH   3   9
BRANCH   4  11
ATOM     11  C   UNL     1       8.638  -3.606  23.319  0.00  0.00    +0.190 C 
BRANCH  11  12
ATOM     12  O   UNL     1       7.623  -4.529  23.746  0.00  0.00    -0.392 OA
ATOM     13  H   UNL     1       8.039  -5.412  23.773  0.00  0.00    +0.210 HD
ENDBRANCH  11  12
ENDBRANCH   4  11
BRANCH   6  14
ATOM     14  O   UNL     1       6.942  -1.840  25.143  0.00  0.00    -0.453 OA
BRANCH  14  15
ATOM     15  C   UNL     1       6.078  -1.532  26.202  0.00  0.00    +0.214 A 
ATOM     16  C   UNL     1       6.311  -0.383  27.147  0.00  0.00    +0.238 A 
ATOM     17  O   UNL     1       7.432   0.044  27.399  0.00  0.00    -0.283 OA
ATOM     18  C   UNL     1       5.145   0.139  27.865  0.00  0.00    +0.109 A 
ATOM     19  C   UNL     1       4.039  -0.697  27.946  0.00  0.00    +0.147 A 
ATOM     20  C   UNL     1       2.912  -0.304  28.669  0.00  0.00    +0.092 A 
ATOM     21  C   UNL     1       2.919   0.922  29.326  0.00  0.00    +0.124 A 
ATOM     22  C   UNL     1       4.021   1.767  29.259  0.00  0.00    +0.091 A 
ATOM     23  O   UNL     1       4.017  -1.947  27.387  0.00  0.00    -0.451 OA
ATOM     24  C   UNL     1       5.133   1.379  28.516  0.00  0.00    +0.135 A 
ATOM     25  C   UNL     1       4.995  -2.301  26.461  0.00  0.00    +0.181 A 
BRANCH  25  26
ATOM     26  C   UNL     1       4.733  -3.638  25.853  0.00  0.00    +0.025 A 
ATOM     27  C   UNL     1       5.308  -4.789  26.441  0.00  0.00    +0.015 A 
ATOM     28  C   UNL     1       5.258  -6.037  25.808  0.00  0.00    +0.050 A 
ATOM     29  C   UNL     1       4.609  -6.153  24.592  0.00  0.00    +0.158 A 
ATOM     30  C   UNL     1       4.000  -5.049  24.010  0.00  0.00    +0.159 A 
ATOM     31  C   UNL     1       4.065  -3.797  24.622  0.00  0.00    +0.060 A 
BRANCH  29  32
ATOM     32  O   UNL     1       4.589  -7.361  23.959  0.00  0.00    -0.503 OA
ATOM     33  H   UNL     1       3.939  -7.251  23.237  0.00  0.00    +0.292 HD
ENDBRANCH  29  32
BRANCH  30  34
ATOM     34  O   UNL     1       3.371  -5.239  22.808  0.00  0.00    -0.503 OA
ATOM     35  H   UNL     1       4.009  -5.068  22.092  0.00  0.00    +0.292 HD
ENDBRANCH  30  34
ENDBRANCH  25  26
BRANCH  21  36
ATOM     36  O   UNL     1       1.853   1.345  30.064  0.00  0.00    -0.507 OA
ATOM     37  H   UNL     1       1.062   0.843  29.797  0.00  0.00    +0.292 HD
ENDBRANCH  21  36
BRANCH  24  38
ATOM     38  O   UNL     1       6.198   2.231  28.425  0.00  0.00    -0.506 OA
ATOM     39  H   UNL     1       6.913   1.934  29.010  0.00  0.00    +0.292 HD
ENDBRANCH  24  38
ENDBRANCH  14  15
ENDBRANCH   6  14
BRANCH   1  40
ATOM     40  O   UNL     1       6.777   0.897  22.626  0.00  0.00    -0.337 OA
BRANCH  40  43
ATOM     41  C   UNL     1       5.086   3.900  23.752  0.00  0.00    +0.197 C 
ATOM     42  O   UNL     1       5.245   2.644  23.080  0.00  0.00    -0.346 OA
ATOM     43  C   UNL     1       6.636   2.280  23.020  0.00  0.00    +0.282 C 
ATOM     44  C   UNL     1       7.356   3.284  22.080  0.00  0.00    +0.201 C 
ATOM     45  C   UNL     1       7.202   4.701  22.654  0.00  0.00    +0.178 C 
ATOM     46  C   UNL     1       5.743   5.042  22.971  0.00  0.00    +0.171 C 
BRANCH  44  47
ATOM     47  O   UNL     1       8.758   3.015  21.911  0.00  0.00    -0.384 OA
ATOM     48  H   UNL     1       9.139   3.720  21.358  0.00  0.00    +0.210 HD
ENDBRANCH  44  47
BRANCH  45  49
ATOM     49  O   UNL     1       7.782   5.661  21.754  0.00  0.00    -0.386 OA
ATOM     50  H   UNL     1       7.068   6.212  21.389  0.00  0.00    +0.210 HD
ENDBRANCH  45  49
BRANCH  46  51
ATOM     51  O   UNL     1       5.714   6.244  23.754  0.00  0.00    -0.387 OA
ATOM     52  H   UNL     1       5.229   6.049  24.572  0.00  0.00    +0.210 HD
ENDBRANCH  46  51
ENDBRANCH  40  43
ENDBRANCH   1  40
TORSDOF 16
ENDMDL
MODEL 7
REMARK VINA RESULT:      -6.8      2.114      7.032
REMARK  Name = 
REMARK  16 active torsions:
REMARK  status: ('A' for Active; 'I' for Inactive)
REMARK    1  A    between atoms: C_2  and  O_47
REMARK    2  A    between atoms: C_4  and  O_46
REMARK    3  A    between atoms: C_5  and  O_45
REMARK    4  A    between atoms: C_7  and  O_10
REMARK    5  A    between atoms: O_10  and  C_11
REMARK    6  A    between atoms: C_12  and  O_23
REMARK    7  A    between atoms: C_15  and  C_21
REMARK    8  A    between atoms: C_16  and  O_20
REMARK    9  A    between atoms: C_18  and  O_19
REMARK   10  A    between atoms: C_21  and  O_22
REMARK   11  A    between atoms: O_23  and  C_24
REMARK   12  A    between atoms: C_25  and  C_37
REMARK   13  A    between atoms: C_29  and  O_36
REMARK   14  A    between atoms: C_31  and  O_35
REMARK   15  A    between atoms: C_39  and  O_44
REMARK   16  A    between atoms: C_40  and  O_43
REMARK                            x       y       z     vdW  Elec       q    Type
REMARK                         _______ _______ _______ _____ _____    ______ ____
ROOT
ATOM      1  C   UNL     1       5.544  -0.237  27.800  0.00  0.00    +0.221 C 
ATOM      2  C   UNL     1       6.249   0.951  28.479  0.00  0.00    +0.180 C 
ATOM      3  C   UNL     1       5.901   2.273  27.778  0.00  0.00    +0.177 C 
ATOM      4  C   UNL     1       6.157   2.209  26.270  0.00  0.00    +0.179 C 
ATOM      5  O   UNL     1       5.529   1.064  25.684  0.00  0.00    -0.331 OA
ATOM      6  C   UNL     1       5.834  -0.202  26.276  0.00  0.00    +0.340 C 
ENDROOT
BRANCH   2   7
ATOM      7  O   UNL     1       7.673   0.738  28.519  0.00  0.00    -0.386 OA
ATOM      8  H   UNL     1       7.964   0.254  27.725  0.00  0.00    +0.210 HD
ENDBRANCH   2   7
BRANCH   3   9
ATOM      9  O   UNL     1       6.584   3.373  28.379  0.00  0.00    -0.386 OA
ATOM     10  H   UNL     1       5.929   4.066  28.567  0.00  0.00    +0.210 HD
ENDBRANCH   3   9
BRANCH   4  11
ATOM     11  C   UNL     1       7.622   2.338  25.819  0.00  0.00    +0.190 C 
BRANCH  11  12
ATOM     12  O   UNL     1       8.008   3.721  25.827  0.00  0.00    -0.392 OA
ATOM     13  H   UNL     1       8.592   3.856  25.057  0.00  0.00    +0.210 HD
ENDBRANCH  11  12
ENDBRANCH   4  11
BRANCH   6  14
ATOM     14  O   UNL     1       7.153  -0.674  25.988  0.00  0.00    -0.453 OA
BRANCH  14  15
ATOM     15  C   UNL     1       7.243  -1.751  25.097  0.00  0.00    +0.214 A 
ATOM     16  C   UNL     1       6.727  -3.130  25.417  0.00  0.00    +0.238 A 
ATOM     17  O   UNL     1       6.655  -3.555  26.564  0.00  0.00    -0.283 OA
ATOM     18  C   UNL     1       6.422  -4.008  24.284  0.00  0.00    +0.109 A 
ATOM     19  C   UNL     1       7.007  -3.681  23.068  0.00  0.00    +0.147 A 
ATOM     20  C   UNL     1       6.823  -4.503  21.956  0.00  0.00    +0.092 A 
ATOM     21  C   UNL     1       6.069  -5.665  22.085  0.00  0.00    +0.124 A 
ATOM     22  C   UNL     1       5.482  -6.008  23.298  0.00  0.00    +0.091 A 
ATOM     23  O   UNL     1       7.827  -2.595  22.912  0.00  0.00    -0.451 OA
ATOM     24  C   UNL     1       5.649  -5.171  24.398  0.00  0.00    +0.135 A 
ATOM     25  C   UNL     1       7.857  -1.612  23.899  0.00  0.00    +0.181 A 
BRANCH  25  26
ATOM     26  C   UNL     1       8.690  -0.442  23.499  0.00  0.00    +0.025 A 
ATOM     27  C   UNL     1       9.913  -0.202  24.168  0.00  0.00    +0.015 A 
ATOM     28  C   UNL     1      10.637   0.979  23.970  0.00  0.00    +0.050 A 
ATOM     29  C   UNL     1      10.159   1.925  23.081  0.00  0.00    +0.158 A 
ATOM     30  C   UNL     1       8.981   1.700  22.379  0.00  0.00    +0.159 A 
ATOM     31  C   UNL     1       8.241   0.535  22.587  0.00  0.00    +0.060 A 
BRANCH  29  32
ATOM     32  O   UNL     1      10.845   3.091  22.913  0.00  0.00    -0.503 OA
ATOM     33  H   UNL     1      10.200   3.792  23.134  0.00  0.00    +0.292 HD
ENDBRANCH  29  32
BRANCH  30  34
ATOM     34  O   UNL     1       8.570   2.677  21.512  0.00  0.00    -0.503 OA
ATOM     35  H   UNL     1       7.904   3.229  21.957  0.00  0.00    +0.292 HD
ENDBRANCH  30  34
ENDBRANCH  25  26
BRANCH  21  36
ATOM     36  O   UNL     1       5.875  -6.514  21.037  0.00  0.00    -0.507 OA
ATOM     37  H   UNL     1       6.041  -6.035  20.205  0.00  0.00    +0.292 HD
ENDBRANCH  21  36
BRANCH  24  38
ATOM     38  O   UNL     1       5.039  -5.497  25.576  0.00  0.00    -0.506 OA
ATOM     39  H   UNL     1       4.406  -4.805  25.828  0.00  0.00    +0.292 HD
ENDBRANCH  24  38
ENDBRANCH  14  15
ENDBRANCH   6  14
BRANCH   1  40
ATOM     40  O   UNL     1       4.126  -0.256  28.113  0.00  0.00    -0.337 OA
BRANCH  40  43
ATOM     41  C   UNL     1       3.817  -3.513  29.675  0.00  0.00    +0.197 C 
ATOM     42  O   UNL     1       4.476  -2.346  29.170  0.00  0.00    -0.346 OA
ATOM     43  C   UNL     1       3.572  -1.566  28.367  0.00  0.00    +0.282 C 
ATOM     44  C   UNL     1       3.246  -2.378  27.084  0.00  0.00    +0.201 C 
ATOM     45  C   UNL     1       2.587  -3.706  27.489  0.00  0.00    +0.178 C 
ATOM     46  C   UNL     1       3.405  -4.460  28.543  0.00  0.00    +0.171 C 
BRANCH  44  47
ATOM     47  O   UNL     1       2.365  -1.695  26.176  0.00  0.00    -0.384 OA
ATOM     48  H   UNL     1       2.854  -1.521  25.351  0.00  0.00    +0.210 HD
ENDBRANCH  44  47
BRANCH  45  49
ATOM     49  O   UNL     1       2.360  -4.516  26.324  0.00  0.00    -0.386 OA
ATOM     50  H   UNL     1       3.160  -5.042  26.152  0.00  0.00    +0.210 HD
ENDBRANCH  45  49
BRANCH  46  51
ATOM     51  O   UNL     1       2.600  -5.525  29.070  0.00  0.00    -0.387 OA
ATOM     52  H   UNL     1       1.709  -5.170  29.221  0.00  0.00    +0.210 HD
ENDBRANCH  46  51
ENDBRANCH  40  43
ENDBRANCH   1  40
TORSDOF 16
ENDMDL
MODEL 8
REMARK VINA RESULT:      -6.8      2.258      8.369
REMARK  Name = 
REMARK  16 active torsions:
REMARK  status: ('A' for Active; 'I' for Inactive)
REMARK    1  A    between atoms: C_2  and  O_47
REMARK    2  A    between atoms: C_4  and  O_46
REMARK    3  A    between atoms: C_5  and  O_45
REMARK    4  A    between atoms: C_7  and  O_10
REMARK    5  A    between atoms: O_10  and  C_11
REMARK    6  A    between atoms: C_12  and  O_23
REMARK    7  A    between atoms: C_15  and  C_21
REMARK    8  A    between atoms: C_16  and  O_20
REMARK    9  A    between atoms: C_18  and  O_19
REMARK   10  A    between atoms: C_21  and  O_22
REMARK   11  A    between atoms: O_23  and  C_24
REMARK   12  A    between atoms: C_25  and  C_37
REMARK   13  A    between atoms: C_29  and  O_36
REMARK   14  A    between atoms: C_31  and  O_35
REMARK   15  A    between atoms: C_39  and  O_44
REMARK   16  A    between atoms: C_40  and  O_43
REMARK                            x       y       z     vdW  Elec       q    Type
REMARK                         _______ _______ _______ _____ _____    ______ ____
ROOT
ATOM      1  C   UNL     1       5.379   0.118  26.017  0.00  0.00    +0.221 C 
ATOM      2  C   UNL     1       4.811   0.002  27.443  0.00  0.00    +0.180 C 
ATOM      3  C   UNL     1       5.172   1.238  28.282  0.00  0.00    +0.177 C 
ATOM      4  C   UNL     1       6.675   1.530  28.259  0.00  0.00    +0.179 C 
ATOM      5  O   UNL     1       7.175   1.578  26.919  0.00  0.00    -0.331 OA
ATOM      6  C   UNL     1       6.894   0.444  26.093  0.00  0.00    +0.340 C 
ENDROOT
BRANCH   2   7
ATOM      7  O   UNL     1       5.268  -1.210  28.072  0.00  0.00    -0.386 OA
ATOM      8  H   UNL     1       5.748  -1.004  28.894  0.00  0.00    +0.210 HD
ENDBRANCH   2   7
BRANCH   3   9
ATOM      9  O   UNL     1       4.682   1.117  29.617  0.00  0.00    -0.386 OA
ATOM     10  H   UNL     1       3.923   1.717  29.713  0.00  0.00    +0.210 HD
ENDBRANCH   3   9
BRANCH   4  11
ATOM     11  C   UNL     1       7.557   0.644  29.156  0.00  0.00    +0.190 C 
BRANCH  11  12
ATOM     12  O   UNL     1       8.317   1.472  30.051  0.00  0.00    -0.392 OA
ATOM     13  H   UNL     1       9.251   1.403  29.774  0.00  0.00    +0.210 HD
ENDBRANCH  11  12
ENDBRANCH   4  11
BRANCH   6  14
ATOM     14  O   UNL     1       7.659  -0.719  26.426  0.00  0.00    -0.453 OA
BRANCH  14  15
ATOM     15  C   UNL     1       7.648  -1.755  25.484  0.00  0.00    +0.214 A 
ATOM     16  C   UNL     1       7.080  -3.121  25.768  0.00  0.00    +0.238 A 
ATOM     17  O   UNL     1       7.046  -3.596  26.898  0.00  0.00    -0.283 OA
ATOM     18  C   UNL     1       6.674  -3.929  24.615  0.00  0.00    +0.109 A 
ATOM     19  C   UNL     1       7.211  -3.573  23.386  0.00  0.00    +0.147 A 
ATOM     20  C   UNL     1       6.929  -4.331  22.249  0.00  0.00    +0.092 A 
ATOM     21  C   UNL     1       6.124  -5.460  22.366  0.00  0.00    +0.124 A 
ATOM     22  C   UNL     1       5.584  -5.832  23.592  0.00  0.00    +0.091 A 
ATOM     23  O   UNL     1       8.075  -2.521  23.235  0.00  0.00    -0.451 OA
ATOM     24  C   UNL     1       5.850  -5.057  24.718  0.00  0.00    +0.135 A 
ATOM     25  C   UNL     1       8.206  -1.589  24.262  0.00  0.00    +0.181 A 
BRANCH  25  26
ATOM     26  C   UNL     1       9.075  -0.442  23.870  0.00  0.00    +0.025 A 
ATOM     27  C   UNL     1      10.173  -0.095  24.692  0.00  0.00    +0.015 A 
ATOM     28  C   UNL     1      10.902   1.081  24.481  0.00  0.00    +0.050 A 
ATOM     29  C   UNL     1      10.558   1.911  23.430  0.00  0.00    +0.158 A 
ATOM     30  C   UNL     1       9.510   1.577  22.581  0.00  0.00    +0.159 A 
ATOM     31  C   UNL     1       8.763   0.418  22.798  0.00  0.00    +0.060 A 
BRANCH  29  32
ATOM     32  O   UNL     1      11.246   3.075  23.244  0.00  0.00    -0.503 OA
ATOM     33  H   UNL     1      10.592   3.689  22.855  0.00  0.00    +0.292 HD
ENDBRANCH  29  32
BRANCH  30  34
ATOM     34  O   UNL     1       9.228   2.443  21.558  0.00  0.00    -0.503 OA
ATOM     35  H   UNL     1      10.066   2.782  21.196  0.00  0.00    +0.292 HD
ENDBRANCH  30  34
ENDBRANCH  25  26
BRANCH  21  36
ATOM     36  O   UNL     1       5.835  -6.248  21.292  0.00  0.00    -0.507 OA
ATOM     37  H   UNL     1       5.049  -6.787  21.496  0.00  0.00    +0.292 HD
ENDBRANCH  21  36
BRANCH  24  38
ATOM     38  O   UNL     1       5.286  -5.410  25.911  0.00  0.00    -0.506 OA
ATOM     39  H   UNL     1       4.803  -4.656  26.288  0.00  0.00    +0.292 HD
ENDBRANCH  24  38
ENDBRANCH  14  15
ENDBRANCH   6  14
BRANCH   1  40
ATOM     40  O   UNL     1       4.627   1.076  25.226  0.00  0.00    -0.337 OA
BRANCH  40  43
ATOM     41  C   UNL     1       5.660   4.551  25.279  0.00  0.00    +0.197 C 
ATOM     42  O   UNL     1       4.775   3.431  25.414  0.00  0.00    -0.346 OA
ATOM     43  C   UNL     1       5.361   2.255  24.829  0.00  0.00    +0.282 C 
ATOM     44  C   UNL     1       5.438   2.469  23.293  0.00  0.00    +0.201 C 
ATOM     45  C   UNL     1       6.312   3.698  23.004  0.00  0.00    +0.178 C 
ATOM     46  C   UNL     1       5.870   4.925  23.809  0.00  0.00    +0.171 C 
BRANCH  44  47
ATOM     47  O   UNL     1       5.985   1.347  22.579  0.00  0.00    -0.384 OA
ATOM     48  H   UNL     1       5.262   0.919  22.085  0.00  0.00    +0.210 HD
ENDBRANCH  44  47
BRANCH  45  49
ATOM     49  O   UNL     1       6.323   3.972  21.593  0.00  0.00    -0.386 OA
ATOM     50  H   UNL     1       5.440   3.780  21.234  0.00  0.00    +0.210 HD
ENDBRANCH  45  49
BRANCH  46  51
ATOM     51  O   UNL     1       6.889   5.930  23.705  0.00  0.00    -0.387 OA
ATOM     52  H   UNL     1       7.671   5.514  23.308  0.00  0.00    +0.210 HD
ENDBRANCH  46  51
ENDBRANCH  40  43
ENDBRANCH   1  40
TORSDOF 16
ENDMDL
MODEL 9
REMARK VINA RESULT:      -6.7      2.095      6.073
REMARK  Name = 
REMARK  16 active torsions:
REMARK  status: ('A' for Active; 'I' for Inactive)
REMARK    1  A    between atoms: C_2  and  O_47
REMARK    2  A    between atoms: C_4  and  O_46
REMARK    3  A    between atoms: C_5  and  O_45
REMARK    4  A    between atoms: C_7  and  O_10
REMARK    5  A    between atoms: O_10  and  C_11
REMARK    6  A    between atoms: C_12  and  O_23
REMARK    7  A    between atoms: C_15  and  C_21
REMARK    8  A    between atoms: C_16  and  O_20
REMARK    9  A    between atoms: C_18  and  O_19
REMARK   10  A    between atoms: C_21  and  O_22
REMARK   11  A    between atoms: O_23  and  C_24
REMARK   12  A    between atoms: C_25  and  C_37
REMARK   13  A    between atoms: C_29  and  O_36
REMARK   14  A    between atoms: C_31  and  O_35
REMARK   15  A    between atoms: C_39  and  O_44
REMARK   16  A    between atoms: C_40  and  O_43
REMARK                            x       y       z     vdW  Elec       q    Type
REMARK                         _______ _______ _______ _____ _____    ______ ____
ROOT
ATOM      1  C   UNL     1       8.198  -0.602  22.700  0.00  0.00    +0.221 C 
ATOM      2  C   UNL     1       8.723   0.535  21.804  0.00  0.00    +0.180 C 
ATOM      3  C   UNL     1      10.006   1.147  22.386  0.00  0.00    +0.177 C 
ATOM      4  C   UNL     1       9.831   1.570  23.847  0.00  0.00    +0.179 C 
ATOM      5  O   UNL     1       9.293   0.504  24.636  0.00  0.00    -0.331 OA
ATOM      6  C   UNL     1       8.082  -0.091  24.160  0.00  0.00    +0.340 C 
ENDROOT
BRANCH   2   7
ATOM      7  O   UNL     1       7.706   1.535  21.610  0.00  0.00    -0.386 OA
ATOM      8  H   UNL     1       7.818   2.260  22.250  0.00  0.00    +0.210 HD
ENDBRANCH   2   7
BRANCH   3   9
ATOM      9  O   UNL     1      10.475   2.228  21.580  0.00  0.00    -0.386 OA
ATOM     10  H   UNL     1      10.862   2.897  22.171  0.00  0.00    +0.210 HD
ENDBRANCH   3   9
BRANCH   4  11
ATOM     11  C   UNL     1       9.073   2.887  24.091  0.00  0.00    +0.190 C 
BRANCH  11  12
ATOM     12  O   UNL     1       9.322   3.794  23.005  0.00  0.00    -0.392 OA
ATOM     13  H   UNL     1      10.276   4.001  23.024  0.00  0.00    +0.210 HD
ENDBRANCH  11  12
ENDBRANCH   4  11
BRANCH   6  14
ATOM     14  O   UNL     1       6.924   0.731  24.332  0.00  0.00    -0.453 OA
BRANCH  14  15
ATOM     15  C   UNL     1       6.047   0.357  25.357  0.00  0.00    +0.214 A 
ATOM     16  C   UNL     1       5.445  -1.020  25.465  0.00  0.00    +0.238 A 
ATOM     17  O   UNL     1       5.255  -1.732  24.485  0.00  0.00    -0.283 OA
ATOM     18  C   UNL     1       4.973  -1.441  26.786  0.00  0.00    +0.109 A 
ATOM     19  C   UNL     1       4.730  -0.434  27.710  0.00  0.00    +0.147 A 
ATOM     20  C   UNL     1       4.213  -0.743  28.969  0.00  0.00    +0.092 A 
ATOM     21  C   UNL     1       3.923  -2.068  29.278  0.00  0.00    +0.124 A 
ATOM     22  C   UNL     1       4.156  -3.087  28.361  0.00  0.00    +0.091 A 
ATOM     23  O   UNL     1       4.920   0.892  27.423  0.00  0.00    -0.451 OA
ATOM     24  C   UNL     1       4.693  -2.773  27.115  0.00  0.00    +0.135 A 
ATOM     25  C   UNL     1       5.651   1.251  26.293  0.00  0.00    +0.181 A 
BRANCH  25  26
ATOM     26  C   UNL     1       5.878   2.723  26.217  0.00  0.00    +0.025 A 
ATOM     27  C   UNL     1       5.235   3.470  25.202  0.00  0.00    +0.015 A 
ATOM     28  C   UNL     1       5.559   4.811  24.964  0.00  0.00    +0.050 A 
ATOM     29  C   UNL     1       6.513   5.427  25.753  0.00  0.00    +0.158 A 
ATOM     30  C   UNL     1       7.133   4.731  26.782  0.00  0.00    +0.159 A 
ATOM     31  C   UNL     1       6.833   3.388  27.013  0.00  0.00    +0.060 A 
BRANCH  29  32
ATOM     32  O   UNL     1       6.854   6.723  25.498  0.00  0.00    -0.503 OA
ATOM     33  H   UNL     1       7.785   6.680  25.203  0.00  0.00    +0.292 HD
ENDBRANCH  29  32
BRANCH  30  34
ATOM     34  O   UNL     1       8.064   5.406  27.526  0.00  0.00    -0.503 OA
ATOM     35  H   UNL     1       7.606   5.885  28.239  0.00  0.00    +0.292 HD
ENDBRANCH  30  34
ENDBRANCH  25  26
BRANCH  21  36
ATOM     36  O   UNL     1       3.397  -2.424  30.485  0.00  0.00    -0.507 OA
ATOM     37  H   UNL     1       2.995  -1.639  30.900  0.00  0.00    +0.292 HD
ENDBRANCH  21  36
BRANCH  24  38
ATOM     38  O   UNL     1       4.952  -3.785  26.234  0.00  0.00    -0.506 OA
ATOM     39  H   UNL     1       5.847  -4.132  26.378  0.00  0.00    +0.292 HD
ENDBRANCH  24  38
ENDBRANCH  14  15
ENDBRANCH   6  14
BRANCH   1  40
ATOM     40  O   UNL     1       9.019  -1.794  22.573  0.00  0.00    -0.337 OA
BRANCH  40  43
ATOM     41  C   UNL     1       6.376  -4.140  21.765  0.00  0.00    +0.197 C 
ATOM     42  O   UNL     1       6.981  -2.868  22.028  0.00  0.00    -0.346 OA
ATOM     43  C   UNL     1       8.293  -3.043  22.592  0.00  0.00    +0.282 C 
ATOM     44  C   UNL     1       8.130  -3.663  24.006  0.00  0.00    +0.201 C 
ATOM     45  C   UNL     1       7.422  -5.020  23.876  0.00  0.00    +0.178 C 
ATOM     46  C   UNL     1       6.130  -4.924  23.058  0.00  0.00    +0.171 C 
BRANCH  44  47
ATOM     47  O   UNL     1       9.376  -3.866  24.695  0.00  0.00    -0.384 OA
ATOM     48  H   UNL     1       9.902  -3.050  24.619  0.00  0.00    +0.210 HD
ENDBRANCH  44  47
BRANCH  45  49
ATOM     49  O   UNL     1       7.177  -5.572  25.180  0.00  0.00    -0.386 OA
ATOM     50  H   UNL     1       7.547  -6.472  25.209  0.00  0.00    +0.210 HD
ENDBRANCH  45  49
BRANCH  46  51
ATOM     51  O   UNL     1       5.688  -6.252  22.744  0.00  0.00    -0.387 OA
ATOM     52  H   UNL     1       5.292  -6.625  23.549  0.00  0.00    +0.210 HD
ENDBRANCH  46  51
ENDBRANCH  40  43
ENDBRANCH   1  40
TORSDOF 16
ENDMDL
