MODEL 1
REMARK VINA RESULT:      -7.3      0.000      0.000
REMARK  Name = 
REMARK  21 active torsions:
REMARK  status: ('A' for Active; 'I' for Inactive)
REMARK    1  A    between atoms: C_1  and  C_2
REMARK    2  A    between atoms: C_3  and  O_55
REMARK    3  A    between atoms: C_5  and  O_54
REMARK    4  A    between atoms: C_7  and  O_53
REMARK    5  A    between atoms: C_8  and  O_11
REMARK    6  A    between atoms: O_11  and  C_12
REMARK    7  A    between atoms: C_13  and  O_52
REMARK    8  A    between atoms: C_15  and  O_51
REMARK    9  A    between atoms: C_17  and  C_43
REMARK   10  A    between atoms: C_19  and  O_21
REMARK   11  A    between atoms: O_21  and  C_22
REMARK   12  A    between atoms: C_23  and  C_35
REMARK   13  A    between atoms: C_27  and  O_34
REMARK   14  A    between atoms: C_29  and  O_33
REMARK   15  A    between atoms: C_37  and  O_42
REMARK   16  A    between atoms: C_38  and  O_41
REMARK   17  A    between atoms: C_43  and  O_44
REMARK   18  A    between atoms: O_44  and  C_45
REMARK   19  A    between atoms: C_45  and  C_47
REMARK   20  A    between atoms: C_47  and  C_48
REMARK   21  A    between atoms: C_48  and  O_50
REMARK                            x       y       z     vdW  Elec       q    Type
REMARK                         _______ _______ _______ _____ _____    ______ ____
ROOT
ATOM      1  C   UNL     1       7.513   0.639  23.069  0.00  0.00    +0.221 C 
ATOM      2  C   UNL     1       6.770  -0.624  23.609  0.00  0.00    +0.340 C 
ATOM      3  O   UNL     1       7.690  -1.504  24.289  0.00  0.00    -0.330 OA
ATOM      4  C   UNL     1       8.720  -2.030  23.403  0.00  0.00    +0.191 C 
ATOM      5  C   UNL     1       9.523  -0.878  22.763  0.00  0.00    +0.178 C 
ATOM      6  C   UNL     1       8.585   0.126  22.087  0.00  0.00    +0.180 C 
ENDROOT
BRANCH   6   7
ATOM      7  O   UNL     1       9.371   1.150  21.455  0.00  0.00    -0.386 OA
ATOM      8  H   UNL     1      10.265   1.105  21.842  0.00  0.00    +0.210 HD
ENDBRANCH   6   7
BRANCH   5   9
ATOM      9  O   UNL     1      10.446  -1.361  21.779  0.00  0.00    -0.386 OA
ATOM     10  H   UNL     1      10.135  -0.996  20.926  0.00  0.00    +0.210 HD
ENDBRANCH   5   9
BRANCH   4  11
ATOM     11  C   UNL     1       8.182  -3.015  22.328  0.00  0.00    +0.266 C 
BRANCH  11  12
ATOM     12  O   UNL     1       7.255  -3.964  22.886  0.00  0.00    -0.462 OA
BRANCH  12  13
ATOM     13  C   UNL     1       7.754  -5.217  23.062  0.00  0.00    +0.318 C 
ATOM     14  O   UNL     1       8.524  -5.553  23.951  0.00  0.00    -0.250 OA
BRANCH  13  15
ATOM     15  C   UNL     1       7.203  -6.167  22.047  0.00  0.00    +0.240 C 
BRANCH  15  16
ATOM     16  C   UNL     1       6.034  -5.617  21.292  0.00  0.00    +0.316 C 
ATOM     17  O   UNL     1       5.954  -5.503  20.080  0.00  0.00    -0.250 OA
BRANCH  16  18
ATOM     18  O   UNL     1       5.013  -5.252  22.109  0.00  0.00    -0.480 OA
ATOM     19  H   UNL     1       5.252  -5.173  23.053  0.00  0.00    +0.295 HD
ENDBRANCH  16  18
ENDBRANCH  15  16
ENDBRANCH  13  15
ENDBRANCH  12  13
ENDBRANCH  11  12
ENDBRANCH   4  11
BRANCH   2  20
ATOM     20  O   UNL     1       5.625  -0.252  24.411  0.00  0.00    -0.453 OA
BRANCH  20  21
ATOM     21  C   UNL     1       5.304  -1.103  25.481  0.00  0.00    +0.214 A 
ATOM     22  C   UNL     1       4.839  -2.519  25.230  0.00  0.00    +0.238 A 
ATOM     23  O   UNL     1       4.312  -2.871  24.179  0.00  0.00    -0.283 OA
ATOM     24  C   UNL     1       5.006  -3.490  26.305  0.00  0.00    +0.109 A 
ATOM     25  C   UNL     1       5.042  -2.978  27.587  0.00  0.00    +0.147 A 
ATOM     26  C   UNL     1       5.061  -3.844  28.680  0.00  0.00    +0.092 A 
ATOM     27  C   UNL     1       5.071  -5.221  28.454  0.00  0.00    +0.124 A 
ATOM     28  C   UNL     1       5.087  -5.743  27.165  0.00  0.00    +0.091 A 
ATOM     29  O   UNL     1       5.036  -1.630  27.826  0.00  0.00    -0.451 OA
ATOM     30  C   UNL     1       5.060  -4.870  26.082  0.00  0.00    +0.135 A 
ATOM     31  C   UNL     1       5.352  -0.733  26.789  0.00  0.00    +0.181 A 
BRANCH  31  32
ATOM     32  C   UNL     1       5.731   0.613  27.361  0.00  0.00    +0.025 A 
ATOM     33  C   UNL     1       5.167   1.837  26.942  0.00  0.00    +0.015 A 
ATOM     34  C   UNL     1       5.639   3.075  27.422  0.00  0.00    +0.050 A 
ATOM     35  C   UNL     1       6.672   3.112  28.343  0.00  0.00    +0.158 A 
ATOM     36  C   UNL     1       7.203   1.926  28.825  0.00  0.00    +0.159 A 
ATOM     37  C   UNL     1       6.745   0.697  28.343  0.00  0.00    +0.060 A 
BRANCH  36  38
ATOM     38  O   UNL     1       8.174   1.964  29.785  0.00  0.00    -0.503 OA
ATOM     39  H   UNL     1       7.801   1.559  30.585  0.00  0.00    +0.292 HD
ENDBRANCH  36  38
BRANCH  35  40
ATOM     40  O   UNL     1       7.178   4.303  28.773  0.00  0.00    -0.503 OA
ATOM     41  H   UNL     1       6.474   4.755  29.264  0.00  0.00    +0.292 HD
ENDBRANCH  35  40
ENDBRANCH  31  32
BRANCH  30  42
ATOM     42  O   UNL     1       5.114  -5.371  24.811  0.00  0.00    -0.506 OA
ATOM     43  H   UNL     1       5.248  -6.332  24.839  0.00  0.00    +0.292 HD
ENDBRANCH  30  42
BRANCH  27  44
ATOM     44  O   UNL     1       5.077  -6.114  29.486  0.00  0.00    -0.507 OA
ATOM     45  H   UNL     1       5.528  -5.726  30.245  0.00  0.00    +0.292 HD
ENDBRANCH  27  44
ENDBRANCH  20  21
ENDBRANCH   2  20
BRANCH   1  46
ATOM     46  O   UNL     1       7.990   1.529  24.115  0.00  0.00    -0.337 OA
BRANCH  46  50
ATOM     47  C   UNL     1       4.829   4.361  23.950  0.00  0.00    +0.041 C 
ATOM     48  C   UNL     1       5.890   4.285  22.845  0.00  0.00    +0.149 C 
ATOM     49  O   UNL     1       6.589   3.014  22.879  0.00  0.00    -0.343 OA
ATOM     50  C   UNL     1       7.452   2.867  24.021  0.00  0.00    +0.282 C 
ATOM     51  C   UNL     1       8.547   3.962  23.936  0.00  0.00    +0.201 C 
ATOM     52  C   UNL     1       7.865   5.329  24.035  0.00  0.00    +0.179 C 
ATOM     53  C   UNL     1       6.851   5.497  22.896  0.00  0.00    +0.174 C 
BRANCH  53  54
ATOM     54  O   UNL     1       7.520   5.631  21.636  0.00  0.00    -0.387 OA
ATOM     55  H   UNL     1       7.052   6.343  21.146  0.00  0.00    +0.210 HD
ENDBRANCH  53  54
BRANCH  52  56
ATOM     56  O   UNL     1       8.850   6.367  24.073  0.00  0.00    -0.386 OA
ATOM     57  H   UNL     1       8.603   6.995  24.771  0.00  0.00    +0.210 HD
ENDBRANCH  52  56
BRANCH  51  58
ATOM     58  O   UNL     1       9.271   3.829  22.691  0.00  0.00    -0.384 OA
ATOM     59  H   UNL     1      10.055   3.280  22.891  0.00  0.00    +0.210 HD
ENDBRANCH  51  58
ENDBRANCH  46  50
ENDBRANCH   1  46
TORSDOF 20
ENDMDL
MODEL 2
REMARK VINA RESULT:      -7.3      1.654      2.305
REMARK  Name = 
REMARK  21 active torsions:
REMARK  status: ('A' for Active; 'I' for Inactive)
REMARK    1  A    between atoms: C_1  and  C_2
REMARK    2  A    between atoms: C_3  and  O_55
REMARK    3  A    between atoms: C_5  and  O_54
REMARK    4  A    between atoms: C_7  and  O_53
REMARK    5  A    between atoms: C_8  and  O_11
REMARK    6  A    between atoms: O_11  and  C_12
REMARK    7  A    between atoms: C_13  and  O_52
REMARK    8  A    between atoms: C_15  and  O_51
REMARK    9  A    between atoms: C_17  and  C_43
REMARK   10  A    between atoms: C_19  and  O_21
REMARK   11  A    between atoms: O_21  and  C_22
REMARK   12  A    between atoms: C_23  and  C_35
REMARK   13  A    between atoms: C_27  and  O_34
REMARK   14  A    between atoms: C_29  and  O_33
REMARK   15  A    between atoms: C_37  and  O_42
REMARK   16  A    between atoms: C_38  and  O_41
REMARK   17  A    between atoms: C_43  and  O_44
REMARK   18  A    between atoms: O_44  and  C_45
REMARK   19  A    between atoms: C_45  and  C_47
REMARK   20  A    between atoms: C_47  and  C_48
REMARK   21  A    between atoms: C_48  and  O_50
REMARK                            x       y       z     vdW  Elec       q    Type
REMARK                         _______ _______ _______ _____ _____    ______ ____
ROOT
ATOM      1  C   UNL     1       7.772   0.907  23.784  0.00  0.00    +0.221 C 
ATOM      2  C   UNL     1       7.342  -0.589  23.918  0.00  0.00    +0.340 C 
ATOM      3  O   UNL     1       7.996  -1.208  25.044  0.00  0.00    -0.330 OA
ATOM      4  C   UNL     1       9.445  -1.252  24.896  0.00  0.00    +0.191 C 
ATOM      5  C   UNL     1      10.014   0.172  24.719  0.00  0.00    +0.178 C 
ATOM      6  C   UNL     1       9.301   0.902  23.577  0.00  0.00    +0.180 C 
ENDROOT
BRANCH   6   7
ATOM      7  O   UNL     1       9.896   2.198  23.406  0.00  0.00    -0.386 OA
ATOM      8  H   UNL     1       9.199   2.793  23.071  0.00  0.00    +0.210 HD
ENDBRANCH   6   7
BRANCH   5   9
ATOM      9  O   UNL     1      11.416   0.147  24.428  0.00  0.00    -0.386 OA
ATOM     10  H   UNL     1      11.802  -0.503  25.049  0.00  0.00    +0.210 HD
ENDBRANCH   5   9
BRANCH   4  11
ATOM     11  C   UNL     1       9.933  -2.205  23.770  0.00  0.00    +0.266 C 
BRANCH  11  12
ATOM     12  O   UNL     1      10.142  -3.545  24.253  0.00  0.00    -0.462 OA
BRANCH  12  13
ATOM     13  C   UNL     1       9.025  -4.319  24.294  0.00  0.00    +0.318 C 
ATOM     14  O   UNL     1       8.086  -4.247  23.513  0.00  0.00    -0.250 OA
BRANCH  13  15
ATOM     15  C   UNL     1       9.102  -5.323  25.399  0.00  0.00    +0.240 C 
BRANCH  15  16
ATOM     16  C   UNL     1       8.337  -4.922  26.620  0.00  0.00    +0.316 C 
ATOM     17  O   UNL     1       7.943  -5.673  27.497  0.00  0.00    -0.250 OA
BRANCH  16  18
ATOM     18  O   UNL     1       8.120  -3.583  26.681  0.00  0.00    -0.480 OA
ATOM     19  H   UNL     1       7.946  -3.236  27.577  0.00  0.00    +0.295 HD
ENDBRANCH  16  18
ENDBRANCH  15  16
ENDBRANCH  13  15
ENDBRANCH  12  13
ENDBRANCH  11  12
ENDBRANCH   4  11
BRANCH   2  20
ATOM     20  O   UNL     1       5.901  -0.714  23.943  0.00  0.00    -0.453 OA
BRANCH  20  21
ATOM     21  C   UNL     1       5.372  -1.705  24.787  0.00  0.00    +0.214 A 
ATOM     22  C   UNL     1       5.071  -3.089  24.261  0.00  0.00    +0.238 A 
ATOM     23  O   UNL     1       4.847  -3.318  23.077  0.00  0.00    -0.283 OA
ATOM     24  C   UNL     1       5.020  -4.185  25.223  0.00  0.00    +0.109 A 
ATOM     25  C   UNL     1       4.700  -3.841  26.521  0.00  0.00    +0.147 A 
ATOM     26  C   UNL     1       4.495  -4.839  27.473  0.00  0.00    +0.092 A 
ATOM     27  C   UNL     1       4.645  -6.174  27.099  0.00  0.00    +0.124 A 
ATOM     28  C   UNL     1       5.016  -6.526  25.806  0.00  0.00    +0.091 A 
ATOM     29  O   UNL     1       4.554  -2.535  26.906  0.00  0.00    -0.451 OA
ATOM     30  C   UNL     1       5.211  -5.523  24.862  0.00  0.00    +0.135 A 
ATOM     31  C   UNL     1       5.066  -1.504  26.098  0.00  0.00    +0.181 A 
BRANCH  31  32
ATOM     32  C   UNL     1       5.208  -0.232  26.900  0.00  0.00    +0.025 A 
ATOM     33  C   UNL     1       4.270   0.823  26.883  0.00  0.00    +0.015 A 
ATOM     34  C   UNL     1       4.505   2.037  27.557  0.00  0.00    +0.050 A 
ATOM     35  C   UNL     1       5.676   2.215  28.276  0.00  0.00    +0.158 A 
ATOM     36  C   UNL     1       6.586   1.174  28.369  0.00  0.00    +0.159 A 
ATOM     37  C   UNL     1       6.362  -0.028  27.693  0.00  0.00    +0.060 A 
BRANCH  36  38
ATOM     38  O   UNL     1       7.707   1.326  29.136  0.00  0.00    -0.503 OA
ATOM     39  H   UNL     1       8.192   0.486  29.103  0.00  0.00    +0.292 HD
ENDBRANCH  36  38
BRANCH  35  40
ATOM     40  O   UNL     1       5.945   3.404  28.886  0.00  0.00    -0.503 OA
ATOM     41  H   UNL     1       6.597   3.229  29.582  0.00  0.00    +0.292 HD
ENDBRANCH  35  40
ENDBRANCH  31  32
BRANCH  30  42
ATOM     42  O   UNL     1       5.613  -5.855  23.598  0.00  0.00    -0.506 OA
ATOM     43  H   UNL     1       4.844  -6.105  23.060  0.00  0.00    +0.292 HD
ENDBRANCH  30  42
BRANCH  27  44
ATOM     44  O   UNL     1       4.444  -7.192  27.986  0.00  0.00    -0.507 OA
ATOM     45  H   UNL     1       3.775  -7.793  27.639  0.00  0.00    +0.292 HD
ENDBRANCH  27  44
ENDBRANCH  20  21
ENDBRANCH   2  20
BRANCH   1  46
ATOM     46  O   UNL     1       7.285   1.755  24.859  0.00  0.00    -0.337 OA
BRANCH  46  50
ATOM     47  C   UNL     1       3.663   3.223  23.195  0.00  0.00    +0.041 C 
ATOM     48  C   UNL     1       5.023   3.566  22.574  0.00  0.00    +0.149 C 
ATOM     49  O   UNL     1       6.050   2.642  23.020  0.00  0.00    -0.343 OA
ATOM     50  C   UNL     1       6.396   2.801  24.408  0.00  0.00    +0.282 C 
ATOM     51  C   UNL     1       6.984   4.225  24.592  0.00  0.00    +0.201 C 
ATOM     52  C   UNL     1       5.887   5.241  24.263  0.00  0.00    +0.179 C 
ATOM     53  C   UNL     1       5.403   5.046  22.820  0.00  0.00    +0.174 C 
BRANCH  53  54
ATOM     54  O   UNL     1       6.415   5.443  21.887  0.00  0.00    -0.387 OA
ATOM     55  H   UNL     1       5.947   5.860  21.130  0.00  0.00    +0.210 HD
ENDBRANCH  53  54
BRANCH  52  56
ATOM     56  O   UNL     1       6.353   6.568  24.528  0.00  0.00    -0.386 OA
ATOM     57  H   UNL     1       5.977   6.859  25.375  0.00  0.00    +0.210 HD
ENDBRANCH  52  56
BRANCH  51  58
ATOM     58  O   UNL     1       8.129   4.393  23.727  0.00  0.00    -0.384 OA
ATOM     59  H   UNL     1       7.818   4.923  22.965  0.00  0.00    +0.210 HD
ENDBRANCH  51  58
ENDBRANCH  46  50
ENDBRANCH   1  46
TORSDOF 20
ENDMDL
MODEL 3
REMARK VINA RESULT:      -7.2      2.028      2.796
REMARK  Name = 
REMARK  21 active torsions:
REMARK  status: ('A' for Active; 'I' for Inactive)
REMARK    1  A    between atoms: C_1  and  C_2
REMARK    2  A    between atoms: C_3  and  O_55
REMARK    3  A    between atoms: C_5  and  O_54
REMARK    4  A    between atoms: C_7  and  O_53
REMARK    5  A    between atoms: C_8  and  O_11
REMARK    6  A    between atoms: O_11  and  C_12
REMARK    7  A    between atoms: C_13  and  O_52
REMARK    8  A    between atoms: C_15  and  O_51
REMARK    9  A    between atoms: C_17  and  C_43
REMARK   10  A    between atoms: C_19  and  O_21
REMARK   11  A    between atoms: O_21  and  C_22
REMARK   12  A    between atoms: C_23  and  C_35
REMARK   13  A    between atoms: C_27  and  O_34
REMARK   14  A    between atoms: C_29  and  O_33
REMARK   15  A    between atoms: C_37  and  O_42
REMARK   16  A    between atoms: C_38  and  O_41
REMARK   17  A    between atoms: C_43  and  O_44
REMARK   18  A    between atoms: O_44  and  C_45
REMARK   19  A    between atoms: C_45  and  C_47
REMARK   20  A    between atoms: C_47  and  C_48
REMARK   21  A    between atoms: C_48  and  O_50
REMARK                            x       y       z     vdW  Elec       q    Type
REMARK                         _______ _______ _______ _____ _____    ______ ____
ROOT
ATOM      1  C   UNL     1       7.928  -2.013  24.219  0.00  0.00    +0.221 C 
ATOM      2  C   UNL     1       6.628  -2.723  24.715  0.00  0.00    +0.340 C 
ATOM      3  O   UNL     1       6.861  -3.390  25.972  0.00  0.00    -0.330 OA
ATOM      4  C   UNL     1       7.848  -4.458  25.866  0.00  0.00    +0.191 C 
ATOM      5  C   UNL     1       9.192  -3.901  25.348  0.00  0.00    +0.178 C 
ATOM      6  C   UNL     1       8.988  -3.119  24.047  0.00  0.00    +0.180 C 
ENDROOT
BRANCH   6   7
ATOM      7  O   UNL     1      10.266  -2.669  23.567  0.00  0.00    -0.386 OA
ATOM      8  H   UNL     1      10.279  -1.698  23.654  0.00  0.00    +0.210 HD
ENDBRANCH   6   7
BRANCH   5   9
ATOM      9  O   UNL     1      10.134  -4.950  25.096  0.00  0.00    -0.386 OA
ATOM     10  H   UNL     1      10.125  -5.085  24.127  0.00  0.00    +0.210 HD
ENDBRANCH   5   9
BRANCH   4  11
ATOM     11  C   UNL     1       7.372  -5.673  25.023  0.00  0.00    +0.266 C 
BRANCH  11  12
ATOM     12  O   UNL     1       5.939  -5.811  25.043  0.00  0.00    -0.462 OA
BRANCH  12  13
ATOM     13  C   UNL     1       5.391  -6.262  23.883  0.00  0.00    +0.318 C 
ATOM     14  O   UNL     1       4.274  -6.749  23.771  0.00  0.00    -0.250 OA
BRANCH  13  15
ATOM     15  C   UNL     1       6.314  -6.044  22.727  0.00  0.00    +0.240 C 
BRANCH  15  16
ATOM     16  C   UNL     1       5.738  -5.160  21.666  0.00  0.00    +0.316 C 
ATOM     17  O   UNL     1       5.979  -5.225  20.472  0.00  0.00    -0.250 OA
BRANCH  16  18
ATOM     18  O   UNL     1       4.872  -4.243  22.168  0.00  0.00    -0.480 OA
ATOM     19  H   UNL     1       5.234  -3.340  22.254  0.00  0.00    +0.295 HD
ENDBRANCH  16  18
ENDBRANCH  15  16
ENDBRANCH  13  15
ENDBRANCH  12  13
ENDBRANCH  11  12
ENDBRANCH   4  11
BRANCH   2  20
ATOM     20  O   UNL     1       5.513  -1.802  24.746  0.00  0.00    -0.453 OA
BRANCH  20  21
ATOM     21  C   UNL     1       4.531  -2.038  25.722  0.00  0.00    +0.214 A 
ATOM     22  C   UNL     1       3.563  -3.191  25.584  0.00  0.00    +0.238 A 
ATOM     23  O   UNL     1       3.274  -3.691  24.502  0.00  0.00    -0.283 OA
ATOM     24  C   UNL     1       2.932  -3.698  26.797  0.00  0.00    +0.109 A 
ATOM     25  C   UNL     1       2.816  -2.804  27.842  0.00  0.00    +0.147 A 
ATOM     26  C   UNL     1       2.105  -3.162  28.987  0.00  0.00    +0.092 A 
ATOM     27  C   UNL     1       1.544  -4.437  29.065  0.00  0.00    +0.124 A 
ATOM     28  C   UNL     1       1.701  -5.361  28.037  0.00  0.00    +0.091 A 
ATOM     29  O   UNL     1       3.363  -1.550  27.784  0.00  0.00    -0.451 OA
ATOM     30  C   UNL     1       2.405  -4.990  26.897  0.00  0.00    +0.135 A 
ATOM     31  C   UNL     1       4.351  -1.261  26.825  0.00  0.00    +0.181 A 
BRANCH  31  32
ATOM     32  C   UNL     1       5.120  -0.023  27.223  0.00  0.00    +0.025 A 
ATOM     33  C   UNL     1       4.752   1.289  26.857  0.00  0.00    +0.015 A 
ATOM     34  C   UNL     1       5.566   2.400  27.153  0.00  0.00    +0.050 A 
ATOM     35  C   UNL     1       6.756   2.222  27.838  0.00  0.00    +0.158 A 
ATOM     36  C   UNL     1       7.114   0.956  28.271  0.00  0.00    +0.159 A 
ATOM     37  C   UNL     1       6.315  -0.150  27.970  0.00  0.00    +0.060 A 
BRANCH  36  38
ATOM     38  O   UNL     1       8.254   0.793  29.008  0.00  0.00    -0.503 OA
ATOM     39  H   UNL     1       8.327   1.562  29.596  0.00  0.00    +0.292 HD
ENDBRANCH  36  38
BRANCH  35  40
ATOM     40  O   UNL     1       7.583   3.278  28.083  0.00  0.00    -0.503 OA
ATOM     41  H   UNL     1       8.367   2.932  28.537  0.00  0.00    +0.292 HD
ENDBRANCH  35  40
ENDBRANCH  31  32
BRANCH  30  42
ATOM     42  O   UNL     1       2.598  -5.902  25.897  0.00  0.00    -0.506 OA
ATOM     43  H   UNL     1       2.320  -5.525  25.046  0.00  0.00    +0.292 HD
ENDBRANCH  30  42
BRANCH  27  44
ATOM     44  O   UNL     1       0.828  -4.838  30.156  0.00  0.00    -0.507 OA
ATOM     45  H   UNL     1      -0.101  -4.928  29.914  0.00  0.00    +0.292 HD
ENDBRANCH  27  44
ENDBRANCH  20  21
ENDBRANCH   2  20
BRANCH   1  46
ATOM     46  O   UNL     1       8.326  -0.881  25.038  0.00  0.00    -0.337 OA
BRANCH  46  50
ATOM     47  C   UNL     1       6.245   2.236  23.038  0.00  0.00    +0.041 C 
ATOM     48  C   UNL     1       7.416   1.503  22.372  0.00  0.00    +0.149 C 
ATOM     49  O   UNL     1       7.683   0.237  23.030  0.00  0.00    -0.343 OA
ATOM     50  C   UNL     1       8.241   0.387  24.349  0.00  0.00    +0.282 C 
ATOM     51  C   UNL     1       9.611   1.101  24.210  0.00  0.00    +0.201 C 
ATOM     52  C   UNL     1       9.364   2.502  23.643  0.00  0.00    +0.179 C 
ATOM     53  C   UNL     1       8.671   2.404  22.278  0.00  0.00    +0.174 C 
BRANCH  53  54
ATOM     54  O   UNL     1       9.566   1.878  21.290  0.00  0.00    -0.387 OA
ATOM     55  H   UNL     1      10.357   1.554  21.776  0.00  0.00    +0.210 HD
ENDBRANCH  53  54
BRANCH  52  56
ATOM     56  O   UNL     1      10.591   3.237  23.603  0.00  0.00    -0.386 OA
ATOM     57  H   UNL     1      10.377   4.184  23.572  0.00  0.00    +0.210 HD
ENDBRANCH  52  56
BRANCH  51  58
ATOM     58  O   UNL     1      10.473   0.331  23.342  0.00  0.00    -0.384 OA
ATOM     59  H   UNL     1      10.935  -0.311  23.919  0.00  0.00    +0.210 HD
ENDBRANCH  51  58
ENDBRANCH  46  50
ENDBRANCH   1  46
TORSDOF 20
ENDMDL
MODEL 4
REMARK VINA RESULT:      -7.1      1.923      7.693
REMARK  Name = 
REMARK  21 active torsions:
REMARK  status: ('A' for Active; 'I' for Inactive)
REMARK    1  A    between atoms: C_1  and  C_2
REMARK    2  A    between atoms: C_3  and  O_55
REMARK    3  A    between atoms: C_5  and  O_54
REMARK    4  A    between atoms: C_7  and  O_53
REMARK    5  A    between atoms: C_8  and  O_11
REMARK    6  A    between atoms: O_11  and  C_12
REMARK    7  A    between atoms: C_13  and  O_52
REMARK    8  A    between atoms: C_15  and  O_51
REMARK    9  A    between atoms: C_17  and  C_43
REMARK   10  A    between atoms: C_19  and  O_21
REMARK   11  A    between atoms: O_21  and  C_22
REMARK   12  A    between atoms: C_23  and  C_35
REMARK   13  A    between atoms: C_27  and  O_34
REMARK   14  A    between atoms: C_29  and  O_33
REMARK   15  A    between atoms: C_37  and  O_42
REMARK   16  A    between atoms: C_38  and  O_41
REMARK   17  A    between atoms: C_43  and  O_44
REMARK   18  A    between atoms: O_44  and  C_45
REMARK   19  A    between atoms: C_45  and  C_47
REMARK   20  A    between atoms: C_47  and  C_48
REMARK   21  A    between atoms: C_48  and  O_50
REMARK                            x       y       z     vdW  Elec       q    Type
REMARK                         _______ _______ _______ _____ _____    ______ ____
ROOT
ATOM      1  C   UNL     1       5.681  -0.745  26.557  0.00  0.00    +0.221 C 
ATOM      2  C   UNL     1       7.221  -0.497  26.471  0.00  0.00    +0.340 C 
ATOM      3  O   UNL     1       7.636   0.476  27.451  0.00  0.00    -0.330 OA
ATOM      4  C   UNL     1       7.038   1.786  27.229  0.00  0.00    +0.191 C 
ATOM      5  C   UNL     1       5.497   1.688  27.255  0.00  0.00    +0.178 C 
ATOM      6  C   UNL     1       5.007   0.614  26.279  0.00  0.00    +0.180 C 
ENDROOT
BRANCH   6   7
ATOM      7  O   UNL     1       3.570   0.594  26.289  0.00  0.00    -0.386 OA
ATOM      8  H   UNL     1       3.282   1.064  27.093  0.00  0.00    +0.210 HD
ENDBRANCH   6   7
BRANCH   5   9
ATOM      9  O   UNL     1       4.885   2.932  26.896  0.00  0.00    -0.386 OA
ATOM     10  H   UNL     1       4.124   3.035  27.502  0.00  0.00    +0.210 HD
ENDBRANCH   5   9
BRANCH   4  11
ATOM     11  C   UNL     1       7.542   2.497  25.943  0.00  0.00    +0.266 C 
BRANCH  11  12
ATOM     12  O   UNL     1       7.704   3.914  26.141  0.00  0.00    -0.462 OA
BRANCH  12  13
ATOM     13  C   UNL     1       8.062   4.610  25.029  0.00  0.00    +0.318 C 
ATOM     14  O   UNL     1       9.198   4.974  24.757  0.00  0.00    -0.250 OA
BRANCH  13  15
ATOM     15  C   UNL     1       6.887   4.844  24.135  0.00  0.00    +0.240 C 
BRANCH  15  16
ATOM     16  C   UNL     1       7.031   4.210  22.787  0.00  0.00    +0.316 C 
ATOM     17  O   UNL     1       6.232   3.450  22.265  0.00  0.00    -0.250 OA
BRANCH  16  18
ATOM     18  O   UNL     1       8.174   4.582  22.158  0.00  0.00    -0.480 OA
ATOM     19  H   UNL     1       8.991   4.445  22.676  0.00  0.00    +0.295 HD
ENDBRANCH  16  18
ENDBRANCH  15  16
ENDBRANCH  13  15
ENDBRANCH  12  13
ENDBRANCH  11  12
ENDBRANCH   4  11
BRANCH   2  20
ATOM     20  O   UNL     1       7.952  -1.743  26.545  0.00  0.00    -0.453 OA
BRANCH  20  21
ATOM     21  C   UNL     1       7.897  -2.572  25.412  0.00  0.00    +0.214 A 
ATOM     22  C   UNL     1       7.319  -3.965  25.501  0.00  0.00    +0.238 A 
ATOM     23  O   UNL     1       7.276  -4.603  26.548  0.00  0.00    -0.283 OA
ATOM     24  C   UNL     1       6.821  -4.574  24.272  0.00  0.00    +0.109 A 
ATOM     25  C   UNL     1       7.385  -4.120  23.097  0.00  0.00    +0.147 A 
ATOM     26  C   UNL     1       7.068  -4.742  21.889  0.00  0.00    +0.092 A 
ATOM     27  C   UNL     1       6.160  -5.801  21.890  0.00  0.00    +0.124 A 
ATOM     28  C   UNL     1       5.550  -6.231  23.064  0.00  0.00    +0.091 A 
ATOM     29  O   UNL     1       8.274  -3.079  23.077  0.00  0.00    -0.451 OA
ATOM     30  C   UNL     1       5.879  -5.609  24.264  0.00  0.00    +0.135 A 
ATOM     31  C   UNL     1       8.369  -2.218  24.186  0.00  0.00    +0.181 A 
BRANCH  31  32
ATOM     32  C   UNL     1       9.037  -0.924  23.786  0.00  0.00    +0.025 A 
ATOM     33  C   UNL     1      10.100  -0.329  24.498  0.00  0.00    +0.015 A 
ATOM     34  C   UNL     1      10.610   0.938  24.152  0.00  0.00    +0.050 A 
ATOM     35  C   UNL     1      10.078   1.628  23.076  0.00  0.00    +0.158 A 
ATOM     36  C   UNL     1       9.079   1.043  22.314  0.00  0.00    +0.159 A 
ATOM     37  C   UNL     1       8.563  -0.208  22.661  0.00  0.00    +0.060 A 
BRANCH  36  38
ATOM     38  O   UNL     1       8.604   1.695  21.211  0.00  0.00    -0.503 OA
ATOM     39  H   UNL     1       7.916   2.309  21.516  0.00  0.00    +0.292 HD
ENDBRANCH  36  38
BRANCH  35  40
ATOM     40  O   UNL     1      10.521   2.878  22.763  0.00  0.00    -0.503 OA
ATOM     41  H   UNL     1      10.135   3.115  21.905  0.00  0.00    +0.292 HD
ENDBRANCH  35  40
ENDBRANCH  31  32
BRANCH  30  42
ATOM     42  O   UNL     1       5.258  -5.997  25.417  0.00  0.00    -0.506 OA
ATOM     43  H   UNL     1       4.294  -5.988  25.294  0.00  0.00    +0.292 HD
ENDBRANCH  30  42
BRANCH  27  44
ATOM     44  O   UNL     1       5.823  -6.455  20.740  0.00  0.00    -0.507 OA
ATOM     45  H   UNL     1       4.968  -6.886  20.855  0.00  0.00    +0.292 HD
ENDBRANCH  27  44
ENDBRANCH  20  21
ENDBRANCH   2  20
BRANCH   1  46
ATOM     46  O   UNL     1       5.263  -1.417  27.776  0.00  0.00    -0.337 OA
BRANCH  46  50
ATOM     47  C   UNL     1       2.523  -3.709  25.478  0.00  0.00    +0.041 C 
ATOM     48  C   UNL     1       2.180  -3.245  26.899  0.00  0.00    +0.149 C 
ATOM     49  O   UNL     1       3.041  -2.153  27.314  0.00  0.00    -0.343 OA
ATOM     50  C   UNL     1       4.404  -2.555  27.539  0.00  0.00    +0.282 C 
ATOM     51  C   UNL     1       4.413  -3.581  28.702  0.00  0.00    +0.201 C 
ATOM     52  C   UNL     1       3.627  -4.817  28.256  0.00  0.00    +0.179 C 
ATOM     53  C   UNL     1       2.187  -4.425  27.900  0.00  0.00    +0.174 C 
BRANCH  53  54
ATOM     54  O   UNL     1       1.454  -4.061  29.076  0.00  0.00    -0.387 OA
ATOM     55  H   UNL     1       0.685  -4.672  29.125  0.00  0.00    +0.210 HD
ENDBRANCH  53  54
BRANCH  52  56
ATOM     56  O   UNL     1       3.705  -5.835  29.258  0.00  0.00    -0.386 OA
ATOM     57  H   UNL     1       2.804  -6.145  29.447  0.00  0.00    +0.210 HD
ENDBRANCH  52  56
BRANCH  51  58
ATOM     58  O   UNL     1       3.825  -2.985  29.880  0.00  0.00    -0.384 OA
ATOM     59  H   UNL     1       4.568  -2.616  30.398  0.00  0.00    +0.210 HD
ENDBRANCH  51  58
ENDBRANCH  46  50
ENDBRANCH   1  46
TORSDOF 20
ENDMDL
MODEL 5
REMARK VINA RESULT:      -7.0      2.251      8.074
REMARK  Name = 
REMARK  21 active torsions:
REMARK  status: ('A' for Active; 'I' for Inactive)
REMARK    1  A    between atoms: C_1  and  C_2
REMARK    2  A    between atoms: C_3  and  O_55
REMARK    3  A    between atoms: C_5  and  O_54
REMARK    4  A    between atoms: C_7  and  O_53
REMARK    5  A    between atoms: C_8  and  O_11
REMARK    6  A    between atoms: O_11  and  C_12
REMARK    7  A    between atoms: C_13  and  O_52
REMARK    8  A    between atoms: C_15  and  O_51
REMARK    9  A    between atoms: C_17  and  C_43
REMARK   10  A    between atoms: C_19  and  O_21
REMARK   11  A    between atoms: O_21  and  C_22
REMARK   12  A    between atoms: C_23  and  C_35
REMARK   13  A    between atoms: C_27  and  O_34
REMARK   14  A    between atoms: C_29  and  O_33
REMARK   15  A    between atoms: C_37  and  O_42
REMARK   16  A    between atoms: C_38  and  O_41
REMARK   17  A    between atoms: C_43  and  O_44
REMARK   18  A    between atoms: O_44  and  C_45
REMARK   19  A    between atoms: C_45  and  C_47
REMARK   20  A    between atoms: C_47  and  C_48
REMARK   21  A    between atoms: C_48  and  O_50
REMARK                            x       y       z     vdW  Elec       q    Type
REMARK                         _______ _______ _______ _____ _____    ______ ____
ROOT
ATOM      1  C   UNL     1       5.048  -4.274  23.888  0.00  0.00    +0.221 C 
ATOM      2  C   UNL     1       5.647  -2.835  23.783  0.00  0.00    +0.340 C 
ATOM      3  O   UNL     1       5.803  -2.447  22.403  0.00  0.00    -0.330 OA
ATOM      4  C   UNL     1       6.748  -3.294  21.685  0.00  0.00    +0.191 C 
ATOM      5  C   UNL     1       6.296  -4.769  21.734  0.00  0.00    +0.178 C 
ATOM      6  C   UNL     1       6.047  -5.212  23.179  0.00  0.00    +0.180 C 
ENDROOT
BRANCH   6   7
ATOM      7  O   UNL     1       5.686  -6.603  23.187  0.00  0.00    -0.386 OA
ATOM      8  H   UNL     1       4.911  -6.702  22.603  0.00  0.00    +0.210 HD
ENDBRANCH   6   7
BRANCH   5   9
ATOM      9  O   UNL     1       7.279  -5.640  21.162  0.00  0.00    -0.386 OA
ATOM     10  H   UNL     1       7.102  -6.523  21.545  0.00  0.00    +0.210 HD
ENDBRANCH   5   9
BRANCH   4  11
ATOM     11  C   UNL     1       8.219  -3.133  22.157  0.00  0.00    +0.266 C 
BRANCH  11  12
ATOM     12  O   UNL     1       8.633  -1.754  22.164  0.00  0.00    -0.462 OA
BRANCH  12  13
ATOM     13  C   UNL     1       8.936  -1.253  23.391  0.00  0.00    +0.318 C 
ATOM     14  O   UNL     1       9.127  -1.919  24.399  0.00  0.00    -0.250 OA
BRANCH  13  15
ATOM     15  C   UNL     1       9.057   0.237  23.353  0.00  0.00    +0.240 C 
BRANCH  15  16
ATOM     16  C   UNL     1       9.991   0.783  24.387  0.00  0.00    +0.316 C 
ATOM     17  O   UNL     1      11.051   1.345  24.169  0.00  0.00    -0.250 OA
BRANCH  16  18
ATOM     18  O   UNL     1       9.528   0.604  25.651  0.00  0.00    -0.480 OA
ATOM     19  H   UNL     1       9.077   1.380  26.036  0.00  0.00    +0.295 HD
ENDBRANCH  16  18
ENDBRANCH  15  16
ENDBRANCH  13  15
ENDBRANCH  12  13
ENDBRANCH  11  12
ENDBRANCH   4  11
BRANCH   2  20
ATOM     20  O   UNL     1       4.877  -1.894  24.566  0.00  0.00    -0.453 OA
BRANCH  20  21
ATOM     21  C   UNL     1       5.591  -1.116  25.492  0.00  0.00    +0.214 A 
ATOM     22  C   UNL     1       5.818   0.359  25.251  0.00  0.00    +0.238 A 
ATOM     23  O   UNL     1       5.807   0.860  24.132  0.00  0.00    -0.283 OA
ATOM     24  C   UNL     1       6.090   1.203  26.409  0.00  0.00    +0.109 A 
ATOM     25  C   UNL     1       6.654   0.574  27.502  0.00  0.00    +0.147 A 
ATOM     26  C   UNL     1       7.072   1.328  28.597  0.00  0.00    +0.092 A 
ATOM     27  C   UNL     1       6.887   2.710  28.580  0.00  0.00    +0.124 A 
ATOM     28  C   UNL     1       6.275   3.345  27.504  0.00  0.00    +0.091 A 
ATOM     29  O   UNL     1       6.839  -0.782  27.537  0.00  0.00    -0.451 OA
ATOM     30  C   UNL     1       5.868   2.584  26.413  0.00  0.00    +0.135 A 
ATOM     31  C   UNL     1       6.147  -1.608  26.632  0.00  0.00    +0.181 A 
BRANCH  31  32
ATOM     32  C   UNL     1       6.134  -3.034  27.131  0.00  0.00    +0.025 A 
ATOM     33  C   UNL     1       5.160  -3.557  28.008  0.00  0.00    +0.015 A 
ATOM     34  C   UNL     1       5.258  -4.858  28.538  0.00  0.00    +0.050 A 
ATOM     35  C   UNL     1       6.325  -5.670  28.187  0.00  0.00    +0.158 A 
ATOM     36  C   UNL     1       7.262  -5.211  27.276  0.00  0.00    +0.159 A 
ATOM     37  C   UNL     1       7.175  -3.917  26.757  0.00  0.00    +0.060 A 
BRANCH  36  38
ATOM     38  O   UNL     1       8.275  -6.038  26.877  0.00  0.00    -0.503 OA
ATOM     39  H   UNL     1       8.847  -6.182  27.648  0.00  0.00    +0.292 HD
ENDBRANCH  36  38
BRANCH  35  40
ATOM     40  O   UNL     1       6.465  -6.910  28.734  0.00  0.00    -0.503 OA
ATOM     41  H   UNL     1       7.106  -6.834  29.459  0.00  0.00    +0.292 HD
ENDBRANCH  35  40
ENDBRANCH  31  32
BRANCH  30  42
ATOM     42  O   UNL     1       5.230   3.192  25.367  0.00  0.00    -0.506 OA
ATOM     43  H   UNL     1       5.198   2.591  24.605  0.00  0.00    +0.292 HD
ENDBRANCH  30  42
BRANCH  27  44
ATOM     44  O   UNL     1       7.289   3.499  29.619  0.00  0.00    -0.507 OA
ATOM     45  H   UNL     1       8.063   4.009  29.354  0.00  0.00    +0.292 HD
ENDBRANCH  27  44
ENDBRANCH  20  21
ENDBRANCH   2  20
BRANCH   1  46
ATOM     46  O   UNL     1       3.669  -4.368  23.440  0.00  0.00    -0.337 OA
BRANCH  46  50
ATOM     47  C   UNL     1       1.954  -5.587  27.130  0.00  0.00    +0.041 C 
ATOM     48  C   UNL     1       2.805  -6.548  26.289  0.00  0.00    +0.149 C 
ATOM     49  O   UNL     1       3.618  -5.823  25.331  0.00  0.00    -0.343 OA
ATOM     50  C   UNL     1       2.852  -5.225  24.270  0.00  0.00    +0.282 C 
ATOM     51  C   UNL     1       2.162  -6.366  23.478  0.00  0.00    +0.201 C 
ATOM     52  C   UNL     1       1.185  -7.077  24.418  0.00  0.00    +0.179 C 
ATOM     53  C   UNL     1       1.937  -7.646  25.628  0.00  0.00    +0.174 C 
BRANCH  53  54
ATOM     54  O   UNL     1       2.770  -8.745  25.238  0.00  0.00    -0.387 OA
ATOM     55  H   UNL     1       3.690  -8.400  25.210  0.00  0.00    +0.210 HD
ENDBRANCH  53  54
BRANCH  52  56
ATOM     56  O   UNL     1       0.444  -8.066  23.697  0.00  0.00    -0.386 OA
ATOM     57  H   UNL     1       0.138  -7.671  22.864  0.00  0.00    +0.210 HD
ENDBRANCH  52  56
BRANCH  51  58
ATOM     58  O   UNL     1       3.161  -7.280  22.973  0.00  0.00    -0.384 OA
ATOM     59  H   UNL     1       2.791  -7.660  22.151  0.00  0.00    +0.210 HD
ENDBRANCH  51  58
ENDBRANCH  46  50
ENDBRANCH   1  46
TORSDOF 20
ENDMDL
MODEL 6
REMARK VINA RESULT:      -6.8      2.342      7.299
REMARK  Name = 
REMARK  21 active torsions:
REMARK  status: ('A' for Active; 'I' for Inactive)
REMARK    1  A    between atoms: C_1  and  C_2
REMARK    2  A    between atoms: C_3  and  O_55
REMARK    3  A    between atoms: C_5  and  O_54
REMARK    4  A    between atoms: C_7  and  O_53
REMARK    5  A    between atoms: C_8  and  O_11
REMARK    6  A    between atoms: O_11  and  C_12
REMARK    7  A    between atoms: C_13  and  O_52
REMARK    8  A    between atoms: C_15  and  O_51
REMARK    9  A    between atoms: C_17  and  C_43
REMARK   10  A    between atoms: C_19  and  O_21
REMARK   11  A    between atoms: O_21  and  C_22
REMARK   12  A    between atoms: C_23  and  C_35
REMARK   13  A    between atoms: C_27  and  O_34
REMARK   14  A    between atoms: C_29  and  O_33
REMARK   15  A    between atoms: C_37  and  O_42
REMARK   16  A    between atoms: C_38  and  O_41
REMARK   17  A    between atoms: C_43  and  O_44
REMARK   18  A    between atoms: O_44  and  C_45
REMARK   19  A    between atoms: C_45  and  C_47
REMARK   20  A    between atoms: C_47  and  C_48
REMARK   21  A    between atoms: C_48  and  O_50
REMARK                            x       y       z     vdW  Elec       q    Type
REMARK                         _______ _______ _______ _____ _____    ______ ____
ROOT
ATOM      1  C   UNL     1       4.800   2.204  25.188  0.00  0.00    +0.221 C 
ATOM      2  C   UNL     1       5.908   1.271  24.603  0.00  0.00    +0.340 C 
ATOM      3  O   UNL     1       5.485  -0.107  24.641  0.00  0.00    -0.330 OA
ATOM      4  C   UNL     1       5.273  -0.591  26.000  0.00  0.00    +0.191 C 
ATOM      5  C   UNL     1       4.213   0.269  26.720  0.00  0.00    +0.178 C 
ATOM      6  C   UNL     1       4.580   1.754  26.646  0.00  0.00    +0.180 C 
ENDROOT
BRANCH   6   7
ATOM      7  O   UNL     1       3.602   2.514  27.376  0.00  0.00    -0.386 OA
ATOM      8  H   UNL     1       3.814   3.457  27.245  0.00  0.00    +0.210 HD
ENDBRANCH   6   7
BRANCH   5   9
ATOM      9  O   UNL     1       4.091  -0.094  28.101  0.00  0.00    -0.386 OA
ATOM     10  H   UNL     1       4.870   0.298  28.545  0.00  0.00    +0.210 HD
ENDBRANCH   5   9
BRANCH   4  11
ATOM     11  C   UNL     1       6.578  -0.707  26.836  0.00  0.00    +0.266 C 
BRANCH  11  12
ATOM     12  O   UNL     1       7.143  -2.030  26.769  0.00  0.00    -0.462 OA
BRANCH  12  13
ATOM     13  C   UNL     1       6.276  -3.037  27.057  0.00  0.00    +0.318 C 
ATOM     14  O   UNL     1       5.306  -2.946  27.796  0.00  0.00    -0.250 OA
BRANCH  13  15
ATOM     15  C   UNL     1       6.629  -4.285  26.311  0.00  0.00    +0.240 C 
BRANCH  15  16
ATOM     16  C   UNL     1       7.521  -5.205  27.082  0.00  0.00    +0.316 C 
ATOM     17  O   UNL     1       7.181  -5.921  28.009  0.00  0.00    -0.250 OA
BRANCH  16  18
ATOM     18  O   UNL     1       8.801  -5.186  26.631  0.00  0.00    -0.480 OA
ATOM     19  H   UNL     1       9.276  -4.345  26.779  0.00  0.00    +0.295 HD
ENDBRANCH  16  18
ENDBRANCH  15  16
ENDBRANCH  13  15
ENDBRANCH  12  13
ENDBRANCH  11  12
ENDBRANCH   4  11
BRANCH   2  20
ATOM     20  O   UNL     1       6.320   1.715  23.289  0.00  0.00    -0.453 OA
BRANCH  20  21
ATOM     21  C   UNL     1       7.640   2.180  23.169  0.00  0.00    +0.214 A 
ATOM     22  C   UNL     1       7.923   3.633  22.865  0.00  0.00    +0.238 A 
ATOM     23  O   UNL     1       7.117   4.364  22.298  0.00  0.00    -0.283 OA
ATOM     24  C   UNL     1       9.228   4.165  23.243  0.00  0.00    +0.109 A 
ATOM     25  C   UNL     1      10.258   3.249  23.323  0.00  0.00    +0.147 A 
ATOM     26  C   UNL     1      11.562   3.690  23.543  0.00  0.00    +0.092 A 
ATOM     27  C   UNL     1      11.799   5.055  23.707  0.00  0.00    +0.124 A 
ATOM     28  C   UNL     1      10.759   5.978  23.678  0.00  0.00    +0.091 A 
ATOM     29  O   UNL     1      10.043   1.906  23.169  0.00  0.00    -0.451 OA
ATOM     30  C   UNL     1       9.462   5.529  23.450  0.00  0.00    +0.135 A 
ATOM     31  C   UNL     1       8.740   1.388  23.281  0.00  0.00    +0.181 A 
BRANCH  31  32
ATOM     32  C   UNL     1       8.790  -0.101  23.536  0.00  0.00    +0.025 A 
ATOM     33  C   UNL     1       9.572  -0.705  24.543  0.00  0.00    +0.015 A 
ATOM     34  C   UNL     1       9.676  -2.105  24.664  0.00  0.00    +0.050 A 
ATOM     35  C   UNL     1       8.986  -2.928  23.790  0.00  0.00    +0.158 A 
ATOM     36  C   UNL     1       8.157  -2.368  22.833  0.00  0.00    +0.159 A 
ATOM     37  C   UNL     1       8.059  -0.980  22.702  0.00  0.00    +0.060 A 
BRANCH  36  38
ATOM     38  O   UNL     1       7.423  -3.182  22.017  0.00  0.00    -0.503 OA
ATOM     39  H   UNL     1       6.693  -2.649  21.662  0.00  0.00    +0.292 HD
ENDBRANCH  36  38
BRANCH  35  40
ATOM     40  O   UNL     1       9.121  -4.283  23.857  0.00  0.00    -0.503 OA
ATOM     41  H   UNL     1       8.231  -4.665  23.796  0.00  0.00    +0.292 HD
ENDBRANCH  35  40
ENDBRANCH  31  32
BRANCH  30  42
ATOM     42  O   UNL     1       8.427   6.422  23.458  0.00  0.00    -0.506 OA
ATOM     43  H   UNL     1       8.340   6.820  24.339  0.00  0.00    +0.292 HD
ENDBRANCH  30  42
BRANCH  27  44
ATOM     44  O   UNL     1      13.056   5.543  23.913  0.00  0.00    -0.507 OA
ATOM     45  H   UNL     1      13.041   6.172  24.643  0.00  0.00    +0.292 HD
ENDBRANCH  27  44
ENDBRANCH  20  21
ENDBRANCH   2  20
BRANCH   1  46
ATOM     46  O   UNL     1       3.605   2.282  24.365  0.00  0.00    -0.337 OA
BRANCH  46  50
ATOM     47  C   UNL     1       1.127   5.732  24.340  0.00  0.00    +0.041 C 
ATOM     48  C   UNL     1       1.534   5.032  23.037  0.00  0.00    +0.149 C 
ATOM     49  O   UNL     1       1.997   3.681  23.292  0.00  0.00    -0.343 OA
ATOM     50  C   UNL     1       3.264   3.630  23.971  0.00  0.00    +0.282 C 
ATOM     51  C   UNL     1       4.326   4.286  23.050  0.00  0.00    +0.201 C 
ATOM     52  C   UNL     1       3.953   5.758  22.862  0.00  0.00    +0.179 C 
ATOM     53  C   UNL     1       2.557   5.873  22.235  0.00  0.00    +0.174 C 
BRANCH  53  54
ATOM     54  O   UNL     1       2.575   5.433  20.872  0.00  0.00    -0.387 OA
ATOM     55  H   UNL     1       1.899   5.967  20.398  0.00  0.00    +0.210 HD
ENDBRANCH  53  54
BRANCH  52  56
ATOM     56  O   UNL     1       4.967   6.429  22.110  0.00  0.00    -0.386 OA
ATOM     57  H   UNL     1       5.576   6.858  22.734  0.00  0.00    +0.210 HD
ENDBRANCH  52  56
BRANCH  51  58
ATOM     58  O   UNL     1       4.364   3.591  21.783  0.00  0.00    -0.384 OA
ATOM     59  H   UNL     1       3.843   2.772  21.907  0.00  0.00    +0.210 HD
ENDBRANCH  51  58
ENDBRANCH  46  50
ENDBRANCH   1  46
TORSDOF 20
ENDMDL
MODEL 7
REMARK VINA RESULT:      -6.6      2.006      5.732
REMARK  Name = 
REMARK  21 active torsions:
REMARK  status: ('A' for Active; 'I' for Inactive)
REMARK    1  A    between atoms: C_1  and  C_2
REMARK    2  A    between atoms: C_3  and  O_55
REMARK    3  A    between atoms: C_5  and  O_54
REMARK    4  A    between atoms: C_7  and  O_53
REMARK    5  A    between atoms: C_8  and  O_11
REMARK    6  A    between atoms: O_11  and  C_12
REMARK    7  A    between atoms: C_13  and  O_52
REMARK    8  A    between atoms: C_15  and  O_51
REMARK    9  A    between atoms: C_17  and  C_43
REMARK   10  A    between atoms: C_19  and  O_21
REMARK   11  A    between atoms: O_21  and  C_22
REMARK   12  A    between atoms: C_23  and  C_35
REMARK   13  A    between atoms: C_27  and  O_34
REMARK   14  A    between atoms: C_29  and  O_33
REMARK   15  A    between atoms: C_37  and  O_42
REMARK   16  A    between atoms: C_38  and  O_41
REMARK   17  A    between atoms: C_43  and  O_44
REMARK   18  A    between atoms: O_44  and  C_45
REMARK   19  A    between atoms: C_45  and  C_47
REMARK   20  A    between atoms: C_47  and  C_48
REMARK   21  A    between atoms: C_48  and  O_50
REMARK                            x       y       z     vdW  Elec       q    Type
REMARK                         _______ _______ _______ _____ _____    ______ ____
ROOT
ATOM      1  C   UNL     1       6.047   0.141  26.449  0.00  0.00    +0.221 C 
ATOM      2  C   UNL     1       6.444  -1.312  26.860  0.00  0.00    +0.340 C 
ATOM      3  O   UNL     1       5.407  -2.246  26.495  0.00  0.00    -0.330 OA
ATOM      4  C   UNL     1       4.154  -1.993  27.194  0.00  0.00    +0.191 C 
ATOM      5  C   UNL     1       3.652  -0.562  26.904  0.00  0.00    +0.178 C 
ATOM      6  C   UNL     1       4.745   0.467  27.208  0.00  0.00    +0.180 C 
ENDROOT
BRANCH   6   7
ATOM      7  O   UNL     1       4.222   1.786  26.981  0.00  0.00    -0.386 OA
ATOM      8  H   UNL     1       4.903   2.419  27.273  0.00  0.00    +0.210 HD
ENDBRANCH   6   7
BRANCH   5   9
ATOM      9  O   UNL     1       2.500  -0.238  27.691  0.00  0.00    -0.386 OA
ATOM     10  H   UNL     1       2.677   0.650  28.062  0.00  0.00    +0.210 HD
ENDBRANCH   5   9
BRANCH   4  11
ATOM     11  C   UNL     1       4.218  -2.276  28.721  0.00  0.00    +0.266 C 
BRANCH  11  12
ATOM     12  O   UNL     1       3.488  -3.465  29.077  0.00  0.00    -0.462 OA
BRANCH  12  13
ATOM     13  C   UNL     1       4.050  -4.629  28.656  0.00  0.00    +0.318 C 
ATOM     14  O   UNL     1       3.613  -5.343  27.764  0.00  0.00    -0.250 OA
BRANCH  13  15
ATOM     15  C   UNL     1       5.318  -4.917  29.395  0.00  0.00    +0.240 C 
BRANCH  15  16
ATOM     16  C   UNL     1       5.784  -6.331  29.246  0.00  0.00    +0.316 C 
ATOM     17  O   UNL     1       5.912  -7.141  30.148  0.00  0.00    -0.250 OA
BRANCH  16  18
ATOM     18  O   UNL     1       6.052  -6.656  27.955  0.00  0.00    -0.480 OA
ATOM     19  H   UNL     1       5.888  -7.592  27.726  0.00  0.00    +0.295 HD
ENDBRANCH  16  18
ENDBRANCH  15  16
ENDBRANCH  13  15
ENDBRANCH  12  13
ENDBRANCH  11  12
ENDBRANCH   4  11
BRANCH   2  20
ATOM     20  O   UNL     1       7.748  -1.662  26.340  0.00  0.00    -0.453 OA
BRANCH  20  21
ATOM     21  C   UNL     1       7.773  -2.559  25.259  0.00  0.00    +0.214 A 
ATOM     22  C   UNL     1       7.198  -3.950  25.395  0.00  0.00    +0.238 A 
ATOM     23  O   UNL     1       7.090  -4.523  26.474  0.00  0.00    -0.283 OA
ATOM     24  C   UNL     1       6.787  -4.638  24.176  0.00  0.00    +0.109 A 
ATOM     25  C   UNL     1       7.425  -4.251  23.015  0.00  0.00    +0.147 A 
ATOM     26  C   UNL     1       7.193  -4.949  21.830  0.00  0.00    +0.092 A 
ATOM     27  C   UNL     1       6.293  -6.015  21.836  0.00  0.00    +0.124 A 
ATOM     28  C   UNL     1       5.609  -6.378  22.991  0.00  0.00    +0.091 A 
ATOM     29  O   UNL     1       8.308  -3.205  22.990  0.00  0.00    -0.451 OA
ATOM     30  C   UNL     1       5.854  -5.680  24.170  0.00  0.00    +0.135 A 
ATOM     31  C   UNL     1       8.323  -2.277  24.047  0.00  0.00    +0.181 A 
BRANCH  31  32
ATOM     32  C   UNL     1       9.009  -1.002  23.613  0.00  0.00    +0.025 A 
ATOM     33  C   UNL     1      10.040  -0.370  24.342  0.00  0.00    +0.015 A 
ATOM     34  C   UNL     1      10.565   0.879  23.956  0.00  0.00    +0.050 A 
ATOM     35  C   UNL     1      10.082   1.513  22.823  0.00  0.00    +0.158 A 
ATOM     36  C   UNL     1       9.118   0.888  22.048  0.00  0.00    +0.159 A 
ATOM     37  C   UNL     1       8.586  -0.345  22.434  0.00  0.00    +0.060 A 
BRANCH  36  38
ATOM     38  O   UNL     1       8.693   1.483  20.893  0.00  0.00    -0.503 OA
ATOM     39  H   UNL     1       8.303   2.338  21.139  0.00  0.00    +0.292 HD
ENDBRANCH  36  38
BRANCH  35  40
ATOM     40  O   UNL     1      10.538   2.747  22.468  0.00  0.00    -0.503 OA
ATOM     41  H   UNL     1      10.966   3.132  23.249  0.00  0.00    +0.292 HD
ENDBRANCH  35  40
ENDBRANCH  31  32
BRANCH  30  42
ATOM     42  O   UNL     1       5.159  -6.003  25.302  0.00  0.00    -0.506 OA
ATOM     43  H   UNL     1       4.692  -6.846  25.175  0.00  0.00    +0.292 HD
ENDBRANCH  30  42
BRANCH  27  44
ATOM     44  O   UNL     1       6.037  -6.741  20.709  0.00  0.00    -0.507 OA
ATOM     45  H   UNL     1       6.307  -7.656  20.848  0.00  0.00    +0.292 HD
ENDBRANCH  27  44
ENDBRANCH  20  21
ENDBRANCH   2  20
BRANCH   1  46
ATOM     46  O   UNL     1       6.008   0.353  25.012  0.00  0.00    -0.337 OA
BRANCH  46  50
ATOM     47  C   UNL     1       8.603   3.709  25.235  0.00  0.00    +0.041 C 
ATOM     48  C   UNL     1       7.085   3.862  25.397  0.00  0.00    +0.149 C 
ATOM     49  O   UNL     1       6.462   2.589  25.711  0.00  0.00    -0.343 OA
ATOM     50  C   UNL     1       6.473   1.662  24.611  0.00  0.00    +0.282 C 
ATOM     51  C   UNL     1       5.639   2.280  23.458  0.00  0.00    +0.201 C 
ATOM     52  C   UNL     1       6.337   3.563  22.998  0.00  0.00    +0.179 C 
ATOM     53  C   UNL     1       6.449   4.551  24.166  0.00  0.00    +0.174 C 
BRANCH  53  54
ATOM     54  O   UNL     1       5.161   5.068  24.519  0.00  0.00    -0.387 OA
ATOM     55  H   UNL     1       4.741   4.398  25.102  0.00  0.00    +0.210 HD
ENDBRANCH  53  54
BRANCH  52  56
ATOM     56  O   UNL     1       5.661   4.107  21.860  0.00  0.00    -0.386 OA
ATOM     57  H   UNL     1       5.692   3.450  21.145  0.00  0.00    +0.210 HD
ENDBRANCH  52  56
BRANCH  51  58
ATOM     58  O   UNL     1       4.298   2.553  23.922  0.00  0.00    -0.384 OA
ATOM     59  H   UNL     1       4.347   2.576  24.899  0.00  0.00    +0.210 HD
ENDBRANCH  51  58
ENDBRANCH  46  50
ENDBRANCH   1  46
TORSDOF 20
ENDMDL
MODEL 8
REMARK VINA RESULT:      -6.5      2.211      7.829
REMARK  Name = 
REMARK  21 active torsions:
REMARK  status: ('A' for Active; 'I' for Inactive)
REMARK    1  A    between atoms: C_1  and  C_2
REMARK    2  A    between atoms: C_3  and  O_55
REMARK    3  A    between atoms: C_5  and  O_54
REMARK    4  A    between atoms: C_7  and  O_53
REMARK    5  A    between atoms: C_8  and  O_11
REMARK    6  A    between atoms: O_11  and  C_12
REMARK    7  A    between atoms: C_13  and  O_52
REMARK    8  A    between atoms: C_15  and  O_51
REMARK    9  A    between atoms: C_17  and  C_43
REMARK   10  A    between atoms: C_19  and  O_21
REMARK   11  A    between atoms: O_21  and  C_22
REMARK   12  A    between atoms: C_23  and  C_35
REMARK   13  A    between atoms: C_27  and  O_34
REMARK   14  A    between atoms: C_29  and  O_33
REMARK   15  A    between atoms: C_37  and  O_42
REMARK   16  A    between atoms: C_38  and  O_41
REMARK   17  A    between atoms: C_43  and  O_44
REMARK   18  A    between atoms: O_44  and  C_45
REMARK   19  A    between atoms: C_45  and  C_47
REMARK   20  A    between atoms: C_47  and  C_48
REMARK   21  A    between atoms: C_48  and  O_50
REMARK                            x       y       z     vdW  Elec       q    Type
REMARK                         _______ _______ _______ _____ _____    ______ ____
ROOT
ATOM      1  C   UNL     1       8.246  -1.025  23.642  0.00  0.00    +0.221 C 
ATOM      2  C   UNL     1       8.334  -0.022  24.835  0.00  0.00    +0.340 C 
ATOM      3  O   UNL     1       7.681   1.221  24.506  0.00  0.00    -0.330 OA
ATOM      4  C   UNL     1       8.319   1.913  23.393  0.00  0.00    +0.191 C 
ATOM      5  C   UNL     1       8.334   1.016  22.136  0.00  0.00    +0.178 C 
ATOM      6  C   UNL     1       8.956  -0.348  22.452  0.00  0.00    +0.180 C 
ENDROOT
BRANCH   6   7
ATOM      7  O   UNL     1       9.005  -1.130  21.247  0.00  0.00    -0.386 OA
ATOM      8  H   UNL     1       8.591  -0.599  20.542  0.00  0.00    +0.210 HD
ENDBRANCH   6   7
BRANCH   5   9
ATOM      9  O   UNL     1       9.084   1.614  21.072  0.00  0.00    -0.386 OA
ATOM     10  H   UNL     1       9.134   2.566  21.289  0.00  0.00    +0.210 HD
ENDBRANCH   5   9
BRANCH   4  11
ATOM     11  C   UNL     1       9.737   2.457  23.722  0.00  0.00    +0.266 C 
BRANCH  11  12
ATOM     12  O   UNL     1       9.685   3.766  24.318  0.00  0.00    -0.462 OA
BRANCH  12  13
ATOM     13  C   UNL     1      10.449   4.707  23.702  0.00  0.00    +0.318 C 
ATOM     14  O   UNL     1      10.134   5.877  23.538  0.00  0.00    -0.250 OA
BRANCH  13  15
ATOM     15  C   UNL     1      11.768   4.142  23.280  0.00  0.00    +0.240 C 
BRANCH  15  16
ATOM     16  C   UNL     1      12.862   5.161  23.232  0.00  0.00    +0.316 C 
ATOM     17  O   UNL     1      13.665   5.307  22.326  0.00  0.00    -0.250 OA
BRANCH  16  18
ATOM     18  O   UNL     1      12.877   5.959  24.331  0.00  0.00    -0.480 OA
ATOM     19  H   UNL     1      13.556   6.661  24.318  0.00  0.00    +0.295 HD
ENDBRANCH  16  18
ENDBRANCH  15  16
ENDBRANCH  13  15
ENDBRANCH  12  13
ENDBRANCH  11  12
ENDBRANCH   4  11
BRANCH   2  20
ATOM     20  O   UNL     1       7.850  -0.625  26.058  0.00  0.00    -0.453 OA
BRANCH  20  21
ATOM     21  C   UNL     1       6.588  -0.203  26.508  0.00  0.00    +0.214 A 
ATOM     22  C   UNL     1       6.302   1.261  26.750  0.00  0.00    +0.238 A 
ATOM     23  O   UNL     1       7.182   2.080  26.995  0.00  0.00    -0.283 OA
ATOM     24  C   UNL     1       4.910   1.696  26.715  0.00  0.00    +0.109 A 
ATOM     25  C   UNL     1       3.965   0.736  27.015  0.00  0.00    +0.147 A 
ATOM     26  C   UNL     1       2.624   1.097  27.139  0.00  0.00    +0.092 A 
ATOM     27  C   UNL     1       2.258   2.427  26.929  0.00  0.00    +0.124 A 
ATOM     28  C   UNL     1       3.198   3.390  26.577  0.00  0.00    +0.091 A 
ATOM     29  O   UNL     1       4.306  -0.574  27.220  0.00  0.00    -0.451 OA
ATOM     30  C   UNL     1       4.534   3.020  26.463  0.00  0.00    +0.135 A 
ATOM     31  C   UNL     1       5.558  -1.048  26.787  0.00  0.00    +0.181 A 
BRANCH  31  32
ATOM     32  C   UNL     1       5.541  -2.555  26.691  0.00  0.00    +0.025 A 
ATOM     33  C   UNL     1       4.421  -3.310  26.283  0.00  0.00    +0.015 A 
ATOM     34  C   UNL     1       4.417  -4.718  26.323  0.00  0.00    +0.050 A 
ATOM     35  C   UNL     1       5.542  -5.400  26.756  0.00  0.00    +0.158 A 
ATOM     36  C   UNL     1       6.682  -4.692  27.100  0.00  0.00    +0.159 A 
ATOM     37  C   UNL     1       6.686  -3.295  27.072  0.00  0.00    +0.060 A 
BRANCH  36  38
ATOM     38  O   UNL     1       7.813  -5.370  27.460  0.00  0.00    -0.503 OA
ATOM     39  H   UNL     1       8.414  -4.726  27.871  0.00  0.00    +0.292 HD
ENDBRANCH  36  38
BRANCH  35  40
ATOM     40  O   UNL     1       5.536  -6.760  26.855  0.00  0.00    -0.503 OA
ATOM     41  H   UNL     1       6.202  -7.003  27.517  0.00  0.00    +0.292 HD
ENDBRANCH  35  40
ENDBRANCH  31  32
BRANCH  30  42
ATOM     42  O   UNL     1       5.461   3.949  26.080  0.00  0.00    -0.506 OA
ATOM     43  H   UNL     1       5.930   4.290  26.860  0.00  0.00    +0.292 HD
ENDBRANCH  30  42
BRANCH  27  44
ATOM     44  O   UNL     1       0.962   2.839  27.049  0.00  0.00    -0.507 OA
ATOM     45  H   UNL     1       0.418   2.385  26.395  0.00  0.00    +0.292 HD
ENDBRANCH  27  44
ENDBRANCH  20  21
ENDBRANCH   2  20
BRANCH   1  46
ATOM     46  O   UNL     1       6.900  -1.507  23.380  0.00  0.00    -0.337 OA
BRANCH  46  50
ATOM     47  C   UNL     1       8.353  -5.439  24.071  0.00  0.00    +0.041 C 
ATOM     48  C   UNL     1       7.898  -4.989  22.676  0.00  0.00    +0.149 C 
ATOM     49  O   UNL     1       7.857  -3.542  22.581  0.00  0.00    -0.343 OA
ATOM     50  C   UNL     1       6.800  -2.949  23.357  0.00  0.00    +0.282 C 
ATOM     51  C   UNL     1       5.449  -3.459  22.791  0.00  0.00    +0.201 C 
ATOM     52  C   UNL     1       5.387  -4.975  22.995  0.00  0.00    +0.179 C 
ATOM     53  C   UNL     1       6.559  -5.653  22.273  0.00  0.00    +0.174 C 
BRANCH  53  54
ATOM     54  O   UNL     1       6.394  -5.575  20.852  0.00  0.00    -0.387 OA
ATOM     55  H   UNL     1       6.208  -6.489  20.543  0.00  0.00    +0.210 HD
ENDBRANCH  53  54
BRANCH  52  56
ATOM     56  O   UNL     1       4.109  -5.473  22.589  0.00  0.00    -0.386 OA
ATOM     57  H   UNL     1       4.001  -5.297  21.640  0.00  0.00    +0.210 HD
ENDBRANCH  52  56
BRANCH  51  58
ATOM     58  O   UNL     1       5.349  -3.116  21.391  0.00  0.00    -0.384 OA
ATOM     59  H   UNL     1       5.749  -2.228  21.299  0.00  0.00    +0.210 HD
ENDBRANCH  51  58
ENDBRANCH  46  50
ENDBRANCH   1  46
TORSDOF 20
ENDMDL
MODEL 9
REMARK VINA RESULT:      -6.4      1.979      5.503
REMARK  Name = 
REMARK  21 active torsions:
REMARK  status: ('A' for Active; 'I' for Inactive)
REMARK    1  A    between atoms: C_1  and  C_2
REMARK    2  A    between atoms: C_3  and  O_55
REMARK    3  A    between atoms: C_5  and  O_54
REMARK    4  A    between atoms: C_7  and  O_53
REMARK    5  A    between atoms: C_8  and  O_11
REMARK    6  A    between atoms: O_11  and  C_12
REMARK    7  A    between atoms: C_13  and  O_52
REMARK    8  A    between atoms: C_15  and  O_51
REMARK    9  A    between atoms: C_17  and  C_43
REMARK   10  A    between atoms: C_19  and  O_21
REMARK   11  A    between atoms: O_21  and  C_22
REMARK   12  A    between atoms: C_23  and  C_35
REMARK   13  A    between atoms: C_27  and  O_34
REMARK   14  A    between atoms: C_29  and  O_33
REMARK   15  A    between atoms: C_37  and  O_42
REMARK   16  A    between atoms: C_38  and  O_41
REMARK   17  A    between atoms: C_43  and  O_44
REMARK   18  A    between atoms: O_44  and  C_45
REMARK   19  A    between atoms: C_45  and  C_47
REMARK   20  A    between atoms: C_47  and  C_48
REMARK   21  A    between atoms: C_48  and  O_50
REMARK                            x       y       z     vdW  Elec       q    Type
REMARK                         _______ _______ _______ _____ _____    ______ ____
ROOT
ATOM      1  C   UNL     1       6.555   2.057  25.870  0.00  0.00    +0.221 C 
ATOM      2  C   UNL     1       5.758   0.714  25.828  0.00  0.00    +0.340 C 
ATOM      3  O   UNL     1       4.480   0.859  26.480  0.00  0.00    -0.330 OA
ATOM      4  C   UNL     1       4.606   1.171  27.898  0.00  0.00    +0.191 C 
ATOM      5  C   UNL     1       5.410   2.473  28.096  0.00  0.00    +0.178 C 
ATOM      6  C   UNL     1       6.752   2.398  27.361  0.00  0.00    +0.180 C 
ENDROOT
BRANCH   6   7
ATOM      7  O   UNL     1       7.494   3.602  27.616  0.00  0.00    -0.386 OA
ATOM      8  H   UNL     1       7.751   3.971  26.751  0.00  0.00    +0.210 HD
ENDBRANCH   6   7
BRANCH   5   9
ATOM      9  O   UNL     1       5.673   2.725  29.482  0.00  0.00    -0.386 OA
ATOM     10  H   UNL     1       6.622   2.958  29.531  0.00  0.00    +0.210 HD
ENDBRANCH   5   9
BRANCH   4  11
ATOM     11  C   UNL     1       5.188   0.007  28.748  0.00  0.00    +0.266 C 
BRANCH  11  12
ATOM     12  O   UNL     1       4.734  -1.277  28.282  0.00  0.00    -0.462 OA
BRANCH  12  13
ATOM     13  C   UNL     1       3.764  -1.852  29.042  0.00  0.00    +0.318 C 
ATOM     14  O   UNL     1       3.615  -1.683  30.244  0.00  0.00    -0.250 OA
BRANCH  13  15
ATOM     15  C   UNL     1       2.852  -2.695  28.209  0.00  0.00    +0.240 C 
BRANCH  15  16
ATOM     16  C   UNL     1       1.733  -1.921  27.585  0.00  0.00    +0.316 C 
ATOM     17  O   UNL     1       0.546  -2.052  27.835  0.00  0.00    -0.250 OA
BRANCH  16  18
ATOM     18  O   UNL     1       2.173  -1.006  26.685  0.00  0.00    -0.480 OA
ATOM     19  H   UNL     1       3.136  -0.844  26.703  0.00  0.00    +0.295 HD
ENDBRANCH  16  18
ENDBRANCH  15  16
ENDBRANCH  13  15
ENDBRANCH  12  13
ENDBRANCH  11  12
ENDBRANCH   4  11
BRANCH   2  20
ATOM     20  O   UNL     1       5.665   0.207  24.476  0.00  0.00    -0.453 OA
BRANCH  20  21
ATOM     21  C   UNL     1       6.118  -1.106  24.266  0.00  0.00    +0.214 A 
ATOM     22  C   UNL     1       5.162  -2.275  24.335  0.00  0.00    +0.238 A 
ATOM     23  O   UNL     1       4.113  -2.240  24.969  0.00  0.00    -0.283 OA
ATOM     24  C   UNL     1       5.535  -3.499  23.636  0.00  0.00    +0.109 A 
ATOM     25  C   UNL     1       6.887  -3.707  23.450  0.00  0.00    +0.147 A 
ATOM     26  C   UNL     1       7.337  -4.913  22.915  0.00  0.00    +0.092 A 
ATOM     27  C   UNL     1       6.403  -5.883  22.550  0.00  0.00    +0.124 A 
ATOM     28  C   UNL     1       5.037  -5.661  22.688  0.00  0.00    +0.091 A 
ATOM     29  O   UNL     1       7.816  -2.764  23.798  0.00  0.00    -0.451 OA
ATOM     30  C   UNL     1       4.599  -4.457  23.230  0.00  0.00    +0.135 A 
ATOM     31  C   UNL     1       7.416  -1.434  24.019  0.00  0.00    +0.181 A 
BRANCH  31  32
ATOM     32  C   UNL     1       8.607  -0.508  23.932  0.00  0.00    +0.025 A 
ATOM     33  C   UNL     1       9.541  -0.321  24.973  0.00  0.00    +0.015 A 
ATOM     34  C   UNL     1      10.567   0.641  24.887  0.00  0.00    +0.050 A 
ATOM     35  C   UNL     1      10.689   1.423  23.751  0.00  0.00    +0.158 A 
ATOM     36  C   UNL     1       9.829   1.219  22.684  0.00  0.00    +0.159 A 
ATOM     37  C   UNL     1       8.804   0.274  22.769  0.00  0.00    +0.060 A 
BRANCH  36  38
ATOM     38  O   UNL     1       9.995   1.943  21.537  0.00  0.00    -0.503 OA
ATOM     39  H   UNL     1      10.880   1.738  21.194  0.00  0.00    +0.292 HD
ENDBRANCH  36  38
BRANCH  35  40
ATOM     40  O   UNL     1      11.639   2.397  23.675  0.00  0.00    -0.503 OA
ATOM     41  H   UNL     1      12.504   1.961  23.732  0.00  0.00    +0.292 HD
ENDBRANCH  35  40
ENDBRANCH  31  32
BRANCH  30  42
ATOM     42  O   UNL     1       3.258  -4.213  23.335  0.00  0.00    -0.506 OA
ATOM     43  H   UNL     1       3.019  -3.444  22.792  0.00  0.00    +0.292 HD
ENDBRANCH  30  42
BRANCH  27  44
ATOM     44  O   UNL     1       6.787  -7.087  22.033  0.00  0.00    -0.507 OA
ATOM     45  H   UNL     1       6.041  -7.698  22.054  0.00  0.00    +0.292 HD
ENDBRANCH  27  44
ENDBRANCH  20  21
ENDBRANCH   2  20
BRANCH   1  46
ATOM     46  O   UNL     1       5.971   3.109  25.054  0.00  0.00    -0.337 OA
BRANCH  46  50
ATOM     47  C   UNL     1       7.311   7.108  25.564  0.00  0.00    +0.041 C 
ATOM     48  C   UNL     1       7.007   6.540  24.172  0.00  0.00    +0.149 C 
ATOM     49  O   UNL     1       6.179   5.351  24.262  0.00  0.00    -0.343 OA
ATOM     50  C   UNL     1       6.870   4.216  24.815  0.00  0.00    +0.282 C 
ATOM     51  C   UNL     1       8.040   3.859  23.862  0.00  0.00    +0.201 C 
ATOM     52  C   UNL     1       9.017   5.037  23.841  0.00  0.00    +0.179 C 
ATOM     53  C   UNL     1       8.302   6.306  23.357  0.00  0.00    +0.174 C 
BRANCH  53  54
ATOM     54  O   UNL     1       7.981   6.209  21.965  0.00  0.00    -0.387 OA
ATOM     55  H   UNL     1       7.239   6.833  21.805  0.00  0.00    +0.210 HD
ENDBRANCH  53  54
BRANCH  52  56
ATOM     56  O   UNL     1      10.169   4.706  23.060  0.00  0.00    -0.386 OA
ATOM     57  H   UNL     1      10.686   5.516  22.921  0.00  0.00    +0.210 HD
ENDBRANCH  52  56
BRANCH  51  58
ATOM     58  O   UNL     1       7.523   3.585  22.541  0.00  0.00    -0.384 OA
ATOM     59  H   UNL     1       8.047   2.834  22.194  0.00  0.00    +0.210 HD
ENDBRANCH  51  58
ENDBRANCH  46  50
ENDBRANCH   1  46
TORSDOF 20
ENDMDL
