MODEL 1
REMARK VINA RESULT:      -7.3      0.000      0.000
REMARK  Name = 
REMARK  17 active torsions:
REMARK  status: ('A' for Active; 'I' for Inactive)
REMARK    1  A    between atoms: C_1  and  C_2
REMARK    2  A    between atoms: C_4  and  O_53
REMARK    3  A    between atoms: C_6  and  O_52
REMARK    4  A    between atoms: C_8  and  O_51
REMARK    5  A    between atoms: C_10  and  O_13
REMARK    6  A    between atoms: O_13  and  C_14
REMARK    7  A    between atoms: C_14  and  C_15
REMARK    8  A    between atoms: C_17  and  O_50
REMARK    9  A    between atoms: C_19  and  O_49
REMARK   10  A    between atoms: C_21  and  O_48
REMARK   11  A    between atoms: C_23  and  O_26
REMARK   12  A    between atoms: O_26  and  C_27
REMARK   13  A    between atoms: C_28  and  C_40
REMARK   14  A    between atoms: C_32  and  O_39
REMARK   15  A    between atoms: C_34  and  O_38
REMARK   16  A    between atoms: C_42  and  O_47
REMARK   17  A    between atoms: C_43  and  O_46
REMARK                            x       y       z     vdW  Elec       q    Type
REMARK                         _______ _______ _______ _____ _____    ______ ____
ROOT
ATOM      1  C   UNL     1       7.212  -2.719  22.258  0.00  0.00    +0.179 C 
ATOM      2  O   UNL     1       6.212  -2.364  23.228  0.00  0.00    -0.331 OA
ATOM      3  C   UNL     1       6.019  -3.197  24.394  0.00  0.00    +0.340 C 
ATOM      4  C   UNL     1       6.049  -4.719  24.040  0.00  0.00    +0.214 C 
ATOM      5  C   UNL     1       7.204  -5.100  23.102  0.00  0.00    +0.180 C 
ATOM      6  C   UNL     1       7.193  -4.202  21.861  0.00  0.00    +0.177 C 
ENDROOT
BRANCH   6   7
ATOM      7  O   UNL     1       6.011  -4.469  21.078  0.00  0.00    -0.386 OA
ATOM      8  H   UNL     1       5.854  -3.683  20.512  0.00  0.00    +0.210 HD
ENDBRANCH   6   7
BRANCH   5   9
ATOM      9  O   UNL     1       8.482  -5.075  23.735  0.00  0.00    -0.386 OA
ATOM     10  H   UNL     1       8.456  -5.595  24.556  0.00  0.00    +0.210 HD
ENDBRANCH   5   9
BRANCH   4  11
ATOM     11  O   UNL     1       4.818  -5.070  23.369  0.00  0.00    -0.383 OA
ATOM     12  H   UNL     1       4.230  -4.294  23.425  0.00  0.00    +0.210 HD
ENDBRANCH   4  11
BRANCH   3  13
ATOM     13  O   UNL     1       6.890  -2.829  25.510  0.00  0.00    -0.453 OA
BRANCH  13  14
ATOM     14  C   UNL     1       6.334  -2.053  26.556  0.00  0.00    +0.214 A 
ATOM     15  C   UNL     1       6.978  -0.775  27.004  0.00  0.00    +0.238 A 
ATOM     16  O   UNL     1       8.171  -0.550  26.852  0.00  0.00    -0.283 OA
ATOM     17  C   UNL     1       6.177   0.189  27.749  0.00  0.00    +0.109 A 
ATOM     18  C   UNL     1       5.075  -0.301  28.426  0.00  0.00    +0.147 A 
ATOM     19  C   UNL     1       4.391   0.524  29.324  0.00  0.00    +0.092 A 
ATOM     20  C   UNL     1       4.823   1.838  29.506  0.00  0.00    +0.124 A 
ATOM     21  C   UNL     1       5.887   2.356  28.776  0.00  0.00    +0.091 A 
ATOM     22  O   UNL     1       4.652  -1.595  28.273  0.00  0.00    -0.451 OA
ATOM     23  C   UNL     1       6.558   1.529  27.884  0.00  0.00    +0.135 A 
ATOM     24  C   UNL     1       5.231  -2.410  27.279  0.00  0.00    +0.181 A 
BRANCH  24  25
ATOM     25  C   UNL     1       4.551  -3.749  27.271  0.00  0.00    +0.025 A 
ATOM     26  C   UNL     1       3.341  -3.920  26.582  0.00  0.00    +0.015 A 
ATOM     27  C   UNL     1       2.812  -5.192  26.350  0.00  0.00    +0.050 A 
ATOM     28  C   UNL     1       3.492  -6.316  26.788  0.00  0.00    +0.158 A 
ATOM     29  C   UNL     1       4.683  -6.183  27.489  0.00  0.00    +0.159 A 
ATOM     30  C   UNL     1       5.214  -4.913  27.746  0.00  0.00    +0.060 A 
BRANCH  29  31
ATOM     31  O   UNL     1       5.318  -7.337  27.860  0.00  0.00    -0.503 OA
ATOM     32  H   UNL     1       5.980  -7.136  28.542  0.00  0.00    +0.292 HD
ENDBRANCH  29  31
BRANCH  28  33
ATOM     33  O   UNL     1       3.003  -7.554  26.478  0.00  0.00    -0.503 OA
ATOM     34  H   UNL     1       2.363  -7.759  27.189  0.00  0.00    +0.292 HD
ENDBRANCH  28  33
ENDBRANCH  24  25
BRANCH  23  35
ATOM     35  O   UNL     1       7.568   2.043  27.122  0.00  0.00    -0.506 OA
ATOM     36  H   UNL     1       8.138   1.328  26.795  0.00  0.00    +0.292 HD
ENDBRANCH  23  35
BRANCH  20  37
ATOM     37  O   UNL     1       4.228   2.675  30.404  0.00  0.00    -0.507 OA
ATOM     38  H   UNL     1       4.142   3.560  30.017  0.00  0.00    +0.292 HD
ENDBRANCH  20  37
ENDBRANCH  13  14
ENDBRANCH   3  13
BRANCH   1  39
ATOM     39  C   UNL     1       8.565  -2.189  22.731  0.00  0.00    +0.197 C 
BRANCH  39  40
ATOM     40  O   UNL     1       8.495  -0.888  23.316  0.00  0.00    -0.346 OA
BRANCH  40  44
ATOM     41  C   UNL     1       6.179   1.123  24.105  0.00  0.00    +0.041 C 
ATOM     42  C   UNL     1       6.990   1.789  22.999  0.00  0.00    +0.149 C 
ATOM     43  O   UNL     1       7.451   0.837  22.041  0.00  0.00    -0.343 OA
ATOM     44  C   UNL     1       8.672   0.150  22.340  0.00  0.00    +0.282 C 
ATOM     45  C   UNL     1       9.823   1.127  22.674  0.00  0.00    +0.201 C 
ATOM     46  C   UNL     1       9.430   2.116  23.781  0.00  0.00    +0.179 C 
ATOM     47  C   UNL     1       8.077   2.768  23.477  0.00  0.00    +0.174 C 
BRANCH  47  48
ATOM     48  O   UNL     1       8.291   3.745  22.439  0.00  0.00    -0.387 OA
ATOM     49  H   UNL     1       7.561   3.626  21.796  0.00  0.00    +0.210 HD
ENDBRANCH  47  48
BRANCH  46  50
ATOM     50  O   UNL     1       9.433   1.497  25.064  0.00  0.00    -0.386 OA
ATOM     51  H   UNL     1       9.101   2.149  25.708  0.00  0.00    +0.210 HD
ENDBRANCH  46  50
BRANCH  45  52
ATOM     52  O   UNL     1      10.193   1.858  21.485  0.00  0.00    -0.384 OA
ATOM     53  H   UNL     1       9.410   2.364  21.201  0.00  0.00    +0.210 HD
ENDBRANCH  45  52
ENDBRANCH  40  44
ENDBRANCH  39  40
ENDBRANCH   1  39
TORSDOF 16
ENDMDL
MODEL 2
REMARK VINA RESULT:      -7.1      2.473      6.605
REMARK  Name = 
REMARK  17 active torsions:
REMARK  status: ('A' for Active; 'I' for Inactive)
REMARK    1  A    between atoms: C_1  and  C_2
REMARK    2  A    between atoms: C_4  and  O_53
REMARK    3  A    between atoms: C_6  and  O_52
REMARK    4  A    between atoms: C_8  and  O_51
REMARK    5  A    between atoms: C_10  and  O_13
REMARK    6  A    between atoms: O_13  and  C_14
REMARK    7  A    between atoms: C_14  and  C_15
REMARK    8  A    between atoms: C_17  and  O_50
REMARK    9  A    between atoms: C_19  and  O_49
REMARK   10  A    between atoms: C_21  and  O_48
REMARK   11  A    between atoms: C_23  and  O_26
REMARK   12  A    between atoms: O_26  and  C_27
REMARK   13  A    between atoms: C_28  and  C_40
REMARK   14  A    between atoms: C_32  and  O_39
REMARK   15  A    between atoms: C_34  and  O_38
REMARK   16  A    between atoms: C_42  and  O_47
REMARK   17  A    between atoms: C_43  and  O_46
REMARK                            x       y       z     vdW  Elec       q    Type
REMARK                         _______ _______ _______ _____ _____    ______ ____
ROOT
ATOM      1  C   UNL     1      10.192  -0.549  23.892  0.00  0.00    +0.179 C 
ATOM      2  O   UNL     1      10.664   0.800  24.057  0.00  0.00    -0.331 OA
ATOM      3  C   UNL     1       9.776   1.906  23.779  0.00  0.00    +0.340 C 
ATOM      4  C   UNL     1       8.944   1.679  22.476  0.00  0.00    +0.214 C 
ATOM      5  C   UNL     1       8.341   0.270  22.381  0.00  0.00    +0.180 C 
ATOM      6  C   UNL     1       9.434  -0.784  22.578  0.00  0.00    +0.177 C 
ENDROOT
BRANCH   6   7
ATOM      7  O   UNL     1      10.364  -0.733  21.477  0.00  0.00    -0.386 OA
ATOM      8  H   UNL     1      11.258  -0.902  21.844  0.00  0.00    +0.210 HD
ENDBRANCH   6   7
BRANCH   5   9
ATOM      9  O   UNL     1       7.258   0.053  23.283  0.00  0.00    -0.386 OA
ATOM     10  H   UNL     1       7.447  -0.714  23.850  0.00  0.00    +0.210 HD
ENDBRANCH   5   9
BRANCH   4  11
ATOM     11  O   UNL     1       9.806   1.856  21.331  0.00  0.00    -0.383 OA
ATOM     12  H   UNL     1      10.319   1.033  21.228  0.00  0.00    +0.210 HD
ENDBRANCH   4  11
BRANCH   3  13
ATOM     13  O   UNL     1       8.974   2.300  24.937  0.00  0.00    -0.453 OA
BRANCH  13  14
ATOM     14  C   UNL     1       7.839   3.117  24.710  0.00  0.00    +0.214 A 
ATOM     15  C   UNL     1       7.959   4.444  24.023  0.00  0.00    +0.238 A 
ATOM     16  O   UNL     1       8.996   5.093  24.020  0.00  0.00    -0.283 OA
ATOM     17  C   UNL     1       6.766   5.036  23.432  0.00  0.00    +0.109 A 
ATOM     18  C   UNL     1       5.546   4.635  23.945  0.00  0.00    +0.147 A 
ATOM     19  C   UNL     1       4.381   5.314  23.573  0.00  0.00    +0.092 A 
ATOM     20  C   UNL     1       4.470   6.376  22.672  0.00  0.00    +0.124 A 
ATOM     21  C   UNL     1       5.684   6.738  22.101  0.00  0.00    +0.091 A 
ATOM     22  O   UNL     1       5.446   3.608  24.845  0.00  0.00    -0.451 OA
ATOM     23  C   UNL     1       6.835   6.055  22.474  0.00  0.00    +0.135 A 
ATOM     24  C   UNL     1       6.576   2.817  25.137  0.00  0.00    +0.181 A 
BRANCH  24  25
ATOM     25  C   UNL     1       6.191   1.725  26.092  0.00  0.00    +0.025 A 
ATOM     26  C   UNL     1       6.698   1.721  27.400  0.00  0.00    +0.015 A 
ATOM     27  C   UNL     1       6.177   0.871  28.378  0.00  0.00    +0.050 A 
ATOM     28  C   UNL     1       5.128   0.021  28.070  0.00  0.00    +0.158 A 
ATOM     29  C   UNL     1       4.613  -0.016  26.781  0.00  0.00    +0.159 A 
ATOM     30  C   UNL     1       5.141   0.817  25.786  0.00  0.00    +0.060 A 
BRANCH  29  31
ATOM     31  O   UNL     1       3.555  -0.853  26.557  0.00  0.00    -0.503 OA
ATOM     32  H   UNL     1       3.870  -1.773  26.539  0.00  0.00    +0.292 HD
ENDBRANCH  29  31
BRANCH  28  33
ATOM     33  O   UNL     1       4.575  -0.742  29.060  0.00  0.00    -0.503 OA
ATOM     34  H   UNL     1       4.503  -1.640  28.677  0.00  0.00    +0.292 HD
ENDBRANCH  28  33
ENDBRANCH  24  25
BRANCH  23  35
ATOM     35  O   UNL     1       8.024   6.366  21.877  0.00  0.00    -0.506 OA
ATOM     36  H   UNL     1       8.638   5.617  21.944  0.00  0.00    +0.292 HD
ENDBRANCH  23  35
BRANCH  20  37
ATOM     37  O   UNL     1       3.377   7.108  22.310  0.00  0.00    -0.507 OA
ATOM     38  H   UNL     1       2.689   6.518  21.965  0.00  0.00    +0.292 HD
ENDBRANCH  20  37
ENDBRANCH  13  14
ENDBRANCH   3  13
BRANCH   1  39
ATOM     39  C   UNL     1       9.446  -0.966  25.159  0.00  0.00    +0.197 C 
BRANCH  39  40
ATOM     40  O   UNL     1       8.466  -1.982  24.936  0.00  0.00    -0.346 OA
BRANCH  40  44
ATOM     41  C   UNL     1       5.518  -3.074  24.557  0.00  0.00    +0.041 C 
ATOM     42  C   UNL     1       6.125  -3.830  25.733  0.00  0.00    +0.149 C 
ATOM     43  O   UNL     1       6.984  -2.994  26.507  0.00  0.00    -0.343 OA
ATOM     44  C   UNL     1       8.339  -2.862  26.064  0.00  0.00    +0.282 C 
ATOM     45  C   UNL     1       9.023  -4.234  25.861  0.00  0.00    +0.201 C 
ATOM     46  C   UNL     1       8.201  -5.151  24.943  0.00  0.00    +0.179 C 
ATOM     47  C   UNL     1       6.736  -5.202  25.391  0.00  0.00    +0.174 C 
BRANCH  47  48
ATOM     48  O   UNL     1       6.670  -6.030  26.568  0.00  0.00    -0.387 OA
ATOM     49  H   UNL     1       7.585  -6.085  26.915  0.00  0.00    +0.210 HD
ENDBRANCH  47  48
BRANCH  46  50
ATOM     50  O   UNL     1       8.315  -4.767  23.576  0.00  0.00    -0.386 OA
ATOM     51  H   UNL     1       8.818  -5.461  23.114  0.00  0.00    +0.210 HD
ENDBRANCH  46  50
BRANCH  45  52
ATOM     52  O   UNL     1       9.205  -4.873  27.143  0.00  0.00    -0.384 OA
ATOM     53  H   UNL     1       9.576  -4.207  27.749  0.00  0.00    +0.210 HD
ENDBRANCH  45  52
ENDBRANCH  40  44
ENDBRANCH  39  40
ENDBRANCH   1  39
TORSDOF 16
ENDMDL
MODEL 3
REMARK VINA RESULT:      -7.0      2.043      7.445
REMARK  Name = 
REMARK  17 active torsions:
REMARK  status: ('A' for Active; 'I' for Inactive)
REMARK    1  A    between atoms: C_1  and  C_2
REMARK    2  A    between atoms: C_4  and  O_53
REMARK    3  A    between atoms: C_6  and  O_52
REMARK    4  A    between atoms: C_8  and  O_51
REMARK    5  A    between atoms: C_10  and  O_13
REMARK    6  A    between atoms: O_13  and  C_14
REMARK    7  A    between atoms: C_14  and  C_15
REMARK    8  A    between atoms: C_17  and  O_50
REMARK    9  A    between atoms: C_19  and  O_49
REMARK   10  A    between atoms: C_21  and  O_48
REMARK   11  A    between atoms: C_23  and  O_26
REMARK   12  A    between atoms: O_26  and  C_27
REMARK   13  A    between atoms: C_28  and  C_40
REMARK   14  A    between atoms: C_32  and  O_39
REMARK   15  A    between atoms: C_34  and  O_38
REMARK   16  A    between atoms: C_42  and  O_47
REMARK   17  A    between atoms: C_43  and  O_46
REMARK                            x       y       z     vdW  Elec       q    Type
REMARK                         _______ _______ _______ _____ _____    ______ ____
ROOT
ATOM      1  C   UNL     1       4.765  -0.532  26.366  0.00  0.00    +0.179 C 
ATOM      2  O   UNL     1       4.585   0.687  25.626  0.00  0.00    -0.331 OA
ATOM      3  C   UNL     1       5.731   1.513  25.321  0.00  0.00    +0.340 C 
ATOM      4  C   UNL     1       6.701   1.647  26.540  0.00  0.00    +0.214 C 
ATOM      5  C   UNL     1       6.981   0.309  27.240  0.00  0.00    +0.180 C 
ATOM      6  C   UNL     1       5.662  -0.382  27.602  0.00  0.00    +0.177 C 
ENDROOT
BRANCH   6   7
ATOM      7  O   UNL     1       4.967   0.391  28.602  0.00  0.00    -0.386 OA
ATOM      8  H   UNL     1       4.013   0.174  28.527  0.00  0.00    +0.210 HD
ENDBRANCH   6   7
BRANCH   5   9
ATOM      9  O   UNL     1       7.819  -0.563  26.484  0.00  0.00    -0.386 OA
ATOM     10  H   UNL     1       7.288  -1.280  26.097  0.00  0.00    +0.210 HD
ENDBRANCH   5   9
BRANCH   4  11
ATOM     11  O   UNL     1       6.106   2.528  27.519  0.00  0.00    -0.383 OA
ATOM     12  H   UNL     1       6.690   3.305  27.598  0.00  0.00    +0.210 HD
ENDBRANCH   4  11
BRANCH   3  13
ATOM     13  O   UNL     1       6.394   1.135  24.073  0.00  0.00    -0.453 OA
BRANCH  13  14
ATOM     14  C   UNL     1       7.645   1.728  23.780  0.00  0.00    +0.214 A 
ATOM     15  C   UNL     1       7.781   3.211  23.598  0.00  0.00    +0.238 A 
ATOM     16  O   UNL     1       6.847   3.920  23.250  0.00  0.00    -0.283 OA
ATOM     17  C   UNL     1       9.102   3.814  23.732  0.00  0.00    +0.109 A 
ATOM     18  C   UNL     1      10.192   2.991  23.516  0.00  0.00    +0.147 A 
ATOM     19  C   UNL     1      11.472   3.548  23.420  0.00  0.00    +0.092 A 
ATOM     20  C   UNL     1      11.626   4.927  23.564  0.00  0.00    +0.124 A 
ATOM     21  C   UNL     1      10.542   5.750  23.849  0.00  0.00    +0.091 A 
ATOM     22  O   UNL     1      10.053   1.638  23.353  0.00  0.00    -0.451 OA
ATOM     23  C   UNL     1       9.276   5.186  23.946  0.00  0.00    +0.135 A 
ATOM     24  C   UNL     1       8.802   1.029  23.578  0.00  0.00    +0.181 A 
BRANCH  24  25
ATOM     25  C   UNL     1       8.929  -0.457  23.401  0.00  0.00    +0.025 A 
ATOM     26  C   UNL     1       9.845  -1.183  24.177  0.00  0.00    +0.015 A 
ATOM     27  C   UNL     1       9.818  -2.578  24.214  0.00  0.00    +0.050 A 
ATOM     28  C   UNL     1       8.865  -3.273  23.488  0.00  0.00    +0.158 A 
ATOM     29  C   UNL     1       7.955  -2.588  22.694  0.00  0.00    +0.159 A 
ATOM     30  C   UNL     1       7.984  -1.189  22.633  0.00  0.00    +0.060 A 
BRANCH  29  31
ATOM     31  O   UNL     1       7.020  -3.337  22.033  0.00  0.00    -0.503 OA
ATOM     32  H   UNL     1       6.780  -2.893  21.202  0.00  0.00    +0.292 HD
ENDBRANCH  29  31
BRANCH  28  33
ATOM     33  O   UNL     1       8.800  -4.633  23.602  0.00  0.00    -0.503 OA
ATOM     34  H   UNL     1       9.161  -4.831  24.490  0.00  0.00    +0.292 HD
ENDBRANCH  28  33
ENDBRANCH  24  25
BRANCH  23  35
ATOM     35  O   UNL     1       8.213   5.976  24.281  0.00  0.00    -0.506 OA
ATOM     36  H   UNL     1       8.251   6.206  25.223  0.00  0.00    +0.292 HD
ENDBRANCH  23  35
BRANCH  20  37
ATOM     37  O   UNL     1      12.841   5.535  23.431  0.00  0.00    -0.507 OA
ATOM     38  H   UNL     1      13.364   5.395  24.235  0.00  0.00    +0.292 HD
ENDBRANCH  20  37
ENDBRANCH  13  14
ENDBRANCH   3  13
BRANCH   1  39
ATOM     39  C   UNL     1       5.173  -1.640  25.396  0.00  0.00    +0.197 C 
BRANCH  39  40
ATOM     40  O   UNL     1       4.478  -2.870  25.609  0.00  0.00    -0.346 OA
BRANCH  40  44
ATOM     41  C   UNL     1       6.329  -5.245  26.591  0.00  0.00    +0.041 C 
ATOM     42  C   UNL     1       5.814  -5.624  25.207  0.00  0.00    +0.149 C 
ATOM     43  O   UNL     1       5.710  -4.484  24.356  0.00  0.00    -0.343 OA
ATOM     44  C   UNL     1       4.507  -3.711  24.445  0.00  0.00    +0.282 C 
ATOM     45  C   UNL     1       3.241  -4.583  24.277  0.00  0.00    +0.201 C 
ATOM     46  C   UNL     1       3.235  -5.775  25.246  0.00  0.00    +0.179 C 
ATOM     47  C   UNL     1       4.568  -6.529  25.192  0.00  0.00    +0.174 C 
BRANCH  47  48
ATOM     48  O   UNL     1       4.584  -7.296  23.972  0.00  0.00    -0.387 OA
ATOM     49  H   UNL     1       4.025  -6.807  23.334  0.00  0.00    +0.210 HD
ENDBRANCH  47  48
BRANCH  46  50
ATOM     50  O   UNL     1       2.918  -5.372  26.575  0.00  0.00    -0.386 OA
ATOM     51  H   UNL     1       3.175  -4.438  26.671  0.00  0.00    +0.210 HD
ENDBRANCH  46  50
BRANCH  45  52
ATOM     52  O   UNL     1       3.167  -5.066  22.919  0.00  0.00    -0.384 OA
ATOM     53  H   UNL     1       3.407  -6.010  22.933  0.00  0.00    +0.210 HD
ENDBRANCH  45  52
ENDBRANCH  40  44
ENDBRANCH  39  40
ENDBRANCH   1  39
TORSDOF 16
ENDMDL
MODEL 4
REMARK VINA RESULT:      -7.0      3.261      8.572
REMARK  Name = 
REMARK  17 active torsions:
REMARK  status: ('A' for Active; 'I' for Inactive)
REMARK    1  A    between atoms: C_1  and  C_2
REMARK    2  A    between atoms: C_4  and  O_53
REMARK    3  A    between atoms: C_6  and  O_52
REMARK    4  A    between atoms: C_8  and  O_51
REMARK    5  A    between atoms: C_10  and  O_13
REMARK    6  A    between atoms: O_13  and  C_14
REMARK    7  A    between atoms: C_14  and  C_15
REMARK    8  A    between atoms: C_17  and  O_50
REMARK    9  A    between atoms: C_19  and  O_49
REMARK   10  A    between atoms: C_21  and  O_48
REMARK   11  A    between atoms: C_23  and  O_26
REMARK   12  A    between atoms: O_26  and  C_27
REMARK   13  A    between atoms: C_28  and  C_40
REMARK   14  A    between atoms: C_32  and  O_39
REMARK   15  A    between atoms: C_34  and  O_38
REMARK   16  A    between atoms: C_42  and  O_47
REMARK   17  A    between atoms: C_43  and  O_46
REMARK                            x       y       z     vdW  Elec       q    Type
REMARK                         _______ _______ _______ _____ _____    ______ ____
ROOT
ATOM      1  C   UNL     1       9.997  -0.105  24.507  0.00  0.00    +0.179 C 
ATOM      2  O   UNL     1      10.260   1.309  24.520  0.00  0.00    -0.331 OA
ATOM      3  C   UNL     1       9.378   2.205  23.806  0.00  0.00    +0.340 C 
ATOM      4  C   UNL     1       8.981   1.645  22.402  0.00  0.00    +0.214 C 
ATOM      5  C   UNL     1       8.581   0.163  22.432  0.00  0.00    +0.180 C 
ATOM      6  C   UNL     1       9.676  -0.664  23.114  0.00  0.00    +0.177 C 
ENDROOT
BRANCH   6   7
ATOM      7  O   UNL     1      10.872  -0.647  22.308  0.00  0.00    -0.386 OA
ATOM      8  H   UNL     1      11.352   0.183  22.518  0.00  0.00    +0.210 HD
ENDBRANCH   6   7
BRANCH   5   9
ATOM      9  O   UNL     1       7.314  -0.072  23.044  0.00  0.00    -0.386 OA
ATOM     10  H   UNL     1       6.857  -0.801  22.591  0.00  0.00    +0.210 HD
ENDBRANCH   5   9
BRANCH   4  11
ATOM     11  O   UNL     1      10.112   1.767  21.511  0.00  0.00    -0.383 OA
ATOM     12  H   UNL     1      10.234   2.717  21.330  0.00  0.00    +0.210 HD
ENDBRANCH   4  11
BRANCH   3  13
ATOM     13  O   UNL     1       8.241   2.651  24.612  0.00  0.00    -0.453 OA
BRANCH  13  14
ATOM     14  C   UNL     1       7.364   3.609  24.048  0.00  0.00    +0.214 A 
ATOM     15  C   UNL     1       6.039   3.207  23.470  0.00  0.00    +0.238 A 
ATOM     16  O   UNL     1       5.820   2.082  23.045  0.00  0.00    -0.283 OA
ATOM     17  C   UNL     1       5.010   4.226  23.306  0.00  0.00    +0.109 A 
ATOM     18  C   UNL     1       5.436   5.538  23.205  0.00  0.00    +0.147 A 
ATOM     19  C   UNL     1       4.526   6.535  22.837  0.00  0.00    +0.092 A 
ATOM     20  C   UNL     1       3.196   6.188  22.597  0.00  0.00    +0.124 A 
ATOM     21  C   UNL     1       2.749   4.883  22.764  0.00  0.00    +0.091 A 
ATOM     22  O   UNL     1       6.742   5.890  23.418  0.00  0.00    -0.451 OA
ATOM     23  C   UNL     1       3.660   3.901  23.134  0.00  0.00    +0.135 A 
ATOM     24  C   UNL     1       7.653   4.938  23.920  0.00  0.00    +0.181 A 
BRANCH  24  25
ATOM     25  C   UNL     1       8.991   5.586  24.128  0.00  0.00    +0.025 A 
ATOM     26  C   UNL     1       9.222   6.380  25.262  0.00  0.00    +0.015 A 
ATOM     27  C   UNL     1      10.509   6.793  25.608  0.00  0.00    +0.050 A 
ATOM     28  C   UNL     1      11.593   6.406  24.838  0.00  0.00    +0.158 A 
ATOM     29  C   UNL     1      11.400   5.636  23.698  0.00  0.00    +0.159 A 
ATOM     30  C   UNL     1      10.111   5.233  23.328  0.00  0.00    +0.060 A 
BRANCH  29  31
ATOM     31  O   UNL     1      12.519   5.261  23.005  0.00  0.00    -0.503 OA
ATOM     32  H   UNL     1      12.349   4.418  22.551  0.00  0.00    +0.292 HD
ENDBRANCH  29  31
BRANCH  28  33
ATOM     33  O   UNL     1      12.854   6.748  25.239  0.00  0.00    -0.503 OA
ATOM     34  H   UNL     1      13.285   7.109  24.438  0.00  0.00    +0.292 HD
ENDBRANCH  28  33
ENDBRANCH  24  25
BRANCH  23  35
ATOM     35  O   UNL     1       3.220   2.627  23.355  0.00  0.00    -0.506 OA
ATOM     36  H   UNL     1       3.946   2.075  23.689  0.00  0.00    +0.292 HD
ENDBRANCH  23  35
BRANCH  20  37
ATOM     37  O   UNL     1       2.274   7.106  22.186  0.00  0.00    -0.507 OA
ATOM     38  H   UNL     1       2.018   6.922  21.269  0.00  0.00    +0.292 HD
ENDBRANCH  20  37
ENDBRANCH  13  14
ENDBRANCH   3  13
BRANCH   1  39
ATOM     39  C   UNL     1       8.968  -0.424  25.590  0.00  0.00    +0.197 C 
BRANCH  39  40
ATOM     40  O   UNL     1       8.119  -1.526  25.264  0.00  0.00    -0.346 OA
BRANCH  40  44
ATOM     41  C   UNL     1       5.275  -2.877  24.928  0.00  0.00    +0.041 C 
ATOM     42  C   UNL     1       6.047  -3.712  25.942  0.00  0.00    +0.149 C 
ATOM     43  O   UNL     1       6.876  -2.898  26.769  0.00  0.00    -0.343 OA
ATOM     44  C   UNL     1       8.171  -2.558  26.262  0.00  0.00    +0.282 C 
ATOM     45  C   UNL     1       8.971  -3.806  25.822  0.00  0.00    +0.201 C 
ATOM     46  C   UNL     1       8.175  -4.677  24.839  0.00  0.00    +0.179 C 
ATOM     47  C   UNL     1       6.763  -4.949  25.369  0.00  0.00    +0.174 C 
BRANCH  47  48
ATOM     48  O   UNL     1       6.876  -5.930  26.418  0.00  0.00    -0.387 OA
ATOM     49  H   UNL     1       6.355  -5.585  27.173  0.00  0.00    +0.210 HD
ENDBRANCH  47  48
BRANCH  46  50
ATOM     50  O   UNL     1       8.140  -4.102  23.536  0.00  0.00    -0.386 OA
ATOM     51  H   UNL     1       8.560  -3.225  23.587  0.00  0.00    +0.210 HD
ENDBRANCH  46  50
BRANCH  45  52
ATOM     52  O   UNL     1       9.319  -4.588  26.985  0.00  0.00    -0.384 OA
ATOM     53  H   UNL     1      10.279  -4.754  26.946  0.00  0.00    +0.210 HD
ENDBRANCH  45  52
ENDBRANCH  40  44
ENDBRANCH  39  40
ENDBRANCH   1  39
TORSDOF 16
ENDMDL
MODEL 5
REMARK VINA RESULT:      -6.9      1.930      2.599
REMARK  Name = 
REMARK  17 active torsions:
REMARK  status: ('A' for Active; 'I' for Inactive)
REMARK    1  A    between atoms: C_1  and  C_2
REMARK    2  A    between atoms: C_4  and  O_53
REMARK    3  A    between atoms: C_6  and  O_52
REMARK    4  A    between atoms: C_8  and  O_51
REMARK    5  A    between atoms: C_10  and  O_13
REMARK    6  A    between atoms: O_13  and  C_14
REMARK    7  A    between atoms: C_14  and  C_15
REMARK    8  A    between atoms: C_17  and  O_50
REMARK    9  A    between atoms: C_19  and  O_49
REMARK   10  A    between atoms: C_21  and  O_48
REMARK   11  A    between atoms: C_23  and  O_26
REMARK   12  A    between atoms: O_26  and  C_27
REMARK   13  A    between atoms: C_28  and  C_40
REMARK   14  A    between atoms: C_32  and  O_39
REMARK   15  A    between atoms: C_34  and  O_38
REMARK   16  A    between atoms: C_42  and  O_47
REMARK   17  A    between atoms: C_43  and  O_46
REMARK                            x       y       z     vdW  Elec       q    Type
REMARK                         _______ _______ _______ _____ _____    ______ ____
ROOT
ATOM      1  C   UNL     1       7.021  -3.281  22.571  0.00  0.00    +0.179 C 
ATOM      2  O   UNL     1       5.973  -2.408  23.026  0.00  0.00    -0.331 OA
ATOM      3  C   UNL     1       5.178  -2.785  24.174  0.00  0.00    +0.340 C 
ATOM      4  C   UNL     1       4.778  -4.295  24.141  0.00  0.00    +0.214 C 
ATOM      5  C   UNL     1       5.947  -5.223  23.777  0.00  0.00    +0.180 C 
ATOM      6  C   UNL     1       6.604  -4.755  22.475  0.00  0.00    +0.177 C 
ENDROOT
BRANCH   6   7
ATOM      7  O   UNL     1       5.681  -4.916  21.378  0.00  0.00    -0.386 OA
ATOM      8  H   UNL     1       4.832  -5.231  21.757  0.00  0.00    +0.210 HD
ENDBRANCH   6   7
BRANCH   5   9
ATOM      9  O   UNL     1       6.915  -5.352  24.816  0.00  0.00    -0.386 OA
ATOM     10  H   UNL     1       6.703  -6.120  25.374  0.00  0.00    +0.210 HD
ENDBRANCH   5   9
BRANCH   4  11
ATOM     11  O   UNL     1       3.750  -4.488  23.145  0.00  0.00    -0.383 OA
ATOM     12  H   UNL     1       3.206  -5.243  23.437  0.00  0.00    +0.210 HD
ENDBRANCH   4  11
BRANCH   3  13
ATOM     13  O   UNL     1       5.763  -2.351  25.442  0.00  0.00    -0.453 OA
BRANCH  13  14
ATOM     14  C   UNL     1       4.901  -1.777  26.408  0.00  0.00    +0.214 A 
ATOM     15  C   UNL     1       4.564  -0.316  26.382  0.00  0.00    +0.238 A 
ATOM     16  O   UNL     1       5.297   0.519  25.869  0.00  0.00    -0.283 OA
ATOM     17  C   UNL     1       3.375   0.142  27.090  0.00  0.00    +0.109 A 
ATOM     18  C   UNL     1       2.920  -0.651  28.128  0.00  0.00    +0.147 A 
ATOM     19  C   UNL     1       1.919  -0.169  28.979  0.00  0.00    +0.092 A 
ATOM     20  C   UNL     1       1.384   1.099  28.751  0.00  0.00    +0.124 A 
ATOM     21  C   UNL     1       1.790   1.871  27.669  0.00  0.00    +0.091 A 
ATOM     22  O   UNL     1       3.450  -1.889  28.375  0.00  0.00    -0.451 OA
ATOM     23  C   UNL     1       2.782   1.382  26.827  0.00  0.00    +0.135 A 
ATOM     24  C   UNL     1       4.359  -2.459  27.461  0.00  0.00    +0.181 A 
BRANCH  24  25
ATOM     25  C   UNL     1       4.736  -3.837  27.922  0.00  0.00    +0.025 A 
ATOM     26  C   UNL     1       3.739  -4.771  28.243  0.00  0.00    +0.015 A 
ATOM     27  C   UNL     1       4.044  -6.119  28.437  0.00  0.00    +0.050 A 
ATOM     28  C   UNL     1       5.349  -6.563  28.300  0.00  0.00    +0.158 A 
ATOM     29  C   UNL     1       6.364  -5.663  28.002  0.00  0.00    +0.159 A 
ATOM     30  C   UNL     1       6.075  -4.304  27.825  0.00  0.00    +0.060 A 
BRANCH  29  31
ATOM     31  O   UNL     1       7.623  -6.176  27.846  0.00  0.00    -0.503 OA
ATOM     32  H   UNL     1       7.560  -7.095  27.534  0.00  0.00    +0.292 HD
ENDBRANCH  29  31
BRANCH  28  33
ATOM     33  O   UNL     1       5.616  -7.898  28.410  0.00  0.00    -0.503 OA
ATOM     34  H   UNL     1       4.793  -8.292  28.763  0.00  0.00    +0.292 HD
ENDBRANCH  28  33
ENDBRANCH  24  25
BRANCH  23  35
ATOM     35  O   UNL     1       3.148   2.107  25.729  0.00  0.00    -0.506 OA
ATOM     36  H   UNL     1       4.092   2.331  25.775  0.00  0.00    +0.292 HD
ENDBRANCH  23  35
BRANCH  20  37
ATOM     37  O   UNL     1       0.443   1.643  29.576  0.00  0.00    -0.507 OA
ATOM     38  H   UNL     1      -0.328   1.915  29.055  0.00  0.00    +0.292 HD
ENDBRANCH  20  37
ENDBRANCH  13  14
ENDBRANCH   3  13
BRANCH   1  39
ATOM     39  C   UNL     1       8.278  -3.012  23.398  0.00  0.00    +0.197 C 
BRANCH  39  40
ATOM     40  O   UNL     1       9.099  -1.971  22.867  0.00  0.00    -0.346 OA
BRANCH  40  44
ATOM     41  C   UNL     1       9.492   0.835  21.452  0.00  0.00    +0.041 C 
ATOM     42  C   UNL     1       9.941   1.000  22.899  0.00  0.00    +0.149 C 
ATOM     43  O   UNL     1      10.584  -0.177  23.386  0.00  0.00    -0.343 OA
ATOM     44  C   UNL     1       9.743  -1.214  23.905  0.00  0.00    +0.282 C 
ATOM     45  C   UNL     1       8.770  -0.689  24.985  0.00  0.00    +0.201 C 
ATOM     46  C   UNL     1       7.960   0.518  24.487  0.00  0.00    +0.179 C 
ATOM     47  C   UNL     1       8.879   1.571  23.858  0.00  0.00    +0.174 C 
BRANCH  47  48
ATOM     48  O   UNL     1       9.561   2.249  24.931  0.00  0.00    -0.387 OA
ATOM     49  H   UNL     1       9.697   1.581  25.634  0.00  0.00    +0.210 HD
ENDBRANCH  47  48
BRANCH  46  50
ATOM     50  O   UNL     1       6.928   0.125  23.589  0.00  0.00    -0.386 OA
ATOM     51  H   UNL     1       7.303   0.117  22.690  0.00  0.00    +0.210 HD
ENDBRANCH  46  50
BRANCH  45  52
ATOM     52  O   UNL     1       9.516  -0.314  26.163  0.00  0.00    -0.384 OA
ATOM     53  H   UNL     1      10.463  -0.358  25.932  0.00  0.00    +0.210 HD
ENDBRANCH  45  52
ENDBRANCH  40  44
ENDBRANCH  39  40
ENDBRANCH   1  39
TORSDOF 16
ENDMDL
MODEL 6
REMARK VINA RESULT:      -6.8      2.194      7.100
REMARK  Name = 
REMARK  17 active torsions:
REMARK  status: ('A' for Active; 'I' for Inactive)
REMARK    1  A    between atoms: C_1  and  C_2
REMARK    2  A    between atoms: C_4  and  O_53
REMARK    3  A    between atoms: C_6  and  O_52
REMARK    4  A    between atoms: C_8  and  O_51
REMARK    5  A    between atoms: C_10  and  O_13
REMARK    6  A    between atoms: O_13  and  C_14
REMARK    7  A    between atoms: C_14  and  C_15
REMARK    8  A    between atoms: C_17  and  O_50
REMARK    9  A    between atoms: C_19  and  O_49
REMARK   10  A    between atoms: C_21  and  O_48
REMARK   11  A    between atoms: C_23  and  O_26
REMARK   12  A    between atoms: O_26  and  C_27
REMARK   13  A    between atoms: C_28  and  C_40
REMARK   14  A    between atoms: C_32  and  O_39
REMARK   15  A    between atoms: C_34  and  O_38
REMARK   16  A    between atoms: C_42  and  O_47
REMARK   17  A    between atoms: C_43  and  O_46
REMARK                            x       y       z     vdW  Elec       q    Type
REMARK                         _______ _______ _______ _____ _____    ______ ____
ROOT
ATOM      1  C   UNL     1       6.495   1.875  26.916  0.00  0.00    +0.179 C 
ATOM      2  O   UNL     1       6.840   0.618  27.523  0.00  0.00    -0.331 OA
ATOM      3  C   UNL     1       6.657  -0.608  26.779  0.00  0.00    +0.340 C 
ATOM      4  C   UNL     1       5.301  -0.628  26.002  0.00  0.00    +0.214 C 
ATOM      5  C   UNL     1       5.012   0.682  25.255  0.00  0.00    +0.180 C 
ATOM      6  C   UNL     1       5.130   1.871  26.213  0.00  0.00    +0.177 C 
ENDROOT
BRANCH   6   7
ATOM      7  O   UNL     1       4.085   1.803  27.205  0.00  0.00    -0.386 OA
ATOM      8  H   UNL     1       3.288   2.224  26.817  0.00  0.00    +0.210 HD
ENDBRANCH   6   7
BRANCH   5   9
ATOM      9  O   UNL     1       5.834   0.874  24.105  0.00  0.00    -0.386 OA
ATOM     10  H   UNL     1       6.206   0.022  23.817  0.00  0.00    +0.210 HD
ENDBRANCH   5   9
BRANCH   4  11
ATOM     11  O   UNL     1       4.224  -0.833  26.943  0.00  0.00    -0.383 OA
ATOM     12  H   UNL     1       3.418  -1.007  26.422  0.00  0.00    +0.210 HD
ENDBRANCH   4  11
BRANCH   3  13
ATOM     13  O   UNL     1       7.817  -0.958  25.960  0.00  0.00    -0.453 OA
BRANCH  13  14
ATOM     14  C   UNL     1       7.652  -1.954  24.967  0.00  0.00    +0.214 A 
ATOM     15  C   UNL     1       7.071  -3.297  25.300  0.00  0.00    +0.238 A 
ATOM     16  O   UNL     1       7.122  -3.776  26.424  0.00  0.00    -0.283 OA
ATOM     17  C   UNL     1       6.525  -4.109  24.220  0.00  0.00    +0.109 A 
ATOM     18  C   UNL     1       7.001  -3.863  22.946  0.00  0.00    +0.147 A 
ATOM     19  C   UNL     1       6.680  -4.740  21.905  0.00  0.00    +0.092 A 
ATOM     20  C   UNL     1       5.865  -5.841  22.169  0.00  0.00    +0.124 A 
ATOM     21  C   UNL     1       5.328  -6.055  23.433  0.00  0.00    +0.091 A 
ATOM     22  O   UNL     1       7.817  -2.797  22.676  0.00  0.00    -0.451 OA
ATOM     23  C   UNL     1       5.650  -5.176  24.460  0.00  0.00    +0.135 A 
ATOM     24  C   UNL     1       8.050  -1.821  23.667  0.00  0.00    +0.181 A 
BRANCH  24  25
ATOM     25  C   UNL     1       8.916  -0.731  23.104  0.00  0.00    +0.025 A 
ATOM     26  C   UNL     1       8.660  -0.218  21.823  0.00  0.00    +0.015 A 
ATOM     27  C   UNL     1       9.283   0.947  21.372  0.00  0.00    +0.050 A 
ATOM     28  C   UNL     1      10.159   1.630  22.197  0.00  0.00    +0.158 A 
ATOM     29  C   UNL     1      10.451   1.141  23.464  0.00  0.00    +0.159 A 
ATOM     30  C   UNL     1       9.849  -0.038  23.922  0.00  0.00    +0.060 A 
BRANCH  29  31
ATOM     31  O   UNL     1      11.298   1.886  24.238  0.00  0.00    -0.503 OA
ATOM     32  H   UNL     1      11.721   2.568  23.689  0.00  0.00    +0.292 HD
ENDBRANCH  29  31
BRANCH  28  33
ATOM     33  O   UNL     1      10.694   2.813  21.771  0.00  0.00    -0.503 OA
ATOM     34  H   UNL     1      10.138   3.084  21.013  0.00  0.00    +0.292 HD
ENDBRANCH  28  33
ENDBRANCH  24  25
BRANCH  23  35
ATOM     35  O   UNL     1       5.083  -5.345  25.691  0.00  0.00    -0.506 OA
ATOM     36  H   UNL     1       4.120  -5.236  25.634  0.00  0.00    +0.292 HD
ENDBRANCH  23  35
BRANCH  20  37
ATOM     37  O   UNL     1       5.559  -6.759  21.207  0.00  0.00    -0.507 OA
ATOM     38  H   UNL     1       5.075  -7.499  21.606  0.00  0.00    +0.292 HD
ENDBRANCH  20  37
ENDBRANCH  13  14
ENDBRANCH   3  13
BRANCH   1  39
ATOM     39  C   UNL     1       7.668   2.345  26.058  0.00  0.00    +0.197 C 
BRANCH  39  40
ATOM     40  O   UNL     1       7.502   3.664  25.537  0.00  0.00    -0.346 OA
BRANCH  40  44
ATOM     41  C   UNL     1       5.082   4.265  23.585  0.00  0.00    +0.041 C 
ATOM     42  C   UNL     1       6.361   4.436  22.773  0.00  0.00    +0.149 C 
ATOM     43  O   UNL     1       7.358   3.492  23.162  0.00  0.00    -0.343 OA
ATOM     44  C   UNL     1       8.181   3.835  24.282  0.00  0.00    +0.282 C 
ATOM     45  C   UNL     1       8.840   5.224  24.117  0.00  0.00    +0.201 C 
ATOM     46  C   UNL     1       7.805   6.314  23.805  0.00  0.00    +0.179 C 
ATOM     47  C   UNL     1       6.883   5.881  22.660  0.00  0.00    +0.174 C 
BRANCH  47  48
ATOM     48  O   UNL     1       7.630   5.994  21.434  0.00  0.00    -0.387 OA
ATOM     49  H   UNL     1       8.152   6.820  21.506  0.00  0.00    +0.210 HD
ENDBRANCH  47  48
BRANCH  46  50
ATOM     50  O   UNL     1       7.061   6.681  24.962  0.00  0.00    -0.386 OA
ATOM     51  H   UNL     1       7.696   6.881  25.673  0.00  0.00    +0.210 HD
ENDBRANCH  46  50
BRANCH  45  52
ATOM     52  O   UNL     1       9.817   5.169  23.055  0.00  0.00    -0.384 OA
ATOM     53  H   UNL     1       9.888   6.065  22.680  0.00  0.00    +0.210 HD
ENDBRANCH  45  52
ENDBRANCH  40  44
ENDBRANCH  39  40
ENDBRANCH   1  39
TORSDOF 16
ENDMDL
MODEL 7
REMARK VINA RESULT:      -6.8      1.844      6.394
REMARK  Name = 
REMARK  17 active torsions:
REMARK  status: ('A' for Active; 'I' for Inactive)
REMARK    1  A    between atoms: C_1  and  C_2
REMARK    2  A    between atoms: C_4  and  O_53
REMARK    3  A    between atoms: C_6  and  O_52
REMARK    4  A    between atoms: C_8  and  O_51
REMARK    5  A    between atoms: C_10  and  O_13
REMARK    6  A    between atoms: O_13  and  C_14
REMARK    7  A    between atoms: C_14  and  C_15
REMARK    8  A    between atoms: C_17  and  O_50
REMARK    9  A    between atoms: C_19  and  O_49
REMARK   10  A    between atoms: C_21  and  O_48
REMARK   11  A    between atoms: C_23  and  O_26
REMARK   12  A    between atoms: O_26  and  C_27
REMARK   13  A    between atoms: C_28  and  C_40
REMARK   14  A    between atoms: C_32  and  O_39
REMARK   15  A    between atoms: C_34  and  O_38
REMARK   16  A    between atoms: C_42  and  O_47
REMARK   17  A    between atoms: C_43  and  O_46
REMARK                            x       y       z     vdW  Elec       q    Type
REMARK                         _______ _______ _______ _____ _____    ______ ____
ROOT
ATOM      1  C   UNL     1       6.528   0.299  25.948  0.00  0.00    +0.179 C 
ATOM      2  O   UNL     1       6.384  -1.068  26.370  0.00  0.00    -0.331 OA
ATOM      3  C   UNL     1       5.079  -1.565  26.748  0.00  0.00    +0.340 C 
ATOM      4  C   UNL     1       4.293  -0.541  27.628  0.00  0.00    +0.214 C 
ATOM      5  C   UNL     1       4.355   0.895  27.088  0.00  0.00    +0.180 C 
ATOM      6  C   UNL     1       5.811   1.308  26.855  0.00  0.00    +0.177 C 
ENDROOT
BRANCH   6   7
ATOM      7  O   UNL     1       6.503   1.385  28.118  0.00  0.00    -0.386 OA
ATOM      8  H   UNL     1       7.413   1.048  27.973  0.00  0.00    +0.210 HD
ENDBRANCH   6   7
BRANCH   5   9
ATOM      9  O   UNL     1       3.577   1.093  25.908  0.00  0.00    -0.386 OA
ATOM     10  H   UNL     1       4.154   1.086  25.126  0.00  0.00    +0.210 HD
ENDBRANCH   5   9
BRANCH   4  11
ATOM     11  O   UNL     1       4.865  -0.526  28.955  0.00  0.00    -0.383 OA
ATOM     12  H   UNL     1       4.655  -1.384  29.368  0.00  0.00    +0.210 HD
ENDBRANCH   4  11
BRANCH   3  13
ATOM     13  O   UNL     1       4.315  -2.085  25.614  0.00  0.00    -0.453 OA
BRANCH  13  14
ATOM     14  C   UNL     1       4.174  -3.489  25.497  0.00  0.00    +0.214 A 
ATOM     15  C   UNL     1       3.201  -4.248  26.351  0.00  0.00    +0.238 A 
ATOM     16  O   UNL     1       2.822  -3.839  27.439  0.00  0.00    -0.283 OA
ATOM     17  C   UNL     1       2.776  -5.573  25.917  0.00  0.00    +0.109 A 
ATOM     18  C   UNL     1       3.626  -6.258  25.068  0.00  0.00    +0.147 A 
ATOM     19  C   UNL     1       3.384  -7.607  24.785  0.00  0.00    +0.092 A 
ATOM     20  C   UNL     1       2.274  -8.232  25.353  0.00  0.00    +0.124 A 
ATOM     21  C   UNL     1       1.379  -7.531  26.153  0.00  0.00    +0.091 A 
ATOM     22  O   UNL     1       4.730  -5.661  24.519  0.00  0.00    -0.451 OA
ATOM     23  C   UNL     1       1.627  -6.190  26.424  0.00  0.00    +0.135 A 
ATOM     24  C   UNL     1       4.928  -4.274  24.672  0.00  0.00    +0.181 A 
BRANCH  24  25
ATOM     25  C   UNL     1       6.163  -3.859  23.926  0.00  0.00    +0.025 A 
ATOM     26  C   UNL     1       6.063  -3.015  22.810  0.00  0.00    +0.015 A 
ATOM     27  C   UNL     1       7.193  -2.419  22.247  0.00  0.00    +0.050 A 
ATOM     28  C   UNL     1       8.443  -2.643  22.799  0.00  0.00    +0.158 A 
ATOM     29  C   UNL     1       8.582  -3.488  23.892  0.00  0.00    +0.159 A 
ATOM     30  C   UNL     1       7.459  -4.108  24.454  0.00  0.00    +0.060 A 
BRANCH  29  31
ATOM     31  O   UNL     1       9.842  -3.635  24.407  0.00  0.00    -0.503 OA
ATOM     32  H   UNL     1       9.934  -3.075  25.197  0.00  0.00    +0.292 HD
ENDBRANCH  29  31
BRANCH  28  33
ATOM     33  O   UNL     1       9.526  -1.985  22.288  0.00  0.00    -0.503 OA
ATOM     34  H   UNL     1       9.488  -1.090  22.682  0.00  0.00    +0.292 HD
ENDBRANCH  28  33
ENDBRANCH  24  25
BRANCH  23  35
ATOM     35  O   UNL     1       0.725  -5.477  27.162  0.00  0.00    -0.506 OA
ATOM     36  H   UNL     1       0.931  -5.555  28.108  0.00  0.00    +0.292 HD
ENDBRANCH  23  35
BRANCH  20  37
ATOM     37  O   UNL     1       2.014  -9.557  25.156  0.00  0.00    -0.507 OA
ATOM     38  H   UNL     1       2.836 -10.066  25.235  0.00  0.00    +0.292 HD
ENDBRANCH  20  37
ENDBRANCH  13  14
ENDBRANCH   3  13
BRANCH   1  39
ATOM     39  C   UNL     1       6.178   0.394  24.463  0.00  0.00    +0.197 C 
BRANCH  39  40
ATOM     40  O   UNL     1       7.314   0.599  23.621  0.00  0.00    -0.346 OA
BRANCH  40  44
ATOM     41  C   UNL     1      10.258   0.418  24.772  0.00  0.00    +0.041 C 
ATOM     42  C   UNL     1      10.036   1.864  24.344  0.00  0.00    +0.149 C 
ATOM     43  O   UNL     1       8.695   2.284  24.593  0.00  0.00    -0.343 OA
ATOM     44  C   UNL     1       7.718   1.977  23.592  0.00  0.00    +0.282 C 
ATOM     45  C   UNL     1       8.147   2.468  22.189  0.00  0.00    +0.201 C 
ATOM     46  C   UNL     1       9.545   1.959  21.809  0.00  0.00    +0.179 C 
ATOM     47  C   UNL     1      10.549   2.222  22.937  0.00  0.00    +0.174 C 
BRANCH  47  48
ATOM     48  O   UNL     1      10.864   3.628  22.918  0.00  0.00    -0.387 OA
ATOM     49  H   UNL     1      10.267   4.034  22.255  0.00  0.00    +0.210 HD
ENDBRANCH  47  48
BRANCH  46  50
ATOM     50  O   UNL     1       9.523   0.583  21.443  0.00  0.00    -0.386 OA
ATOM     51  H   UNL     1       8.725   0.432  20.905  0.00  0.00    +0.210 HD
ENDBRANCH  46  50
BRANCH  45  52
ATOM     52  O   UNL     1       8.136   3.912  22.162  0.00  0.00    -0.384 OA
ATOM     53  H   UNL     1       7.997   4.218  23.077  0.00  0.00    +0.210 HD
ENDBRANCH  45  52
ENDBRANCH  40  44
ENDBRANCH  39  40
ENDBRANCH   1  39
TORSDOF 16
ENDMDL
MODEL 8
REMARK VINA RESULT:      -6.7      1.654      7.332
REMARK  Name = 
REMARK  17 active torsions:
REMARK  status: ('A' for Active; 'I' for Inactive)
REMARK    1  A    between atoms: C_1  and  C_2
REMARK    2  A    between atoms: C_4  and  O_53
REMARK    3  A    between atoms: C_6  and  O_52
REMARK    4  A    between atoms: C_8  and  O_51
REMARK    5  A    between atoms: C_10  and  O_13
REMARK    6  A    between atoms: O_13  and  C_14
REMARK    7  A    between atoms: C_14  and  C_15
REMARK    8  A    between atoms: C_17  and  O_50
REMARK    9  A    between atoms: C_19  and  O_49
REMARK   10  A    between atoms: C_21  and  O_48
REMARK   11  A    between atoms: C_23  and  O_26
REMARK   12  A    between atoms: O_26  and  C_27
REMARK   13  A    between atoms: C_28  and  C_40
REMARK   14  A    between atoms: C_32  and  O_39
REMARK   15  A    between atoms: C_34  and  O_38
REMARK   16  A    between atoms: C_42  and  O_47
REMARK   17  A    between atoms: C_43  and  O_46
REMARK                            x       y       z     vdW  Elec       q    Type
REMARK                         _______ _______ _______ _____ _____    ______ ____
ROOT
ATOM      1  C   UNL     1       8.157  -4.276  26.105  0.00  0.00    +0.179 C 
ATOM      2  O   UNL     1       8.406  -2.863  26.016  0.00  0.00    -0.331 OA
ATOM      3  C   UNL     1       8.215  -2.182  24.754  0.00  0.00    +0.340 C 
ATOM      4  C   UNL     1       8.779  -3.004  23.551  0.00  0.00    +0.214 C 
ATOM      5  C   UNL     1       8.393  -4.490  23.599  0.00  0.00    +0.180 C 
ATOM      6  C   UNL     1       8.772  -5.089  24.957  0.00  0.00    +0.177 C 
ENDROOT
BRANCH   6   7
ATOM      7  O   UNL     1      10.207  -5.101  25.100  0.00  0.00    -0.386 OA
ATOM      8  H   UNL     1      10.572  -4.495  24.420  0.00  0.00    +0.210 HD
ENDBRANCH   6   7
BRANCH   5   9
ATOM      9  O   UNL     1       7.018  -4.730  23.305  0.00  0.00    -0.386 OA
ATOM     10  H   UNL     1       6.716  -4.121  22.610  0.00  0.00    +0.210 HD
ENDBRANCH   5   9
BRANCH   4  11
ATOM     11  O   UNL     1      10.222  -2.934  23.569  0.00  0.00    -0.383 OA
ATOM     12  H   UNL     1      10.553  -3.725  23.105  0.00  0.00    +0.210 HD
ENDBRANCH   4  11
BRANCH   3  13
ATOM     13  O   UNL     1       6.844  -1.710  24.562  0.00  0.00    -0.453 OA
BRANCH  13  14
ATOM     14  C   UNL     1       6.351  -0.723  25.450  0.00  0.00    +0.214 A 
ATOM     15  C   UNL     1       5.217  -1.014  26.387  0.00  0.00    +0.238 A 
ATOM     16  O   UNL     1       4.387  -1.884  26.165  0.00  0.00    -0.283 OA
ATOM     17  C   UNL     1       5.033  -0.155  27.550  0.00  0.00    +0.109 A 
ATOM     18  C   UNL     1       5.551   1.125  27.474  0.00  0.00    +0.147 A 
ATOM     19  C   UNL     1       5.228   2.063  28.460  0.00  0.00    +0.092 A 
ATOM     20  C   UNL     1       4.402   1.682  29.518  0.00  0.00    +0.124 A 
ATOM     21  C   UNL     1       3.935   0.377  29.636  0.00  0.00    +0.091 A 
ATOM     22  O   UNL     1       6.347   1.518  26.431  0.00  0.00    -0.451 OA
ATOM     23  C   UNL     1       4.264  -0.547  28.652  0.00  0.00    +0.135 A 
ATOM     24  C   UNL     1       6.801   0.567  25.496  0.00  0.00    +0.181 A 
BRANCH  24  25
ATOM     25  C   UNL     1       7.705   1.234  24.500  0.00  0.00    +0.025 A 
ATOM     26  C   UNL     1       8.981   1.669  24.887  0.00  0.00    +0.015 A 
ATOM     27  C   UNL     1       9.929   2.067  23.943  0.00  0.00    +0.050 A 
ATOM     28  C   UNL     1       9.625   2.022  22.592  0.00  0.00    +0.158 A 
ATOM     29  C   UNL     1       8.364   1.616  22.174  0.00  0.00    +0.159 A 
ATOM     30  C   UNL     1       7.398   1.233  23.112  0.00  0.00    +0.060 A 
BRANCH  29  31
ATOM     31  O   UNL     1       8.145   1.562  20.824  0.00  0.00    -0.503 OA
ATOM     32  H   UNL     1       7.232   1.275  20.657  0.00  0.00    +0.292 HD
ENDBRANCH  29  31
BRANCH  28  33
ATOM     33  O   UNL     1      10.592   2.335  21.679  0.00  0.00    -0.503 OA
ATOM     34  H   UNL     1      11.090   1.504  21.544  0.00  0.00    +0.292 HD
ENDBRANCH  28  33
ENDBRANCH  24  25
BRANCH  23  35
ATOM     35  O   UNL     1       3.857  -1.844  28.787  0.00  0.00    -0.506 OA
ATOM     36  H   UNL     1       3.115  -1.900  29.411  0.00  0.00    +0.292 HD
ENDBRANCH  23  35
BRANCH  20  37
ATOM     37  O   UNL     1       4.011   2.564  30.482  0.00  0.00    -0.507 OA
ATOM     38  H   UNL     1       3.375   2.136  31.076  0.00  0.00    +0.292 HD
ENDBRANCH  20  37
ENDBRANCH  13  14
ENDBRANCH   3  13
BRANCH   1  39
ATOM     39  C   UNL     1       6.662  -4.498  26.332  0.00  0.00    +0.197 C 
BRANCH  39  40
ATOM     40  O   UNL     1       6.366  -5.192  27.545  0.00  0.00    -0.346 OA
BRANCH  40  44
ATOM     41  C   UNL     1       5.015  -5.747  30.355  0.00  0.00    +0.041 C 
ATOM     42  C   UNL     1       4.528  -6.834  29.404  0.00  0.00    +0.149 C 
ATOM     43  O   UNL     1       5.549  -7.225  28.488  0.00  0.00    -0.343 OA
ATOM     44  C   UNL     1       5.697  -6.439  27.300  0.00  0.00    +0.282 C 
ATOM     45  C   UNL     1       4.363  -6.287  26.533  0.00  0.00    +0.201 C 
ATOM     46  C   UNL     1       3.239  -5.761  27.438  0.00  0.00    +0.179 C 
ATOM     47  C   UNL     1       3.165  -6.567  28.740  0.00  0.00    +0.174 C 
BRANCH  47  48
ATOM     48  O   UNL     1       2.559  -7.837  28.430  0.00  0.00    -0.387 OA
ATOM     49  H   UNL     1       3.286  -8.493  28.425  0.00  0.00    +0.210 HD
ENDBRANCH  47  48
BRANCH  46  50
ATOM     50  O   UNL     1       3.379  -4.368  27.696  0.00  0.00    -0.386 OA
ATOM     51  H   UNL     1       4.316  -4.135  27.568  0.00  0.00    +0.210 HD
ENDBRANCH  46  50
BRANCH  45  52
ATOM     52  O   UNL     1       3.979  -7.564  25.980  0.00  0.00    -0.384 OA
ATOM     53  H   UNL     1       4.796  -8.079  25.844  0.00  0.00    +0.210 HD
ENDBRANCH  45  52
ENDBRANCH  40  44
ENDBRANCH  39  40
ENDBRANCH   1  39
TORSDOF 16
ENDMDL
MODEL 9
REMARK VINA RESULT:      -6.6      1.722      5.561
REMARK  Name = 
REMARK  17 active torsions:
REMARK  status: ('A' for Active; 'I' for Inactive)
REMARK    1  A    between atoms: C_1  and  C_2
REMARK    2  A    between atoms: C_4  and  O_53
REMARK    3  A    between atoms: C_6  and  O_52
REMARK    4  A    between atoms: C_8  and  O_51
REMARK    5  A    between atoms: C_10  and  O_13
REMARK    6  A    between atoms: O_13  and  C_14
REMARK    7  A    between atoms: C_14  and  C_15
REMARK    8  A    between atoms: C_17  and  O_50
REMARK    9  A    between atoms: C_19  and  O_49
REMARK   10  A    between atoms: C_21  and  O_48
REMARK   11  A    between atoms: C_23  and  O_26
REMARK   12  A    between atoms: O_26  and  C_27
REMARK   13  A    between atoms: C_28  and  C_40
REMARK   14  A    between atoms: C_32  and  O_39
REMARK   15  A    between atoms: C_34  and  O_38
REMARK   16  A    between atoms: C_42  and  O_47
REMARK   17  A    between atoms: C_43  and  O_46
REMARK                            x       y       z     vdW  Elec       q    Type
REMARK                         _______ _______ _______ _____ _____    ______ ____
ROOT
ATOM      1  C   UNL     1       8.872  -1.154  22.280  0.00  0.00    +0.179 C 
ATOM      2  O   UNL     1       8.012  -2.285  22.054  0.00  0.00    -0.331 OA
ATOM      3  C   UNL     1       7.393  -2.947  23.181  0.00  0.00    +0.340 C 
ATOM      4  C   UNL     1       8.387  -3.132  24.372  0.00  0.00    +0.214 C 
ATOM      5  C   UNL     1       9.206  -1.870  24.679  0.00  0.00    +0.180 C 
ATOM      6  C   UNL     1       9.893  -1.366  23.406  0.00  0.00    +0.177 C 
ENDROOT
BRANCH   6   7
ATOM      7  O   UNL     1      10.883  -2.323  22.976  0.00  0.00    -0.386 OA
ATOM      8  H   UNL     1      10.948  -3.008  23.675  0.00  0.00    +0.210 HD
ENDBRANCH   6   7
BRANCH   5   9
ATOM      9  O   UNL     1       8.442  -0.831  25.289  0.00  0.00    -0.386 OA
ATOM     10  H   UNL     1       7.515  -0.890  25.003  0.00  0.00    +0.210 HD
ENDBRANCH   5   9
BRANCH   4  11
ATOM     11  O   UNL     1       9.323  -4.183  24.045  0.00  0.00    -0.383 OA
ATOM     12  H   UNL     1       9.399  -4.207  23.073  0.00  0.00    +0.210 HD
ENDBRANCH   4  11
BRANCH   3  13
ATOM     13  O   UNL     1       6.112  -2.352  23.561  0.00  0.00    -0.453 OA
BRANCH  13  14
ATOM     14  C   UNL     1       5.261  -3.098  24.411  0.00  0.00    +0.214 A 
ATOM     15  C   UNL     1       4.617  -4.371  23.947  0.00  0.00    +0.238 A 
ATOM     16  O   UNL     1       4.406  -4.609  22.766  0.00  0.00    -0.283 OA
ATOM     17  C   UNL     1       4.122  -5.310  24.946  0.00  0.00    +0.109 A 
ATOM     18  C   UNL     1       3.810  -4.795  26.191  0.00  0.00    +0.147 A 
ATOM     19  C   UNL     1       3.136  -5.593  27.122  0.00  0.00    +0.092 A 
ATOM     20  C   UNL     1       2.809  -6.906  26.782  0.00  0.00    +0.124 A 
ATOM     21  C   UNL     1       3.182  -7.450  25.558  0.00  0.00    +0.091 A 
ATOM     22  O   UNL     1       4.107  -3.502  26.531  0.00  0.00    -0.451 OA
ATOM     23  C   UNL     1       3.854  -6.650  24.642  0.00  0.00    +0.135 A 
ATOM     24  C   UNL     1       4.901  -2.715  25.673  0.00  0.00    +0.181 A 
BRANCH  24  25
ATOM     25  C   UNL     1       5.137  -1.371  26.300  0.00  0.00    +0.025 A 
ATOM     26  C   UNL     1       5.822  -1.273  27.521  0.00  0.00    +0.015 A 
ATOM     27  C   UNL     1       6.268  -0.042  28.005  0.00  0.00    +0.050 A 
ATOM     28  C   UNL     1       6.053   1.112  27.271  0.00  0.00    +0.158 A 
ATOM     29  C   UNL     1       5.361   1.055  26.068  0.00  0.00    +0.159 A 
ATOM     30  C   UNL     1       4.891  -0.171  25.580  0.00  0.00    +0.060 A 
BRANCH  29  31
ATOM     31  O   UNL     1       5.216   2.228  25.379  0.00  0.00    -0.503 OA
ATOM     32  H   UNL     1       5.758   2.917  25.798  0.00  0.00    +0.292 HD
ENDBRANCH  29  31
BRANCH  28  33
ATOM     33  O   UNL     1       6.570   2.295  27.719  0.00  0.00    -0.503 OA
ATOM     34  H   UNL     1       7.540   2.177  27.682  0.00  0.00    +0.292 HD
ENDBRANCH  28  33
ENDBRANCH  24  25
BRANCH  23  35
ATOM     35  O   UNL     1       4.274  -7.190  23.460  0.00  0.00    -0.506 OA
ATOM     36  H   UNL     1       3.549  -7.680  23.039  0.00  0.00    +0.292 HD
ENDBRANCH  23  35
BRANCH  20  37
ATOM     37  O   UNL     1       2.109  -7.717  27.627  0.00  0.00    -0.507 OA
ATOM     38  H   UNL     1       1.239  -7.911  27.245  0.00  0.00    +0.292 HD
ENDBRANCH  20  37
ENDBRANCH  13  14
ENDBRANCH   3  13
BRANCH   1  39
ATOM     39  C   UNL     1       8.010   0.101  22.410  0.00  0.00    +0.197 C 
BRANCH  39  40
ATOM     40  O   UNL     1       8.510   1.041  23.362  0.00  0.00    -0.346 OA
BRANCH  40  44
ATOM     41  C   UNL     1       6.163   2.987  22.506  0.00  0.00    +0.041 C 
ATOM     42  C   UNL     1       7.472   3.697  22.178  0.00  0.00    +0.149 C 
ATOM     43  O   UNL     1       8.467   2.779  21.728  0.00  0.00    -0.343 OA
ATOM     44  C   UNL     1       9.237   2.107  22.732  0.00  0.00    +0.282 C 
ATOM     45  C   UNL     1       9.879   3.096  23.732  0.00  0.00    +0.201 C 
ATOM     46  C   UNL     1       8.840   4.048  24.342  0.00  0.00    +0.179 C 
ATOM     47  C   UNL     1       7.973   4.683  23.249  0.00  0.00    +0.174 C 
BRANCH  47  48
ATOM     48  O   UNL     1       8.769   5.691  22.595  0.00  0.00    -0.387 OA
ATOM     49  H   UNL     1       8.799   5.443  21.647  0.00  0.00    +0.210 HD
ENDBRANCH  47  48
BRANCH  46  50
ATOM     50  O   UNL     1       8.042   3.397  25.326  0.00  0.00    -0.386 OA
ATOM     51  H   UNL     1       7.923   4.016  26.068  0.00  0.00    +0.210 HD
ENDBRANCH  46  50
BRANCH  45  52
ATOM     52  O   UNL     1      10.900   3.865  23.060  0.00  0.00    -0.384 OA
ATOM     53  H   UNL     1      11.437   3.240  22.539  0.00  0.00    +0.210 HD
ENDBRANCH  45  52
ENDBRANCH  40  44
ENDBRANCH  39  40
ENDBRANCH   1  39
TORSDOF 16
ENDMDL
