MODEL 1
REMARK VINA RESULT:      -6.8      0.000      0.000
REMARK  Name = 
REMARK  22 active torsions:
REMARK  status: ('A' for Active; 'I' for Inactive)
REMARK    1  A    between atoms: C_3  and  O_60
REMARK    2  A    between atoms: C_4  and  O_59
REMARK    3  A    between atoms: C_6  and  C_7
REMARK    4  A    between atoms: C_8  and  O_36
REMARK    5  A    between atoms: C_12  and  O_35
REMARK    6  A    between atoms: C_14  and  O_18
REMARK    7  A    between atoms: O_18  and  C_19
REMARK    8  A    between atoms: C_21  and  O_34
REMARK    9  A    between atoms: C_23  and  O_33
REMARK   10  A    between atoms: C_25  and  O_32
REMARK   11  A    between atoms: C_27  and  C_30
REMARK   12  A    between atoms: C_30  and  O_31
REMARK   13  A    between atoms: O_36  and  C_37
REMARK   14  A    between atoms: C_39  and  O_58
REMARK   15  A    between atoms: C_41  and  O_57
REMARK   16  A    between atoms: C_43  and  O_56
REMARK   17  A    between atoms: C_45  and  C_48
REMARK   18  A    between atoms: C_48  and  O_49
REMARK   19  A    between atoms: O_49  and  C_50
REMARK   20  A    between atoms: C_50  and  C_52
REMARK   21  A    between atoms: C_52  and  C_53
REMARK   22  A    between atoms: C_53  and  O_55
REMARK                            x       y       z     vdW  Elec       q    Type
REMARK                         _______ _______ _______ _____ _____    ______ ____
ROOT
ATOM      1  C   UNL     1       6.878  -2.823  26.134  0.00  0.00    +0.181 A 
ATOM      2  O   UNL     1       7.323  -1.503  26.203  0.00  0.00    -0.451 OA
ATOM      3  C   UNL     1       8.227  -1.038  25.286  0.00  0.00    +0.147 A 
ATOM      4  C   UNL     1       8.894  -1.868  24.406  0.00  0.00    +0.109 A 
ATOM      5  C   UNL     1       9.901  -1.328  23.594  0.00  0.00    +0.135 A 
ATOM      6  C   UNL     1      10.236   0.033  23.668  0.00  0.00    +0.092 A 
ATOM      7  C   UNL     1       9.553   0.876  24.548  0.00  0.00    +0.131 A 
ATOM      8  C   UNL     1       8.480  -3.279  24.353  0.00  0.00    +0.238 A 
ATOM      9  O   UNL     1       9.097  -4.066  23.642  0.00  0.00    -0.283 OA
ATOM     10  C   UNL     1       8.509   0.331  25.313  0.00  0.00    +0.093 A 
ATOM     11  C   UNL     1       7.292  -3.689  25.173  0.00  0.00    +0.214 A 
ENDROOT
BRANCH   1  13
ATOM     12  C   UNL     1       4.954  -2.170  27.641  0.00  0.00    +0.015 A 
ATOM     13  C   UNL     1       5.896  -3.135  27.222  0.00  0.00    +0.025 A 
ATOM     14  C   UNL     1       5.909  -4.354  27.918  0.00  0.00    +0.060 A 
ATOM     15  C   UNL     1       4.980  -4.621  28.917  0.00  0.00    +0.159 A 
ATOM     16  C   UNL     1       4.084  -3.649  29.331  0.00  0.00    +0.158 A 
ATOM     17  C   UNL     1       4.068  -2.413  28.702  0.00  0.00    +0.050 A 
BRANCH  16  18
ATOM     18  O   UNL     1       3.260  -3.945  30.378  0.00  0.00    -0.503 OA
ATOM     19  H   UNL     1       3.777  -4.436  31.040  0.00  0.00    +0.292 HD
ENDBRANCH  16  18
BRANCH  15  20
ATOM     20  O   UNL     1       4.975  -5.857  29.495  0.00  0.00    -0.503 OA
ATOM     21  H   UNL     1       4.450  -5.754  30.313  0.00  0.00    +0.292 HD
ENDBRANCH  15  20
ENDBRANCH   1  13
BRANCH   5  22
ATOM     22  O   UNL     1      10.622  -2.092  22.713  0.00  0.00    -0.506 OA
ATOM     23  H   UNL     1      11.241  -2.659  23.224  0.00  0.00    +0.292 HD
ENDBRANCH   5  22
BRANCH   7  24
ATOM     24  O   UNL     1       9.990   2.188  24.634  0.00  0.00    -0.461 OA
BRANCH  24  25
ATOM     25  C   UNL     1       9.622   3.032  23.525  0.00  0.00    +0.339 C 
ATOM     26  O   UNL     1       9.842   4.413  23.819  0.00  0.00    -0.331 OA
ATOM     27  C   UNL     1       8.713   5.227  24.175  0.00  0.00    +0.179 C 
ATOM     28  C   UNL     1       7.523   5.013  23.233  0.00  0.00    +0.177 C 
ATOM     29  C   UNL     1       7.081   3.549  23.242  0.00  0.00    +0.180 C 
ATOM     30  C   UNL     1       8.263   2.641  22.881  0.00  0.00    +0.214 C 
BRANCH  28  31
ATOM     31  O   UNL     1       7.928   5.377  21.899  0.00  0.00    -0.386 OA
ATOM     32  H   UNL     1       7.840   6.346  21.823  0.00  0.00    +0.210 HD
ENDBRANCH  28  31
BRANCH  29  33
ATOM     33  O   UNL     1       6.459   3.234  24.482  0.00  0.00    -0.386 OA
ATOM     34  H   UNL     1       6.478   2.272  24.629  0.00  0.00    +0.210 HD
ENDBRANCH  29  33
BRANCH  30  35
ATOM     35  O   UNL     1       8.418   2.723  21.439  0.00  0.00    -0.383 OA
ATOM     36  H   UNL     1       7.540   2.987  21.085  0.00  0.00    +0.210 HD
ENDBRANCH  30  35
BRANCH  27  37
ATOM     37  C   UNL     1       8.363   5.099  25.666  0.00  0.00    +0.190 C 
BRANCH  37  38
ATOM     38  O   UNL     1       9.121   6.035  26.434  0.00  0.00    -0.392 OA
ATOM     39  H   UNL     1       9.386   6.749  25.824  0.00  0.00    +0.210 HD
ENDBRANCH  37  38
ENDBRANCH  27  37
ENDBRANCH  24  25
ENDBRANCH   7  24
BRANCH  11  40
ATOM     40  O   UNL     1       6.742  -4.950  24.907  0.00  0.00    -0.453 OA
BRANCH  40  41
ATOM     41  C   UNL     1       6.020  -4.969  23.658  0.00  0.00    +0.340 C 
ATOM     42  O   UNL     1       4.923  -4.053  23.640  0.00  0.00    -0.330 OA
ATOM     43  C   UNL     1       3.573  -4.438  23.927  0.00  0.00    +0.191 C 
ATOM     44  C   UNL     1       3.209  -5.934  23.805  0.00  0.00    +0.178 C 
ATOM     45  C   UNL     1       4.406  -6.849  24.075  0.00  0.00    +0.180 C 
ATOM     46  C   UNL     1       5.602  -6.378  23.247  0.00  0.00    +0.214 C 
BRANCH  46  47
ATOM     47  O   UNL     1       5.247  -6.377  21.845  0.00  0.00    -0.383 OA
ATOM     48  H   UNL     1       4.470  -5.787  21.729  0.00  0.00    +0.210 HD
ENDBRANCH  46  47
BRANCH  45  49
ATOM     49  O   UNL     1       4.680  -6.933  25.471  0.00  0.00    -0.386 OA
ATOM     50  H   UNL     1       5.472  -7.477  25.634  0.00  0.00    +0.210 HD
ENDBRANCH  45  49
BRANCH  44  51
ATOM     51  O   UNL     1       2.681  -6.168  22.482  0.00  0.00    -0.386 OA
ATOM     52  H   UNL     1       2.925  -7.075  22.206  0.00  0.00    +0.210 HD
ENDBRANCH  44  51
BRANCH  43  53
ATOM     53  C   UNL     1       3.089  -3.832  25.257  0.00  0.00    +0.266 C 
BRANCH  53  54
ATOM     54  O   UNL     1       2.732  -4.863  26.207  0.00  0.00    -0.462 OA
BRANCH  54  55
ATOM     55  C   UNL     1       1.587  -4.653  26.917  0.00  0.00    +0.318 C 
ATOM     56  O   UNL     1       1.021  -3.572  27.036  0.00  0.00    -0.250 OA
BRANCH  55  57
ATOM     57  C   UNL     1       1.035  -5.934  27.473  0.00  0.00    +0.240 C 
BRANCH  57  58
ATOM     58  C   UNL     1       1.979  -6.630  28.399  0.00  0.00    +0.316 C 
ATOM     59  O   UNL     1       1.956  -6.580  29.610  0.00  0.00    -0.250 OA
BRANCH  58  60
ATOM     60  O   UNL     1       2.906  -7.374  27.731  0.00  0.00    -0.480 OA
ATOM     61  H   UNL     1       3.810  -7.335  28.103  0.00  0.00    +0.295 HD
ENDBRANCH  58  60
ENDBRANCH  57  58
ENDBRANCH  55  57
ENDBRANCH  54  55
ENDBRANCH  53  54
ENDBRANCH  43  53
ENDBRANCH  40  41
ENDBRANCH  11  40
TORSDOF 22
ENDMDL
MODEL 2
REMARK VINA RESULT:      -6.6      2.460      9.408
REMARK  Name = 
REMARK  22 active torsions:
REMARK  status: ('A' for Active; 'I' for Inactive)
REMARK    1  A    between atoms: C_3  and  O_60
REMARK    2  A    between atoms: C_4  and  O_59
REMARK    3  A    between atoms: C_6  and  C_7
REMARK    4  A    between atoms: C_8  and  O_36
REMARK    5  A    between atoms: C_12  and  O_35
REMARK    6  A    between atoms: C_14  and  O_18
REMARK    7  A    between atoms: O_18  and  C_19
REMARK    8  A    between atoms: C_21  and  O_34
REMARK    9  A    between atoms: C_23  and  O_33
REMARK   10  A    between atoms: C_25  and  O_32
REMARK   11  A    between atoms: C_27  and  C_30
REMARK   12  A    between atoms: C_30  and  O_31
REMARK   13  A    between atoms: O_36  and  C_37
REMARK   14  A    between atoms: C_39  and  O_58
REMARK   15  A    between atoms: C_41  and  O_57
REMARK   16  A    between atoms: C_43  and  O_56
REMARK   17  A    between atoms: C_45  and  C_48
REMARK   18  A    between atoms: C_48  and  O_49
REMARK   19  A    between atoms: O_49  and  C_50
REMARK   20  A    between atoms: C_50  and  C_52
REMARK   21  A    between atoms: C_52  and  C_53
REMARK   22  A    between atoms: C_53  and  O_55
REMARK                            x       y       z     vdW  Elec       q    Type
REMARK                         _______ _______ _______ _____ _____    ______ ____
ROOT
ATOM      1  C   UNL     1       6.630   1.923  22.953  0.00  0.00    +0.181 A 
ATOM      2  O   UNL     1       6.173   0.636  23.235  0.00  0.00    -0.451 OA
ATOM      3  C   UNL     1       7.025  -0.430  23.132  0.00  0.00    +0.147 A 
ATOM      4  C   UNL     1       8.278  -0.335  22.559  0.00  0.00    +0.109 A 
ATOM      5  C   UNL     1       9.030  -1.502  22.372  0.00  0.00    +0.135 A 
ATOM      6  C   UNL     1       8.528  -2.754  22.757  0.00  0.00    +0.092 A 
ATOM      7  C   UNL     1       7.267  -2.852  23.349  0.00  0.00    +0.131 A 
ATOM      8  C   UNL     1       8.763   1.008  22.203  0.00  0.00    +0.238 A 
ATOM      9  O   UNL     1       9.836   1.132  21.621  0.00  0.00    -0.283 OA
ATOM     10  C   UNL     1       6.549  -1.667  23.580  0.00  0.00    +0.093 A 
ATOM     11  C   UNL     1       7.913   2.183  22.589  0.00  0.00    +0.214 A 
ENDROOT
BRANCH   1  13
ATOM     12  C   UNL     1       4.433   2.685  23.948  0.00  0.00    +0.015 A 
ATOM     13  C   UNL     1       5.549   2.946  23.123  0.00  0.00    +0.025 A 
ATOM     14  C   UNL     1       5.554   4.166  22.427  0.00  0.00    +0.060 A 
ATOM     15  C   UNL     1       4.542   5.101  22.610  0.00  0.00    +0.159 A 
ATOM     16  C   UNL     1       3.443   4.811  23.402  0.00  0.00    +0.158 A 
ATOM     17  C   UNL     1       3.375   3.600  24.072  0.00  0.00    +0.050 A 
BRANCH  16  18
ATOM     18  O   UNL     1       2.443   5.738  23.468  0.00  0.00    -0.503 OA
ATOM     19  H   UNL     1       1.860   5.501  24.210  0.00  0.00    +0.292 HD
ENDBRANCH  16  18
BRANCH  15  20
ATOM     20  O   UNL     1       4.644   6.309  21.983  0.00  0.00    -0.503 OA
ATOM     21  H   UNL     1       5.601   6.501  21.955  0.00  0.00    +0.292 HD
ENDBRANCH  15  20
ENDBRANCH   1  13
BRANCH   5  22
ATOM     22  O   UNL     1      10.272  -1.489  21.790  0.00  0.00    -0.506 OA
ATOM     23  H   UNL     1      10.511  -2.411  21.544  0.00  0.00    +0.292 HD
ENDBRANCH   5  22
BRANCH   7  24
ATOM     24  O   UNL     1       6.793  -4.124  23.625  0.00  0.00    -0.461 OA
BRANCH  24  25
ATOM     25  C   UNL     1       7.392  -4.767  24.769  0.00  0.00    +0.339 C 
ATOM     26  O   UNL     1       6.704  -5.971  25.115  0.00  0.00    -0.331 OA
ATOM     27  C   UNL     1       5.794  -5.944  26.226  0.00  0.00    +0.179 C 
ATOM     28  C   UNL     1       6.390  -5.239  27.450  0.00  0.00    +0.177 C 
ATOM     29  C   UNL     1       6.775  -3.799  27.110  0.00  0.00    +0.180 C 
ATOM     30  C   UNL     1       7.737  -3.779  25.917  0.00  0.00    +0.214 C 
BRANCH  28  31
ATOM     31  O   UNL     1       7.568  -5.960  27.860  0.00  0.00    -0.386 OA
ATOM     32  H   UNL     1       7.406  -6.291  28.763  0.00  0.00    +0.210 HD
ENDBRANCH  28  31
BRANCH  29  33
ATOM     33  O   UNL     1       5.604  -3.009  26.931  0.00  0.00    -0.386 OA
ATOM     34  H   UNL     1       5.254  -2.734  27.797  0.00  0.00    +0.210 HD
ENDBRANCH  29  33
BRANCH  30  35
ATOM     35  O   UNL     1       9.043  -4.145  26.436  0.00  0.00    -0.383 OA
ATOM     36  H   UNL     1       9.700  -3.647  25.900  0.00  0.00    +0.210 HD
ENDBRANCH  30  35
BRANCH  27  37
ATOM     37  C   UNL     1       4.407  -5.424  25.816  0.00  0.00    +0.190 C 
BRANCH  37  38
ATOM     38  O   UNL     1       4.221  -5.566  24.407  0.00  0.00    -0.392 OA
ATOM     39  H   UNL     1       4.968  -5.106  23.979  0.00  0.00    +0.210 HD
ENDBRANCH  37  38
ENDBRANCH  27  37
ENDBRANCH  24  25
ENDBRANCH   7  24
BRANCH  11  40
ATOM     40  O   UNL     1       8.503   3.451  22.497  0.00  0.00    -0.453 OA
BRANCH  40  41
ATOM     41  C   UNL     1       9.470   3.672  23.545  0.00  0.00    +0.340 C 
ATOM     42  O   UNL     1       8.901   3.570  24.852  0.00  0.00    -0.330 OA
ATOM     43  C   UNL     1       8.466   4.706  25.610  0.00  0.00    +0.191 C 
ATOM     44  C   UNL     1       9.031   6.091  25.221  0.00  0.00    +0.178 C 
ATOM     45  C   UNL     1       9.395   6.175  23.737  0.00  0.00    +0.180 C 
ATOM     46  C   UNL     1      10.252   4.968  23.355  0.00  0.00    +0.214 C 
BRANCH  46  47
ATOM     47  O   UNL     1      11.435   4.935  24.185  0.00  0.00    -0.383 OA
ATOM     48  H   UNL     1      12.220   4.951  23.594  0.00  0.00    +0.210 HD
ENDBRANCH  46  47
BRANCH  45  49
ATOM     49  O   UNL     1       8.228   6.321  22.932  0.00  0.00    -0.386 OA
ATOM     50  H   UNL     1       7.693   7.079  23.235  0.00  0.00    +0.210 HD
ENDBRANCH  45  49
BRANCH  44  51
ATOM     51  O   UNL     1      10.187   6.358  26.043  0.00  0.00    -0.386 OA
ATOM     52  H   UNL     1       9.896   6.853  26.836  0.00  0.00    +0.210 HD
ENDBRANCH  44  51
BRANCH  43  53
ATOM     53  C   UNL     1       6.934   4.728  25.757  0.00  0.00    +0.266 C 
BRANCH  53  54
ATOM     54  O   UNL     1       6.531   4.480  27.124  0.00  0.00    -0.462 OA
BRANCH  54  55
ATOM     55  C   UNL     1       6.818   3.240  27.616  0.00  0.00    +0.318 C 
ATOM     56  O   UNL     1       7.473   3.020  28.628  0.00  0.00    -0.250 OA
BRANCH  55  57
ATOM     57  C   UNL     1       6.154   2.158  26.815  0.00  0.00    +0.240 C 
BRANCH  57  58
ATOM     58  C   UNL     1       7.000   0.935  26.660  0.00  0.00    +0.316 C 
ATOM     59  O   UNL     1       6.664  -0.201  26.919  0.00  0.00    -0.250 OA
BRANCH  58  60
ATOM     60  O   UNL     1       8.237   1.221  26.165  0.00  0.00    -0.480 OA
ATOM     61  H   UNL     1       8.875   1.562  26.825  0.00  0.00    +0.295 HD
ENDBRANCH  58  60
ENDBRANCH  57  58
ENDBRANCH  55  57
ENDBRANCH  54  55
ENDBRANCH  53  54
ENDBRANCH  43  53
ENDBRANCH  40  41
ENDBRANCH  11  40
TORSDOF 22
ENDMDL
MODEL 3
REMARK VINA RESULT:      -6.6      1.985      5.726
REMARK  Name = 
REMARK  22 active torsions:
REMARK  status: ('A' for Active; 'I' for Inactive)
REMARK    1  A    between atoms: C_3  and  O_60
REMARK    2  A    between atoms: C_4  and  O_59
REMARK    3  A    between atoms: C_6  and  C_7
REMARK    4  A    between atoms: C_8  and  O_36
REMARK    5  A    between atoms: C_12  and  O_35
REMARK    6  A    between atoms: C_14  and  O_18
REMARK    7  A    between atoms: O_18  and  C_19
REMARK    8  A    between atoms: C_21  and  O_34
REMARK    9  A    between atoms: C_23  and  O_33
REMARK   10  A    between atoms: C_25  and  O_32
REMARK   11  A    between atoms: C_27  and  C_30
REMARK   12  A    between atoms: C_30  and  O_31
REMARK   13  A    between atoms: O_36  and  C_37
REMARK   14  A    between atoms: C_39  and  O_58
REMARK   15  A    between atoms: C_41  and  O_57
REMARK   16  A    between atoms: C_43  and  O_56
REMARK   17  A    between atoms: C_45  and  C_48
REMARK   18  A    between atoms: C_48  and  O_49
REMARK   19  A    between atoms: O_49  and  C_50
REMARK   20  A    between atoms: C_50  and  C_52
REMARK   21  A    between atoms: C_52  and  C_53
REMARK   22  A    between atoms: C_53  and  O_55
REMARK                            x       y       z     vdW  Elec       q    Type
REMARK                         _______ _______ _______ _____ _____    ______ ____
ROOT
ATOM      1  C   UNL     1       4.964  -2.479  25.094  0.00  0.00    +0.181 A 
ATOM      2  O   UNL     1       5.706  -1.330  24.826  0.00  0.00    -0.451 OA
ATOM      3  C   UNL     1       5.614  -0.247  25.659  0.00  0.00    +0.147 A 
ATOM      4  C   UNL     1       4.658  -0.145  26.650  0.00  0.00    +0.109 A 
ATOM      5  C   UNL     1       4.548   1.054  27.367  0.00  0.00    +0.135 A 
ATOM      6  C   UNL     1       5.390   2.142  27.088  0.00  0.00    +0.092 A 
ATOM      7  C   UNL     1       6.366   2.036  26.095  0.00  0.00    +0.131 A 
ATOM      8  C   UNL     1       3.824  -1.327  26.917  0.00  0.00    +0.238 A 
ATOM      9  O   UNL     1       2.912  -1.256  27.735  0.00  0.00    -0.283 OA
ATOM     10  C   UNL     1       6.501   0.809  25.424  0.00  0.00    +0.093 A 
ATOM     11  C   UNL     1       4.145  -2.590  26.173  0.00  0.00    +0.214 A 
ENDROOT
BRANCH   1  13
ATOM     12  C   UNL     1       5.752  -3.224  22.809  0.00  0.00    +0.015 A 
ATOM     13  C   UNL     1       5.203  -3.546  24.070  0.00  0.00    +0.025 A 
ATOM     14  C   UNL     1       4.835  -4.885  24.280  0.00  0.00    +0.060 A 
ATOM     15  C   UNL     1       5.078  -5.856  23.315  0.00  0.00    +0.159 A 
ATOM     16  C   UNL     1       5.590  -5.512  22.075  0.00  0.00    +0.158 A 
ATOM     17  C   UNL     1       5.925  -4.194  21.808  0.00  0.00    +0.050 A 
BRANCH  16  18
ATOM     18  O   UNL     1       5.720  -6.501  21.143  0.00  0.00    -0.503 OA
ATOM     19  H   UNL     1       6.546  -6.347  20.653  0.00  0.00    +0.292 HD
ENDBRANCH  16  18
BRANCH  15  20
ATOM     20  O   UNL     1       4.789  -7.157  23.608  0.00  0.00    -0.503 OA
ATOM     21  H   UNL     1       4.058  -7.116  24.255  0.00  0.00    +0.292 HD
ENDBRANCH  15  20
ENDBRANCH   1  13
BRANCH   5  22
ATOM     22  O   UNL     1       3.610   1.239  28.350  0.00  0.00    -0.506 OA
ATOM     23  H   UNL     1       3.346   0.358  28.700  0.00  0.00    +0.292 HD
ENDBRANCH   5  22
BRANCH   7  24
ATOM     24  O   UNL     1       7.105   3.173  25.810  0.00  0.00    -0.461 OA
BRANCH  24  25
ATOM     25  C   UNL     1       6.524   4.053  24.827  0.00  0.00    +0.339 C 
ATOM     26  O   UNL     1       6.062   3.333  23.683  0.00  0.00    -0.331 OA
ATOM     27  C   UNL     1       6.869   3.344  22.495  0.00  0.00    +0.179 C 
ATOM     28  C   UNL     1       7.361   4.752  22.139  0.00  0.00    +0.177 C 
ATOM     29  C   UNL     1       8.184   5.342  23.284  0.00  0.00    +0.180 C 
ATOM     30  C   UNL     1       7.364   5.336  24.580  0.00  0.00    +0.214 C 
BRANCH  28  31
ATOM     31  O   UNL     1       6.211   5.588  21.902  0.00  0.00    -0.386 OA
ATOM     32  H   UNL     1       6.377   6.442  22.343  0.00  0.00    +0.210 HD
ENDBRANCH  28  31
BRANCH  29  33
ATOM     33  O   UNL     1       9.437   4.673  23.381  0.00  0.00    -0.386 OA
ATOM     34  H   UNL     1      10.124   5.186  22.919  0.00  0.00    +0.210 HD
ENDBRANCH  29  33
BRANCH  30  35
ATOM     35  O   UNL     1       6.444   6.456  24.488  0.00  0.00    -0.383 OA
ATOM     36  H   UNL     1       5.594   6.085  24.160  0.00  0.00    +0.210 HD
ENDBRANCH  30  35
BRANCH  27  37
ATOM     37  C   UNL     1       7.982   2.286  22.549  0.00  0.00    +0.190 C 
BRANCH  37  38
ATOM     38  O   UNL     1       8.894   2.470  21.466  0.00  0.00    -0.392 OA
ATOM     39  H   UNL     1       9.487   3.203  21.720  0.00  0.00    +0.210 HD
ENDBRANCH  37  38
ENDBRANCH  27  37
ENDBRANCH  24  25
ENDBRANCH   7  24
BRANCH  11  40
ATOM     40  O   UNL     1       3.536  -3.767  26.627  0.00  0.00    -0.453 OA
BRANCH  40  41
ATOM     41  C   UNL     1       3.903  -4.072  27.989  0.00  0.00    +0.340 C 
ATOM     42  O   UNL     1       5.318  -4.155  28.174  0.00  0.00    -0.330 OA
ATOM     43  C   UNL     1       6.041  -5.392  28.161  0.00  0.00    +0.191 C 
ATOM     44  C   UNL     1       5.246  -6.694  28.411  0.00  0.00    +0.178 C 
ATOM     45  C   UNL     1       3.788  -6.581  27.960  0.00  0.00    +0.180 C 
ATOM     46  C   UNL     1       3.178  -5.300  28.529  0.00  0.00    +0.214 C 
BRANCH  46  47
ATOM     47  O   UNL     1       3.282  -5.317  29.972  0.00  0.00    -0.383 OA
ATOM     48  H   UNL     1       3.896  -6.041  30.223  0.00  0.00    +0.210 HD
ENDBRANCH  46  47
BRANCH  45  49
ATOM     49  O   UNL     1       3.683  -6.679  26.542  0.00  0.00    -0.386 OA
ATOM     50  H   UNL     1       4.169  -7.457  26.213  0.00  0.00    +0.210 HD
ENDBRANCH  45  49
BRANCH  44  51
ATOM     51  O   UNL     1       5.319  -7.008  29.817  0.00  0.00    -0.386 OA
ATOM     52  H   UNL     1       6.246  -7.234  30.037  0.00  0.00    +0.210 HD
ENDBRANCH  44  51
BRANCH  43  53
ATOM     53  C   UNL     1       6.947  -5.498  26.920  0.00  0.00    +0.266 C 
BRANCH  53  54
ATOM     54  O   UNL     1       8.169  -4.744  27.094  0.00  0.00    -0.462 OA
BRANCH  54  55
ATOM     55  C   UNL     1       8.302  -3.632  26.314  0.00  0.00    +0.318 C 
ATOM     56  O   UNL     1       8.189  -2.478  26.710  0.00  0.00    -0.250 OA
BRANCH  55  57
ATOM     57  C   UNL     1       8.698  -3.985  24.909  0.00  0.00    +0.240 C 
BRANCH  57  58
ATOM     58  C   UNL     1       9.337  -2.851  24.174  0.00  0.00    +0.316 C 
ATOM     59  O   UNL     1      10.435  -2.864  23.660  0.00  0.00    -0.250 OA
BRANCH  58  60
ATOM     60  O   UNL     1       8.533  -1.751  24.119  0.00  0.00    -0.480 OA
ATOM     61  H   UNL     1       8.131  -1.580  23.243  0.00  0.00    +0.295 HD
ENDBRANCH  58  60
ENDBRANCH  57  58
ENDBRANCH  55  57
ENDBRANCH  54  55
ENDBRANCH  53  54
ENDBRANCH  43  53
ENDBRANCH  40  41
ENDBRANCH  11  40
TORSDOF 22
ENDMDL
MODEL 4
REMARK VINA RESULT:      -6.6      1.355      2.201
REMARK  Name = 
REMARK  22 active torsions:
REMARK  status: ('A' for Active; 'I' for Inactive)
REMARK    1  A    between atoms: C_3  and  O_60
REMARK    2  A    between atoms: C_4  and  O_59
REMARK    3  A    between atoms: C_6  and  C_7
REMARK    4  A    between atoms: C_8  and  O_36
REMARK    5  A    between atoms: C_12  and  O_35
REMARK    6  A    between atoms: C_14  and  O_18
REMARK    7  A    between atoms: O_18  and  C_19
REMARK    8  A    between atoms: C_21  and  O_34
REMARK    9  A    between atoms: C_23  and  O_33
REMARK   10  A    between atoms: C_25  and  O_32
REMARK   11  A    between atoms: C_27  and  C_30
REMARK   12  A    between atoms: C_30  and  O_31
REMARK   13  A    between atoms: O_36  and  C_37
REMARK   14  A    between atoms: C_39  and  O_58
REMARK   15  A    between atoms: C_41  and  O_57
REMARK   16  A    between atoms: C_43  and  O_56
REMARK   17  A    between atoms: C_45  and  C_48
REMARK   18  A    between atoms: C_48  and  O_49
REMARK   19  A    between atoms: O_49  and  C_50
REMARK   20  A    between atoms: C_50  and  C_52
REMARK   21  A    between atoms: C_52  and  C_53
REMARK   22  A    between atoms: C_53  and  O_55
REMARK                            x       y       z     vdW  Elec       q    Type
REMARK                         _______ _______ _______ _____ _____    ______ ____
ROOT
ATOM      1  C   UNL     1       6.689  -2.082  25.120  0.00  0.00    +0.181 A 
ATOM      2  O   UNL     1       6.764  -0.690  25.079  0.00  0.00    -0.451 OA
ATOM      3  C   UNL     1       7.353  -0.069  24.010  0.00  0.00    +0.147 A 
ATOM      4  C   UNL     1       8.072  -0.752  23.050  0.00  0.00    +0.109 A 
ATOM      5  C   UNL     1       8.755  -0.024  22.066  0.00  0.00    +0.135 A 
ATOM      6  C   UNL     1       8.715   1.379  22.048  0.00  0.00    +0.092 A 
ATOM      7  C   UNL     1       7.976   2.072  23.010  0.00  0.00    +0.131 A 
ATOM      8  C   UNL     1       8.054  -2.223  23.103  0.00  0.00    +0.238 A 
ATOM      9  O   UNL     1       8.741  -2.867  22.318  0.00  0.00    -0.283 OA
ATOM     10  C   UNL     1       7.253   1.325  23.956  0.00  0.00    +0.093 A 
ATOM     11  C   UNL     1       7.166  -2.873  24.124  0.00  0.00    +0.214 A 
ENDROOT
BRANCH   1  13
ATOM     12  C   UNL     1       4.987  -1.806  26.970  0.00  0.00    +0.015 A 
ATOM     13  C   UNL     1       6.013  -2.565  26.366  0.00  0.00    +0.025 A 
ATOM     14  C   UNL     1       6.405  -3.741  27.026  0.00  0.00    +0.060 A 
ATOM     15  C   UNL     1       5.754  -4.170  28.177  0.00  0.00    +0.159 A 
ATOM     16  C   UNL     1       4.770  -3.394  28.767  0.00  0.00    +0.158 A 
ATOM     17  C   UNL     1       4.383  -2.203  28.174  0.00  0.00    +0.050 A 
BRANCH  16  18
ATOM     18  O   UNL     1       4.234  -3.831  29.944  0.00  0.00    -0.503 OA
ATOM     19  H   UNL     1       4.469  -3.191  30.638  0.00  0.00    +0.292 HD
ENDBRANCH  16  18
BRANCH  15  20
ATOM     20  O   UNL     1       6.111  -5.369  28.724  0.00  0.00    -0.503 OA
ATOM     21  H   UNL     1       5.867  -5.300  29.667  0.00  0.00    +0.292 HD
ENDBRANCH  15  20
ENDBRANCH   1  13
BRANCH   5  22
ATOM     22  O   UNL     1       9.508  -0.631  21.094  0.00  0.00    -0.506 OA
ATOM     23  H   UNL     1       9.339  -1.599  21.127  0.00  0.00    +0.292 HD
ENDBRANCH   5  22
BRANCH   7  24
ATOM     24  O   UNL     1       8.049   3.454  22.989  0.00  0.00    -0.461 OA
BRANCH  24  25
ATOM     25  C   UNL     1       7.457   4.118  24.125  0.00  0.00    +0.339 C 
ATOM     26  O   UNL     1       6.437   5.035  23.727  0.00  0.00    -0.331 OA
ATOM     27  C   UNL     1       6.751   6.437  23.695  0.00  0.00    +0.179 C 
ATOM     28  C   UNL     1       7.489   6.896  24.958  0.00  0.00    +0.177 C 
ATOM     29  C   UNL     1       8.792   6.117  25.137  0.00  0.00    +0.180 C 
ATOM     30  C   UNL     1       8.505   4.610  25.162  0.00  0.00    +0.214 C 
BRANCH  28  31
ATOM     31  O   UNL     1       6.634   6.658  26.094  0.00  0.00    -0.386 OA
ATOM     32  H   UNL     1       5.999   7.398  26.140  0.00  0.00    +0.210 HD
ENDBRANCH  28  31
BRANCH  29  33
ATOM     33  O   UNL     1       9.739   6.516  24.154  0.00  0.00    -0.386 OA
ATOM     34  H   UNL     1       9.922   5.776  23.548  0.00  0.00    +0.210 HD
ENDBRANCH  29  33
BRANCH  30  35
ATOM     35  O   UNL     1       7.990   4.312  26.486  0.00  0.00    -0.383 OA
ATOM     36  H   UNL     1       7.073   4.668  26.510  0.00  0.00    +0.210 HD
ENDBRANCH  30  35
BRANCH  27  37
ATOM     37  C   UNL     1       7.444   6.839  22.384  0.00  0.00    +0.190 C 
BRANCH  37  38
ATOM     38  O   UNL     1       7.378   5.768  21.440  0.00  0.00    -0.392 OA
ATOM     39  H   UNL     1       7.517   6.164  20.559  0.00  0.00    +0.210 HD
ENDBRANCH  37  38
ENDBRANCH  27  37
ENDBRANCH  24  25
ENDBRANCH   7  24
BRANCH  11  40
ATOM     40  O   UNL     1       6.945  -4.250  23.987  0.00  0.00    -0.453 OA
BRANCH  40  41
ATOM     41  C   UNL     1       6.071  -4.546  22.877  0.00  0.00    +0.340 C 
ATOM     42  O   UNL     1       4.822  -3.855  22.958  0.00  0.00    -0.330 OA
ATOM     43  C   UNL     1       3.630  -4.446  23.492  0.00  0.00    +0.191 C 
ATOM     44  C   UNL     1       3.558  -5.988  23.559  0.00  0.00    +0.178 C 
ATOM     45  C   UNL     1       4.940  -6.629  23.709  0.00  0.00    +0.180 C 
ATOM     46  C   UNL     1       5.888  -6.045  22.661  0.00  0.00    +0.214 C 
BRANCH  46  47
ATOM     47  O   UNL     1       5.344  -6.272  21.340  0.00  0.00    -0.383 OA
ATOM     48  H   UNL     1       5.755  -7.088  20.980  0.00  0.00    +0.210 HD
ENDBRANCH  46  47
BRANCH  45  49
ATOM     49  O   UNL     1       5.421  -6.500  25.045  0.00  0.00    -0.386 OA
ATOM     50  H   UNL     1       4.747  -6.084  25.614  0.00  0.00    +0.210 HD
ENDBRANCH  45  49
BRANCH  44  51
ATOM     51  O   UNL     1       2.905  -6.466  22.364  0.00  0.00    -0.386 OA
ATOM     52  H   UNL     1       3.188  -5.907  21.611  0.00  0.00    +0.210 HD
ENDBRANCH  44  51
BRANCH  43  53
ATOM     53  C   UNL     1       3.229  -3.790  24.826  0.00  0.00    +0.266 C 
BRANCH  53  54
ATOM     54  O   UNL     1       3.118  -4.771  25.883  0.00  0.00    -0.462 OA
BRANCH  54  55
ATOM     55  C   UNL     1       2.032  -4.650  26.700  0.00  0.00    +0.318 C 
ATOM     56  O   UNL     1       1.345  -3.642  26.812  0.00  0.00    -0.250 OA
BRANCH  55  57
ATOM     57  C   UNL     1       1.712  -5.943  27.393  0.00  0.00    +0.240 C 
BRANCH  57  58
ATOM     58  C   UNL     1       2.927  -6.682  27.853  0.00  0.00    +0.316 C 
ATOM     59  O   UNL     1       3.410  -6.639  28.965  0.00  0.00    -0.250 OA
BRANCH  58  60
ATOM     60  O   UNL     1       3.464  -7.458  26.869  0.00  0.00    -0.480 OA
ATOM     61  H   UNL     1       4.424  -7.330  26.722  0.00  0.00    +0.295 HD
ENDBRANCH  58  60
ENDBRANCH  57  58
ENDBRANCH  55  57
ENDBRANCH  54  55
ENDBRANCH  53  54
ENDBRANCH  43  53
ENDBRANCH  40  41
ENDBRANCH  11  40
TORSDOF 22
ENDMDL
MODEL 5
REMARK VINA RESULT:      -6.4      1.583      2.256
REMARK  Name = 
REMARK  22 active torsions:
REMARK  status: ('A' for Active; 'I' for Inactive)
REMARK    1  A    between atoms: C_3  and  O_60
REMARK    2  A    between atoms: C_4  and  O_59
REMARK    3  A    between atoms: C_6  and  C_7
REMARK    4  A    between atoms: C_8  and  O_36
REMARK    5  A    between atoms: C_12  and  O_35
REMARK    6  A    between atoms: C_14  and  O_18
REMARK    7  A    between atoms: O_18  and  C_19
REMARK    8  A    between atoms: C_21  and  O_34
REMARK    9  A    between atoms: C_23  and  O_33
REMARK   10  A    between atoms: C_25  and  O_32
REMARK   11  A    between atoms: C_27  and  C_30
REMARK   12  A    between atoms: C_30  and  O_31
REMARK   13  A    between atoms: O_36  and  C_37
REMARK   14  A    between atoms: C_39  and  O_58
REMARK   15  A    between atoms: C_41  and  O_57
REMARK   16  A    between atoms: C_43  and  O_56
REMARK   17  A    between atoms: C_45  and  C_48
REMARK   18  A    between atoms: C_48  and  O_49
REMARK   19  A    between atoms: O_49  and  C_50
REMARK   20  A    between atoms: C_50  and  C_52
REMARK   21  A    between atoms: C_52  and  C_53
REMARK   22  A    between atoms: C_53  and  O_55
REMARK                            x       y       z     vdW  Elec       q    Type
REMARK                         _______ _______ _______ _____ _____    ______ ____
ROOT
ATOM      1  C   UNL     1       6.669  -1.393  25.689  0.00  0.00    +0.181 A 
ATOM      2  O   UNL     1       6.908  -0.022  25.773  0.00  0.00    -0.451 OA
ATOM      3  C   UNL     1       7.913   0.543  25.033  0.00  0.00    +0.147 A 
ATOM      4  C   UNL     1       8.853  -0.205  24.353  0.00  0.00    +0.109 A 
ATOM      5  C   UNL     1       9.925   0.451  23.733  0.00  0.00    +0.135 A 
ATOM      6  C   UNL     1      10.051   1.847  23.797  0.00  0.00    +0.092 A 
ATOM      7  C   UNL     1       9.093   2.607  24.473  0.00  0.00    +0.131 A 
ATOM      8  C   UNL     1       8.653  -1.662  24.296  0.00  0.00    +0.238 A 
ATOM      9  O   UNL     1       9.504  -2.372  23.769  0.00  0.00    -0.283 OA
ATOM     10  C   UNL     1       7.996   1.939  25.041  0.00  0.00    +0.093 A 
ATOM     11  C   UNL     1       7.387  -2.216  24.881  0.00  0.00    +0.214 A 
ENDROOT
BRANCH   1  13
ATOM     12  C   UNL     1       4.317  -1.097  26.570  0.00  0.00    +0.015 A 
ATOM     13  C   UNL     1       5.534  -1.813  26.572  0.00  0.00    +0.025 A 
ATOM     14  C   UNL     1       5.644  -2.877  27.482  0.00  0.00    +0.060 A 
ATOM     15  C   UNL     1       4.571  -3.251  28.283  0.00  0.00    +0.159 A 
ATOM     16  C   UNL     1       3.397  -2.516  28.285  0.00  0.00    +0.158 A 
ATOM     17  C   UNL     1       3.261  -1.430  27.434  0.00  0.00    +0.050 A 
BRANCH  16  18
ATOM     18  O   UNL     1       2.416  -2.884  29.160  0.00  0.00    -0.503 OA
ATOM     19  H   UNL     1       1.763  -2.165  29.201  0.00  0.00    +0.292 HD
ENDBRANCH  16  18
BRANCH  15  20
ATOM     20  O   UNL     1       4.700  -4.351  29.080  0.00  0.00    -0.503 OA
ATOM     21  H   UNL     1       5.637  -4.616  28.999  0.00  0.00    +0.292 HD
ENDBRANCH  15  20
ENDBRANCH   1  13
BRANCH   5  22
ATOM     22  O   UNL     1      10.909  -0.226  23.059  0.00  0.00    -0.506 OA
ATOM     23  H   UNL     1      11.347   0.398  22.438  0.00  0.00    +0.292 HD
ENDBRANCH   5  22
BRANCH   7  24
ATOM     24  O   UNL     1       9.322   3.969  24.574  0.00  0.00    -0.461 OA
BRANCH  24  25
ATOM     25  C   UNL     1       8.893   4.750  23.439  0.00  0.00    +0.339 C 
ATOM     26  O   UNL     1       9.271   6.121  23.570  0.00  0.00    -0.331 OA
ATOM     27  C   UNL     1       8.273   7.071  23.976  0.00  0.00    +0.179 C 
ATOM     28  C   UNL     1       6.959   6.899  23.206  0.00  0.00    +0.177 C 
ATOM     29  C   UNL     1       6.394   5.493  23.409  0.00  0.00    +0.180 C 
ATOM     30  C   UNL     1       7.434   4.443  23.000  0.00  0.00    +0.214 C 
BRANCH  28  31
ATOM     31  O   UNL     1       7.224   7.106  21.805  0.00  0.00    -0.386 OA
ATOM     32  H   UNL     1       6.471   6.732  21.308  0.00  0.00    +0.210 HD
ENDBRANCH  28  31
BRANCH  29  33
ATOM     33  O   UNL     1       5.907   5.348  24.738  0.00  0.00    -0.386 OA
ATOM     34  H   UNL     1       5.079   5.848  24.845  0.00  0.00    +0.210 HD
ENDBRANCH  29  33
BRANCH  30  35
ATOM     35  O   UNL     1       7.413   4.386  21.549  0.00  0.00    -0.383 OA
ATOM     36  H   UNL     1       7.378   3.432  21.314  0.00  0.00    +0.210 HD
ENDBRANCH  30  35
BRANCH  27  37
ATOM     37  C   UNL     1       8.105   7.107  25.503  0.00  0.00    +0.190 C 
BRANCH  37  38
ATOM     38  O   UNL     1       9.266   6.573  26.142  0.00  0.00    -0.392 OA
ATOM     39  H   UNL     1       9.585   5.843  25.578  0.00  0.00    +0.210 HD
ENDBRANCH  37  38
ENDBRANCH  27  37
ENDBRANCH  24  25
ENDBRANCH   7  24
BRANCH  11  40
ATOM     40  O   UNL     1       7.079  -3.550  24.580  0.00  0.00    -0.453 OA
BRANCH  40  41
ATOM     41  C   UNL     1       6.163  -3.653  23.470  0.00  0.00    +0.340 C 
ATOM     42  O   UNL     1       5.062  -4.523  23.741  0.00  0.00    -0.330 OA
ATOM     43  C   UNL     1       5.028  -5.897  23.334  0.00  0.00    +0.191 C 
ATOM     44  C   UNL     1       5.974  -6.334  22.194  0.00  0.00    +0.178 C 
ATOM     45  C   UNL     1       7.245  -5.484  22.133  0.00  0.00    +0.180 C 
ATOM     46  C   UNL     1       6.867  -4.003  22.162  0.00  0.00    +0.214 C 
BRANCH  46  47
ATOM     47  O   UNL     1       5.985  -3.709  21.054  0.00  0.00    -0.383 OA
ATOM     48  H   UNL     1       6.537  -3.405  20.300  0.00  0.00    +0.210 HD
ENDBRANCH  46  47
BRANCH  45  49
ATOM     49  O   UNL     1       8.159  -5.857  23.161  0.00  0.00    -0.386 OA
ATOM     50  H   UNL     1       7.935  -6.736  23.519  0.00  0.00    +0.210 HD
ENDBRANCH  45  49
BRANCH  44  51
ATOM     51  O   UNL     1       5.251  -6.256  20.947  0.00  0.00    -0.386 OA
ATOM     52  H   UNL     1       5.309  -7.125  20.500  0.00  0.00    +0.210 HD
ENDBRANCH  44  51
BRANCH  43  53
ATOM     53  C   UNL     1       5.109  -6.842  24.547  0.00  0.00    +0.266 C 
BRANCH  53  54
ATOM     54  O   UNL     1       5.179  -6.102  25.788  0.00  0.00    -0.462 OA
BRANCH  54  55
ATOM     55  C   UNL     1       4.726  -6.751  26.899  0.00  0.00    +0.318 C 
ATOM     56  O   UNL     1       5.433  -7.153  27.815  0.00  0.00    -0.250 OA
BRANCH  55  57
ATOM     57  C   UNL     1       3.227  -6.841  26.916  0.00  0.00    +0.240 C 
BRANCH  57  58
ATOM     58  C   UNL     1       2.646  -6.743  28.290  0.00  0.00    +0.316 C 
ATOM     59  O   UNL     1       2.039  -5.796  28.741  0.00  0.00    -0.250 OA
BRANCH  58  60
ATOM     60  O   UNL     1       2.857  -7.873  29.022  0.00  0.00    -0.480 OA
ATOM     61  H   UNL     1       2.058  -8.414  29.184  0.00  0.00    +0.295 HD
ENDBRANCH  58  60
ENDBRANCH  57  58
ENDBRANCH  55  57
ENDBRANCH  54  55
ENDBRANCH  53  54
ENDBRANCH  43  53
ENDBRANCH  40  41
ENDBRANCH  11  40
TORSDOF 22
ENDMDL
MODEL 6
REMARK VINA RESULT:      -6.4      2.184      9.220
REMARK  Name = 
REMARK  22 active torsions:
REMARK  status: ('A' for Active; 'I' for Inactive)
REMARK    1  A    between atoms: C_3  and  O_60
REMARK    2  A    between atoms: C_4  and  O_59
REMARK    3  A    between atoms: C_6  and  C_7
REMARK    4  A    between atoms: C_8  and  O_36
REMARK    5  A    between atoms: C_12  and  O_35
REMARK    6  A    between atoms: C_14  and  O_18
REMARK    7  A    between atoms: O_18  and  C_19
REMARK    8  A    between atoms: C_21  and  O_34
REMARK    9  A    between atoms: C_23  and  O_33
REMARK   10  A    between atoms: C_25  and  O_32
REMARK   11  A    between atoms: C_27  and  C_30
REMARK   12  A    between atoms: C_30  and  O_31
REMARK   13  A    between atoms: O_36  and  C_37
REMARK   14  A    between atoms: C_39  and  O_58
REMARK   15  A    between atoms: C_41  and  O_57
REMARK   16  A    between atoms: C_43  and  O_56
REMARK   17  A    between atoms: C_45  and  C_48
REMARK   18  A    between atoms: C_48  and  O_49
REMARK   19  A    between atoms: O_49  and  C_50
REMARK   20  A    between atoms: C_50  and  C_52
REMARK   21  A    between atoms: C_52  and  C_53
REMARK   22  A    between atoms: C_53  and  O_55
REMARK                            x       y       z     vdW  Elec       q    Type
REMARK                         _______ _______ _______ _____ _____    ______ ____
ROOT
ATOM      1  C   UNL     1       5.657   0.623  25.359  0.00  0.00    +0.181 A 
ATOM      2  O   UNL     1       4.699  -0.376  25.528  0.00  0.00    -0.451 OA
ATOM      3  C   UNL     1       5.086  -1.641  25.883  0.00  0.00    +0.147 A 
ATOM      4  C   UNL     1       6.405  -2.047  25.885  0.00  0.00    +0.109 A 
ATOM      5  C   UNL     1       6.701  -3.394  26.131  0.00  0.00    +0.135 A 
ATOM      6  C   UNL     1       5.679  -4.326  26.372  0.00  0.00    +0.092 A 
ATOM      7  C   UNL     1       4.344  -3.914  26.384  0.00  0.00    +0.131 A 
ATOM      8  C   UNL     1       7.434  -1.020  25.656  0.00  0.00    +0.238 A 
ATOM      9  O   UNL     1       8.613  -1.350  25.572  0.00  0.00    -0.283 OA
ATOM     10  C   UNL     1       4.068  -2.550  26.191  0.00  0.00    +0.093 A 
ATOM     11  C   UNL     1       6.985   0.408  25.549  0.00  0.00    +0.214 A 
ENDROOT
BRANCH   1  13
ATOM     12  C   UNL     1       4.576   2.830  25.958  0.00  0.00    +0.015 A 
ATOM     13  C   UNL     1       5.034   1.929  24.971  0.00  0.00    +0.025 A 
ATOM     14  C   UNL     1       4.812   2.287  23.632  0.00  0.00    +0.060 A 
ATOM     15  C   UNL     1       4.240   3.510  23.300  0.00  0.00    +0.159 A 
ATOM     16  C   UNL     1       3.772   4.364  24.284  0.00  0.00    +0.158 A 
ATOM     17  C   UNL     1       3.929   4.030  25.621  0.00  0.00    +0.050 A 
BRANCH  16  18
ATOM     18  O   UNL     1       3.140   5.508  23.889  0.00  0.00    -0.503 OA
ATOM     19  H   UNL     1       2.202   5.298  23.739  0.00  0.00    +0.292 HD
ENDBRANCH  16  18
BRANCH  15  20
ATOM     20  O   UNL     1       4.135   3.849  21.982  0.00  0.00    -0.503 OA
ATOM     21  H   UNL     1       4.943   3.494  21.564  0.00  0.00    +0.292 HD
ENDBRANCH  15  20
ENDBRANCH   1  13
BRANCH   5  22
ATOM     22  O   UNL     1       7.985  -3.877  26.127  0.00  0.00    -0.506 OA
ATOM     23  H   UNL     1       8.253  -4.045  25.196  0.00  0.00    +0.292 HD
ENDBRANCH   5  22
BRANCH   7  24
ATOM     24  O   UNL     1       3.380  -4.896  26.540  0.00  0.00    -0.461 OA
BRANCH  24  25
ATOM     25  C   UNL     1       2.511  -5.090  25.406  0.00  0.00    +0.339 C 
ATOM     26  O   UNL     1       1.191  -5.458  25.811  0.00  0.00    -0.331 OA
ATOM     27  C   UNL     1       0.806  -6.839  25.718  0.00  0.00    +0.179 C 
ATOM     28  C   UNL     1       1.199  -7.462  24.373  0.00  0.00    +0.177 C 
ATOM     29  C   UNL     1       2.710  -7.370  24.155  0.00  0.00    +0.180 C 
ATOM     30  C   UNL     1       3.168  -5.910  24.262  0.00  0.00    +0.214 C 
BRANCH  28  31
ATOM     31  O   UNL     1       0.524  -6.741  23.324  0.00  0.00    -0.386 OA
ATOM     32  H   UNL     1       0.168  -5.922  23.717  0.00  0.00    +0.210 HD
ENDBRANCH  28  31
BRANCH  29  33
ATOM     33  O   UNL     1       3.386  -8.261  25.035  0.00  0.00    -0.386 OA
ATOM     34  H   UNL     1       2.851  -8.409  25.834  0.00  0.00    +0.210 HD
ENDBRANCH  29  33
BRANCH  30  35
ATOM     35  O   UNL     1       2.815  -5.276  23.004  0.00  0.00    -0.383 OA
ATOM     36  H   UNL     1       3.171  -4.360  23.051  0.00  0.00    +0.210 HD
ENDBRANCH  30  35
BRANCH  27  37
ATOM     37  C   UNL     1       1.267  -7.646  26.941  0.00  0.00    +0.190 C 
BRANCH  37  38
ATOM     38  O   UNL     1       1.116  -9.045  26.698  0.00  0.00    -0.392 OA
ATOM     39  H   UNL     1       1.722  -9.269  25.966  0.00  0.00    +0.210 HD
ENDBRANCH  37  38
ENDBRANCH  27  37
ENDBRANCH  24  25
ENDBRANCH   7  24
BRANCH  11  40
ATOM     40  O   UNL     1       7.979   1.392  25.607  0.00  0.00    -0.453 OA
BRANCH  40  41
ATOM     41  C   UNL     1       8.069   2.140  24.377  0.00  0.00    +0.340 C 
ATOM     42  O   UNL     1       7.829   1.333  23.221  0.00  0.00    -0.330 OA
ATOM     43  C   UNL     1       8.879   0.752  22.438  0.00  0.00    +0.191 C 
ATOM     44  C   UNL     1      10.291   1.369  22.554  0.00  0.00    +0.178 C 
ATOM     45  C   UNL     1      10.536   2.008  23.922  0.00  0.00    +0.180 C 
ATOM     46  C   UNL     1       9.368   2.933  24.267  0.00  0.00    +0.214 C 
BRANCH  46  47
ATOM     47  O   UNL     1       9.227   3.936  23.236  0.00  0.00    -0.383 OA
ATOM     48  H   UNL     1       9.328   3.492  22.365  0.00  0.00    +0.210 HD
ENDBRANCH  46  47
BRANCH  45  49
ATOM     49  O   UNL     1      10.787   1.015  24.913  0.00  0.00    -0.386 OA
ATOM     50  H   UNL     1      11.744   0.855  25.006  0.00  0.00    +0.210 HD
ENDBRANCH  45  49
BRANCH  44  51
ATOM     51  O   UNL     1      10.450   2.344  21.502  0.00  0.00    -0.386 OA
ATOM     52  H   UNL     1      10.820   1.894  20.715  0.00  0.00    +0.210 HD
ENDBRANCH  44  51
BRANCH  43  53
ATOM     53  C   UNL     1       8.904  -0.781  22.584  0.00  0.00    +0.266 C 
BRANCH  53  54
ATOM     54  O   UNL     1       7.620  -1.362  22.262  0.00  0.00    -0.462 OA
BRANCH  54  55
ATOM     55  C   UNL     1       7.495  -2.702  22.490  0.00  0.00    +0.318 C 
ATOM     56  O   UNL     1       8.343  -3.406  23.024  0.00  0.00    -0.250 OA
BRANCH  55  57
ATOM     57  C   UNL     1       6.139  -3.209  22.089  0.00  0.00    +0.240 C 
BRANCH  57  58
ATOM     58  C   UNL     1       6.110  -4.682  21.840  0.00  0.00    +0.316 C 
ATOM     59  O   UNL     1       5.905  -5.221  20.774  0.00  0.00    -0.250 OA
BRANCH  58  60
ATOM     60  O   UNL     1       6.362  -5.403  22.970  0.00  0.00    -0.480 OA
ATOM     61  H   UNL     1       6.392  -4.877  23.795  0.00  0.00    +0.295 HD
ENDBRANCH  58  60
ENDBRANCH  57  58
ENDBRANCH  55  57
ENDBRANCH  54  55
ENDBRANCH  53  54
ENDBRANCH  43  53
ENDBRANCH  40  41
ENDBRANCH  11  40
TORSDOF 22
ENDMDL
MODEL 7
REMARK VINA RESULT:      -6.3      2.252      9.627
REMARK  Name = 
REMARK  22 active torsions:
REMARK  status: ('A' for Active; 'I' for Inactive)
REMARK    1  A    between atoms: C_3  and  O_60
REMARK    2  A    between atoms: C_4  and  O_59
REMARK    3  A    between atoms: C_6  and  C_7
REMARK    4  A    between atoms: C_8  and  O_36
REMARK    5  A    between atoms: C_12  and  O_35
REMARK    6  A    between atoms: C_14  and  O_18
REMARK    7  A    between atoms: O_18  and  C_19
REMARK    8  A    between atoms: C_21  and  O_34
REMARK    9  A    between atoms: C_23  and  O_33
REMARK   10  A    between atoms: C_25  and  O_32
REMARK   11  A    between atoms: C_27  and  C_30
REMARK   12  A    between atoms: C_30  and  O_31
REMARK   13  A    between atoms: O_36  and  C_37
REMARK   14  A    between atoms: C_39  and  O_58
REMARK   15  A    between atoms: C_41  and  O_57
REMARK   16  A    between atoms: C_43  and  O_56
REMARK   17  A    between atoms: C_45  and  C_48
REMARK   18  A    between atoms: C_48  and  O_49
REMARK   19  A    between atoms: O_49  and  C_50
REMARK   20  A    between atoms: C_50  and  C_52
REMARK   21  A    between atoms: C_52  and  C_53
REMARK   22  A    between atoms: C_53  and  O_55
REMARK                            x       y       z     vdW  Elec       q    Type
REMARK                         _______ _______ _______ _____ _____    ______ ____
ROOT
ATOM      1  C   UNL     1       6.817   1.927  23.115  0.00  0.00    +0.181 A 
ATOM      2  O   UNL     1       6.372   0.660  23.490  0.00  0.00    -0.451 OA
ATOM      3  C   UNL     1       7.225  -0.409  23.430  0.00  0.00    +0.147 A 
ATOM      4  C   UNL     1       8.461  -0.348  22.817  0.00  0.00    +0.109 A 
ATOM      5  C   UNL     1       9.212  -1.523  22.682  0.00  0.00    +0.135 A 
ATOM      6  C   UNL     1       8.724  -2.750  23.158  0.00  0.00    +0.092 A 
ATOM      7  C   UNL     1       7.480  -2.812  23.791  0.00  0.00    +0.131 A 
ATOM      8  C   UNL     1       8.931   0.971  22.363  0.00  0.00    +0.238 A 
ATOM      9  O   UNL     1       9.987   1.059  21.745  0.00  0.00    -0.283 OA
ATOM     10  C   UNL     1       6.765  -1.616  23.967  0.00  0.00    +0.093 A 
ATOM     11  C   UNL     1       8.089   2.166  22.700  0.00  0.00    +0.214 A 
ENDROOT
BRANCH   1  13
ATOM     12  C   UNL     1       4.600   2.708  24.049  0.00  0.00    +0.015 A 
ATOM     13  C   UNL     1       5.738   2.957  23.251  0.00  0.00    +0.025 A 
ATOM     14  C   UNL     1       5.767   4.173  22.548  0.00  0.00    +0.060 A 
ATOM     15  C   UNL     1       4.756   5.114  22.699  0.00  0.00    +0.159 A 
ATOM     16  C   UNL     1       3.636   4.836  23.464  0.00  0.00    +0.158 A 
ATOM     17  C   UNL     1       3.544   3.629  24.140  0.00  0.00    +0.050 A 
BRANCH  16  18
ATOM     18  O   UNL     1       2.639   5.768  23.499  0.00  0.00    -0.503 OA
ATOM     19  H   UNL     1       2.360   5.946  22.584  0.00  0.00    +0.292 HD
ENDBRANCH  16  18
BRANCH  15  20
ATOM     20  O   UNL     1       4.881   6.318  22.068  0.00  0.00    -0.503 OA
ATOM     21  H   UNL     1       5.842   6.493  22.041  0.00  0.00    +0.292 HD
ENDBRANCH  15  20
ENDBRANCH   1  13
BRANCH   5  22
ATOM     22  O   UNL     1      10.436  -1.545  22.065  0.00  0.00    -0.506 OA
ATOM     23  H   UNL     1      10.746  -0.619  21.951  0.00  0.00    +0.292 HD
ENDBRANCH   5  22
BRANCH   7  24
ATOM     24  O   UNL     1       7.020  -4.065  24.159  0.00  0.00    -0.461 OA
BRANCH  24  25
ATOM     25  C   UNL     1       6.061  -4.656  23.259  0.00  0.00    +0.339 C 
ATOM     26  O   UNL     1       4.826  -3.937  23.258  0.00  0.00    -0.331 OA
ATOM     27  C   UNL     1       3.720  -4.474  24.001  0.00  0.00    +0.179 C 
ATOM     28  C   UNL     1       3.522  -5.973  23.748  0.00  0.00    +0.177 C 
ATOM     29  C   UNL     1       4.780  -6.756  24.127  0.00  0.00    +0.180 C 
ATOM     30  C   UNL     1       5.992  -6.205  23.365  0.00  0.00    +0.214 C 
BRANCH  28  31
ATOM     31  O   UNL     1       3.250  -6.164  22.346  0.00  0.00    -0.386 OA
ATOM     32  H   UNL     1       3.662  -5.422  21.865  0.00  0.00    +0.210 HD
ENDBRANCH  28  31
BRANCH  29  33
ATOM     33  O   UNL     1       4.936  -6.775  25.541  0.00  0.00    -0.386 OA
ATOM     34  H   UNL     1       4.116  -7.087  25.962  0.00  0.00    +0.210 HD
ENDBRANCH  29  33
BRANCH  30  35
ATOM     35  O   UNL     1       5.907  -6.737  22.017  0.00  0.00    -0.383 OA
ATOM     36  H   UNL     1       5.150  -6.277  21.589  0.00  0.00    +0.210 HD
ENDBRANCH  30  35
BRANCH  27  37
ATOM     37  C   UNL     1       3.791  -4.093  25.488  0.00  0.00    +0.190 C 
BRANCH  37  38
ATOM     38  O   UNL     1       2.789  -4.793  26.227  0.00  0.00    -0.392 OA
ATOM     39  H   UNL     1       2.700  -5.672  25.814  0.00  0.00    +0.210 HD
ENDBRANCH  37  38
ENDBRANCH  27  37
ENDBRANCH  24  25
ENDBRANCH   7  24
BRANCH  11  40
ATOM     40  O   UNL     1       8.671   3.427  22.512  0.00  0.00    -0.453 OA
BRANCH  40  41
ATOM     41  C   UNL     1       9.639   3.730  23.537  0.00  0.00    +0.340 C 
ATOM     42  O   UNL     1       9.057   3.809  24.840  0.00  0.00    -0.330 OA
ATOM     43  C   UNL     1       8.667   5.046  25.452  0.00  0.00    +0.191 C 
ATOM     44  C   UNL     1       9.294   6.349  24.908  0.00  0.00    +0.178 C 
ATOM     45  C   UNL     1       9.672   6.240  23.429  0.00  0.00    +0.180 C 
ATOM     46  C   UNL     1      10.478   4.960  23.204  0.00  0.00    +0.214 C 
BRANCH  46  47
ATOM     47  O   UNL     1      11.653   4.976  24.047  0.00  0.00    -0.383 OA
ATOM     48  H   UNL     1      11.420   5.437  24.883  0.00  0.00    +0.210 HD
ENDBRANCH  46  47
BRANCH  45  49
ATOM     49  O   UNL     1       8.518   6.338  22.598  0.00  0.00    -0.386 OA
ATOM     50  H   UNL     1       8.239   5.455  22.292  0.00  0.00    +0.210 HD
ENDBRANCH  45  49
BRANCH  44  51
ATOM     51  O   UNL     1      10.455   6.663  25.706  0.00  0.00    -0.386 OA
ATOM     52  H   UNL     1      10.156   7.112  26.524  0.00  0.00    +0.210 HD
ENDBRANCH  44  51
BRANCH  43  53
ATOM     53  C   UNL     1       7.136   5.149  25.576  0.00  0.00    +0.266 C 
BRANCH  53  54
ATOM     54  O   UNL     1       6.723   5.231  26.960  0.00  0.00    -0.462 OA
BRANCH  54  55
ATOM     55  C   UNL     1       6.868   4.091  27.696  0.00  0.00    +0.318 C 
ATOM     56  O   UNL     1       7.421   4.024  28.788  0.00  0.00    -0.250 OA
BRANCH  55  57
ATOM     57  C   UNL     1       6.183   2.922  27.049  0.00  0.00    +0.240 C 
BRANCH  57  58
ATOM     58  C   UNL     1       6.960   1.650  27.155  0.00  0.00    +0.316 C 
ATOM     59  O   UNL     1       6.765   0.761  27.956  0.00  0.00    -0.250 OA
BRANCH  58  60
ATOM     60  O   UNL     1       7.946   1.567  26.217  0.00  0.00    -0.480 OA
ATOM     61  H   UNL     1       7.874   2.214  25.487  0.00  0.00    +0.295 HD
ENDBRANCH  58  60
ENDBRANCH  57  58
ENDBRANCH  55  57
ENDBRANCH  54  55
ENDBRANCH  53  54
ENDBRANCH  43  53
ENDBRANCH  40  41
ENDBRANCH  11  40
TORSDOF 22
ENDMDL
MODEL 8
REMARK VINA RESULT:      -6.3      2.097      3.867
REMARK  Name = 
REMARK  22 active torsions:
REMARK  status: ('A' for Active; 'I' for Inactive)
REMARK    1  A    between atoms: C_3  and  O_60
REMARK    2  A    between atoms: C_4  and  O_59
REMARK    3  A    between atoms: C_6  and  C_7
REMARK    4  A    between atoms: C_8  and  O_36
REMARK    5  A    between atoms: C_12  and  O_35
REMARK    6  A    between atoms: C_14  and  O_18
REMARK    7  A    between atoms: O_18  and  C_19
REMARK    8  A    between atoms: C_21  and  O_34
REMARK    9  A    between atoms: C_23  and  O_33
REMARK   10  A    between atoms: C_25  and  O_32
REMARK   11  A    between atoms: C_27  and  C_30
REMARK   12  A    between atoms: C_30  and  O_31
REMARK   13  A    between atoms: O_36  and  C_37
REMARK   14  A    between atoms: C_39  and  O_58
REMARK   15  A    between atoms: C_41  and  O_57
REMARK   16  A    between atoms: C_43  and  O_56
REMARK   17  A    between atoms: C_45  and  C_48
REMARK   18  A    between atoms: C_48  and  O_49
REMARK   19  A    between atoms: O_49  and  C_50
REMARK   20  A    between atoms: C_50  and  C_52
REMARK   21  A    between atoms: C_52  and  C_53
REMARK   22  A    between atoms: C_53  and  O_55
REMARK                            x       y       z     vdW  Elec       q    Type
REMARK                         _______ _______ _______ _____ _____    ______ ____
ROOT
ATOM      1  C   UNL     1       5.589  -0.701  24.962  0.00  0.00    +0.181 A 
ATOM      2  O   UNL     1       5.347   0.670  24.892  0.00  0.00    -0.451 OA
ATOM      3  C   UNL     1       5.936   1.419  23.908  0.00  0.00    +0.147 A 
ATOM      4  C   UNL     1       6.934   0.927  23.090  0.00  0.00    +0.109 A 
ATOM      5  C   UNL     1       7.575   1.800  22.200  0.00  0.00    +0.135 A 
ATOM      6  C   UNL     1       7.217   3.155  22.135  0.00  0.00    +0.092 A 
ATOM      7  C   UNL     1       6.198   3.652  22.952  0.00  0.00    +0.131 A 
ATOM      8  C   UNL     1       7.245  -0.508  23.183  0.00  0.00    +0.238 A 
ATOM      9  O   UNL     1       8.176  -0.971  22.531  0.00  0.00    -0.283 OA
ATOM     10  C   UNL     1       5.528   2.752  23.797  0.00  0.00    +0.093 A 
ATOM     11  C   UNL     1       6.384  -1.354  24.074  0.00  0.00    +0.214 A 
ENDROOT
BRANCH   1  13
ATOM     12  C   UNL     1       5.218  -1.053  27.439  0.00  0.00    +0.015 A 
ATOM     13  C   UNL     1       4.856  -1.336  26.104  0.00  0.00    +0.025 A 
ATOM     14  C   UNL     1       3.837  -2.282  25.909  0.00  0.00    +0.060 A 
ATOM     15  C   UNL     1       3.167  -2.849  26.987  0.00  0.00    +0.159 A 
ATOM     16  C   UNL     1       3.559  -2.579  28.288  0.00  0.00    +0.158 A 
ATOM     17  C   UNL     1       4.592  -1.684  28.526  0.00  0.00    +0.050 A 
BRANCH  16  18
ATOM     18  O   UNL     1       2.918  -3.237  29.297  0.00  0.00    -0.503 OA
ATOM     19  H   UNL     1       1.967  -3.050  29.224  0.00  0.00    +0.292 HD
ENDBRANCH  16  18
BRANCH  15  20
ATOM     20  O   UNL     1       2.121  -3.690  26.741  0.00  0.00    -0.503 OA
ATOM     21  H   UNL     1       2.043  -4.241  27.543  0.00  0.00    +0.292 HD
ENDBRANCH  15  20
ENDBRANCH   1  13
BRANCH   5  22
ATOM     22  O   UNL     1       8.589   1.391  21.373  0.00  0.00    -0.506 OA
ATOM     23  H   UNL     1       9.446   1.543  21.830  0.00  0.00    +0.292 HD
ENDBRANCH   5  22
BRANCH   7  24
ATOM     24  O   UNL     1       5.954   5.014  22.901  0.00  0.00    -0.461 OA
BRANCH  24  25
ATOM     25  C   UNL     1       6.221   5.732  24.123  0.00  0.00    +0.339 C 
ATOM     26  O   UNL     1       7.006   6.902  23.885  0.00  0.00    -0.331 OA
ATOM     27  C   UNL     1       8.410   6.856  24.185  0.00  0.00    +0.179 C 
ATOM     28  C   UNL     1       8.692   6.232  25.557  0.00  0.00    +0.177 C 
ATOM     29  C   UNL     1       8.140   4.808  25.627  0.00  0.00    +0.180 C 
ATOM     30  C   UNL     1       6.643   4.807  25.298  0.00  0.00    +0.214 C 
BRANCH  28  31
ATOM     31  O   UNL     1       8.050   7.039  26.563  0.00  0.00    -0.386 OA
ATOM     32  H   UNL     1       7.211   7.363  26.184  0.00  0.00    +0.210 HD
ENDBRANCH  28  31
BRANCH  29  33
ATOM     33  O   UNL     1       8.920   3.941  24.810  0.00  0.00    -0.386 OA
ATOM     34  H   UNL     1       9.536   3.429  25.362  0.00  0.00    +0.210 HD
ENDBRANCH  29  33
BRANCH  30  35
ATOM     35  O   UNL     1       5.960   5.272  26.493  0.00  0.00    -0.383 OA
ATOM     36  H   UNL     1       5.939   4.507  27.111  0.00  0.00    +0.210 HD
ENDBRANCH  30  35
BRANCH  27  37
ATOM     37  C   UNL     1       9.221   6.237  23.036  0.00  0.00    +0.190 C 
BRANCH  37  38
ATOM     38  O   UNL     1      10.577   6.039  23.436  0.00  0.00    -0.392 OA
ATOM     39  H   UNL     1      10.979   6.925  23.512  0.00  0.00    +0.210 HD
ENDBRANCH  37  38
ENDBRANCH  27  37
ENDBRANCH  24  25
ENDBRANCH   7  24
BRANCH  11  40
ATOM     40  O   UNL     1       6.508  -2.743  23.946  0.00  0.00    -0.453 OA
BRANCH  40  41
ATOM     41  C   UNL     1       5.704  -3.257  22.864  0.00  0.00    +0.340 C 
ATOM     42  O   UNL     1       4.760  -4.240  23.297  0.00  0.00    -0.330 OA
ATOM     43  C   UNL     1       4.999  -5.650  23.212  0.00  0.00    +0.191 C 
ATOM     44  C   UNL     1       6.084  -6.139  22.227  0.00  0.00    +0.178 C 
ATOM     45  C   UNL     1       7.184  -5.098  22.008  0.00  0.00    +0.180 C 
ATOM     46  C   UNL     1       6.547  -3.745  21.689  0.00  0.00    +0.214 C 
BRANCH  46  47
ATOM     47  O   UNL     1       5.704  -3.873  20.521  0.00  0.00    -0.383 OA
ATOM     48  H   UNL     1       5.567  -2.975  20.147  0.00  0.00    +0.210 HD
ENDBRANCH  46  47
BRANCH  45  49
ATOM     49  O   UNL     1       8.077  -5.058  23.118  0.00  0.00    -0.386 OA
ATOM     50  H   UNL     1       8.233  -4.138  23.401  0.00  0.00    +0.210 HD
ENDBRANCH  45  49
BRANCH  44  51
ATOM     51  O   UNL     1       5.446  -6.473  20.976  0.00  0.00    -0.386 OA
ATOM     52  H   UNL     1       6.103  -6.918  20.402  0.00  0.00    +0.210 HD
ENDBRANCH  44  51
BRANCH  43  53
ATOM     53  C   UNL     1       5.164  -6.275  24.610  0.00  0.00    +0.266 C 
BRANCH  53  54
ATOM     54  O   UNL     1       5.219  -5.258  25.638  0.00  0.00    -0.462 OA
BRANCH  54  55
ATOM     55  C   UNL     1       5.781  -5.635  26.823  0.00  0.00    +0.318 C 
ATOM     56  O   UNL     1       5.643  -6.733  27.349  0.00  0.00    -0.250 OA
BRANCH  55  57
ATOM     57  C   UNL     1       6.677  -4.565  27.377  0.00  0.00    +0.240 C 
BRANCH  57  58
ATOM     58  C   UNL     1       7.935  -4.384  26.590  0.00  0.00    +0.316 C 
ATOM     59  O   UNL     1       8.591  -5.267  26.080  0.00  0.00    -0.250 OA
BRANCH  58  60
ATOM     60  O   UNL     1       8.292  -3.072  26.480  0.00  0.00    -0.480 OA
ATOM     61  H   UNL     1       8.748  -2.703  27.263  0.00  0.00    +0.295 HD
ENDBRANCH  58  60
ENDBRANCH  57  58
ENDBRANCH  55  57
ENDBRANCH  54  55
ENDBRANCH  53  54
ENDBRANCH  43  53
ENDBRANCH  40  41
ENDBRANCH  11  40
TORSDOF 22
ENDMDL
MODEL 9
REMARK VINA RESULT:      -6.3      1.665      2.708
REMARK  Name = 
REMARK  22 active torsions:
REMARK  status: ('A' for Active; 'I' for Inactive)
REMARK    1  A    between atoms: C_3  and  O_60
REMARK    2  A    between atoms: C_4  and  O_59
REMARK    3  A    between atoms: C_6  and  C_7
REMARK    4  A    between atoms: C_8  and  O_36
REMARK    5  A    between atoms: C_12  and  O_35
REMARK    6  A    between atoms: C_14  and  O_18
REMARK    7  A    between atoms: O_18  and  C_19
REMARK    8  A    between atoms: C_21  and  O_34
REMARK    9  A    between atoms: C_23  and  O_33
REMARK   10  A    between atoms: C_25  and  O_32
REMARK   11  A    between atoms: C_27  and  C_30
REMARK   12  A    between atoms: C_30  and  O_31
REMARK   13  A    between atoms: O_36  and  C_37
REMARK   14  A    between atoms: C_39  and  O_58
REMARK   15  A    between atoms: C_41  and  O_57
REMARK   16  A    between atoms: C_43  and  O_56
REMARK   17  A    between atoms: C_45  and  C_48
REMARK   18  A    between atoms: C_48  and  O_49
REMARK   19  A    between atoms: O_49  and  C_50
REMARK   20  A    between atoms: C_50  and  C_52
REMARK   21  A    between atoms: C_52  and  C_53
REMARK   22  A    between atoms: C_53  and  O_55
REMARK                            x       y       z     vdW  Elec       q    Type
REMARK                         _______ _______ _______ _____ _____    ______ ____
ROOT
ATOM      1  C   UNL     1       5.546  -1.133  26.486  0.00  0.00    +0.181 A 
ATOM      2  O   UNL     1       5.954   0.195  26.360  0.00  0.00    -0.451 OA
ATOM      3  C   UNL     1       7.088   0.497  25.655  0.00  0.00    +0.147 A 
ATOM      4  C   UNL     1       7.981  -0.464  25.226  0.00  0.00    +0.109 A 
ATOM      5  C   UNL     1       9.182  -0.058  24.630  0.00  0.00    +0.135 A 
ATOM      6  C   UNL     1       9.483   1.303  24.467  0.00  0.00    +0.092 A 
ATOM      7  C   UNL     1       8.575   2.277  24.887  0.00  0.00    +0.131 A 
ATOM      8  C   UNL     1       7.598  -1.875  25.397  0.00  0.00    +0.238 A 
ATOM      9  O   UNL     1       8.394  -2.761  25.101  0.00  0.00    -0.283 OA
ATOM     10  C   UNL     1       7.352   1.853  25.432  0.00  0.00    +0.093 A 
ATOM     11  C   UNL     1       6.222  -2.166  25.919  0.00  0.00    +0.214 A 
ENDROOT
BRANCH   1  13
ATOM     12  C   UNL     1       4.234  -0.771  28.618  0.00  0.00    +0.015 A 
ATOM     13  C   UNL     1       4.289  -1.253  27.292  0.00  0.00    +0.025 A 
ATOM     14  C   UNL     1       3.144  -1.903  26.804  0.00  0.00    +0.060 A 
ATOM     15  C   UNL     1       1.987  -1.992  27.569  0.00  0.00    +0.159 A 
ATOM     16  C   UNL     1       1.965  -1.538  28.878  0.00  0.00    +0.158 A 
ATOM     17  C   UNL     1       3.089  -0.930  29.416  0.00  0.00    +0.050 A 
BRANCH  16  18
ATOM     18  O   UNL     1       0.826  -1.737  29.603  0.00  0.00    -0.503 OA
ATOM     19  H   UNL     1       0.976  -2.491  30.199  0.00  0.00    +0.292 HD
ENDBRANCH  16  18
BRANCH  15  20
ATOM     20  O   UNL     1       0.872  -2.548  27.012  0.00  0.00    -0.503 OA
ATOM     21  H   UNL     1       0.685  -2.005  26.223  0.00  0.00    +0.292 HD
ENDBRANCH  15  20
ENDBRANCH   1  13
BRANCH   5  22
ATOM     22  O   UNL     1      10.128  -0.953  24.199  0.00  0.00    -0.506 OA
ATOM     23  H   UNL     1      10.527  -0.611  23.368  0.00  0.00    +0.292 HD
ENDBRANCH   5  22
BRANCH   7  24
ATOM     24  O   UNL     1       8.970   3.600  24.778  0.00  0.00    -0.461 OA
BRANCH  24  25
ATOM     25  C   UNL     1       8.753   4.201  23.485  0.00  0.00    +0.339 C 
ATOM     26  O   UNL     1       9.302   5.518  23.417  0.00  0.00    -0.331 OA
ATOM     27  C   UNL     1       8.411   6.639  23.539  0.00  0.00    +0.179 C 
ATOM     28  C   UNL     1       7.159   6.482  22.668  0.00  0.00    +0.177 C 
ATOM     29  C   UNL     1       6.391   5.215  23.046  0.00  0.00    +0.180 C 
ATOM     30  C   UNL     1       7.311   3.992  22.945  0.00  0.00    +0.214 C 
BRANCH  28  31
ATOM     31  O   UNL     1       7.572   6.392  21.290  0.00  0.00    -0.386 OA
ATOM     32  H   UNL     1       7.072   7.065  20.792  0.00  0.00    +0.210 HD
ENDBRANCH  28  31
BRANCH  29  33
ATOM     33  O   UNL     1       5.774   5.379  24.318  0.00  0.00    -0.386 OA
ATOM     34  H   UNL     1       6.439   5.296  25.024  0.00  0.00    +0.210 HD
ENDBRANCH  29  33
BRANCH  30  35
ATOM     35  O   UNL     1       7.411   3.669  21.533  0.00  0.00    -0.383 OA
ATOM     36  H   UNL     1       7.314   2.692  21.469  0.00  0.00    +0.210 HD
ENDBRANCH  30  35
BRANCH  27  37
ATOM     37  C   UNL     1       8.114   6.977  25.008  0.00  0.00    +0.190 C 
BRANCH  37  38
ATOM     38  O   UNL     1       9.142   6.458  25.853  0.00  0.00    -0.392 OA
ATOM     39  H   UNL     1       9.939   6.996  25.686  0.00  0.00    +0.210 HD
ENDBRANCH  37  38
ENDBRANCH  27  37
ENDBRANCH  24  25
ENDBRANCH   7  24
BRANCH  11  40
ATOM     40  O   UNL     1       5.771  -3.489  25.818  0.00  0.00    -0.453 OA
BRANCH  40  41
ATOM     41  C   UNL     1       4.971  -3.696  24.636  0.00  0.00    +0.340 C 
ATOM     42  O   UNL     1       4.040  -4.771  24.781  0.00  0.00    -0.330 OA
ATOM     43  C   UNL     1       4.297  -6.101  24.311  0.00  0.00    +0.191 C 
ATOM     44  C   UNL     1       5.385  -6.286  23.230  0.00  0.00    +0.178 C 
ATOM     45  C   UNL     1       6.472  -5.211  23.308  0.00  0.00    +0.180 C 
ATOM     46  C   UNL     1       5.817  -3.831  23.373  0.00  0.00    +0.214 C 
BRANCH  46  47
ATOM     47  O   UNL     1       4.973  -3.642  22.214  0.00  0.00    -0.383 OA
ATOM     48  H   UNL     1       5.536  -3.312  21.480  0.00  0.00    +0.210 HD
ENDBRANCH  46  47
BRANCH  45  49
ATOM     49  O   UNL     1       7.367  -5.466  24.387  0.00  0.00    -0.386 OA
ATOM     50  H   UNL     1       7.110  -6.277  24.863  0.00  0.00    +0.210 HD
ENDBRANCH  45  49
BRANCH  44  51
ATOM     51  O   UNL     1       4.748  -6.270  21.935  0.00  0.00    -0.386 OA
ATOM     52  H   UNL     1       4.738  -7.184  21.584  0.00  0.00    +0.210 HD
ENDBRANCH  44  51
BRANCH  43  53
ATOM     53  C   UNL     1       4.474  -7.084  25.483  0.00  0.00    +0.266 C 
BRANCH  53  54
ATOM     54  O   UNL     1       5.496  -6.631  26.401  0.00  0.00    -0.462 OA
BRANCH  54  55
ATOM     55  C   UNL     1       5.212  -6.770  27.728  0.00  0.00    +0.318 C 
ATOM     56  O   UNL     1       5.789  -7.532  28.495  0.00  0.00    -0.250 OA
BRANCH  55  57
ATOM     57  C   UNL     1       4.155  -5.802  28.174  0.00  0.00    +0.240 C 
BRANCH  57  58
ATOM     58  C   UNL     1       4.693  -4.680  29.002  0.00  0.00    +0.316 C 
ATOM     59  O   UNL     1       4.110  -4.117  29.904  0.00  0.00    -0.250 OA
BRANCH  58  60
ATOM     60  O   UNL     1       5.964  -4.337  28.646  0.00  0.00    -0.480 OA
ATOM     61  H   UNL     1       6.297  -4.778  27.838  0.00  0.00    +0.295 HD
ENDBRANCH  58  60
ENDBRANCH  57  58
ENDBRANCH  55  57
ENDBRANCH  54  55
ENDBRANCH  53  54
ENDBRANCH  43  53
ENDBRANCH  40  41
ENDBRANCH  11  40
TORSDOF 22
ENDMDL
