MODEL 1
REMARK VINA RESULT:      -7.8      0.000      0.000
REMARK  Name = 
REMARK  22 active torsions:
REMARK  status: ('A' for Active; 'I' for Inactive)
REMARK    1  A    between atoms: C_1  and  C_2
REMARK    2  A    between atoms: C_4  and  O_64
REMARK    3  A    between atoms: C_6  and  O_63
REMARK    4  A    between atoms: C_8  and  O_62
REMARK    5  A    between atoms: C_10  and  O_13
REMARK    6  A    between atoms: O_13  and  C_14
REMARK    7  A    between atoms: C_14  and  C_15
REMARK    8  A    between atoms: C_17  and  O_61
REMARK    9  A    between atoms: C_19  and  O_60
REMARK   10  A    between atoms: C_21  and  O_48
REMARK   11  A    between atoms: C_23  and  O_26
REMARK   12  A    between atoms: O_26  and  C_27
REMARK   13  A    between atoms: C_28  and  C_40
REMARK   14  A    between atoms: C_32  and  O_39
REMARK   15  A    between atoms: C_34  and  O_38
REMARK   16  A    between atoms: C_42  and  O_47
REMARK   17  A    between atoms: C_43  and  O_46
REMARK   18  A    between atoms: O_48  and  C_49
REMARK   19  A    between atoms: C_51  and  O_59
REMARK   20  A    between atoms: C_53  and  C_56
REMARK   21  A    between atoms: C_53  and  O_58
REMARK   22  A    between atoms: C_56  and  O_57
REMARK                            x       y       z     vdW  Elec       q    Type
REMARK                         _______ _______ _______ _____ _____    ______ ____
ROOT
ATOM      1  C   UNL     1       8.393  -3.096  22.840  0.00  0.00    +0.179 C 
ATOM      2  O   UNL     1       8.204  -2.916  24.240  0.00  0.00    -0.331 OA
ATOM      3  C   UNL     1       7.570  -4.024  24.857  0.00  0.00    +0.340 C 
ATOM      4  C   UNL     1       6.098  -4.145  24.349  0.00  0.00    +0.221 C 
ATOM      5  C   UNL     1       6.140  -4.114  22.784  0.00  0.00    +0.180 C 
ATOM      6  C   UNL     1       7.002  -2.962  22.225  0.00  0.00    +0.177 C 
ENDROOT
BRANCH   5   7
ATOM      7  O   UNL     1       4.812  -4.061  22.235  0.00  0.00    -0.386 OA
ATOM      8  H   UNL     1       4.891  -4.167  21.271  0.00  0.00    +0.210 HD
ENDBRANCH   5   7
BRANCH   6   9
ATOM      9  O   UNL     1       6.374  -1.722  22.567  0.00  0.00    -0.386 OA
ATOM     10  H   UNL     1       5.683  -1.562  21.887  0.00  0.00    +0.210 HD
ENDBRANCH   6   9
BRANCH   4  11
ATOM     11  O   UNL     1       5.509  -5.427  24.681  0.00  0.00    -0.337 OA
BRANCH  11  12
ATOM     12  C   UNL     1       4.138  -5.549  24.348  0.00  0.00    +0.282 C 
ATOM     13  O   UNL     1       3.383  -4.445  24.845  0.00  0.00    -0.346 OA
ATOM     14  C   UNL     1       2.211  -4.905  25.520  0.00  0.00    +0.202 C 
ATOM     15  C   UNL     1       2.075  -6.377  25.168  0.00  0.00    +0.142 C 
ATOM     16  C   UNL     1       3.534  -6.794  25.014  0.00  0.00    +0.206 C 
BRANCH  16  17
ATOM     17  O   UNL     1       3.668  -7.982  24.233  0.00  0.00    -0.384 OA
ATOM     18  H   UNL     1       4.305  -7.780  23.520  0.00  0.00    +0.210 HD
ENDBRANCH  16  17
BRANCH  15  19
ATOM     19  O   UNL     1       1.417  -6.541  23.890  0.00  0.00    -0.381 OA
ATOM     20  H   UNL     1       1.963  -7.128  23.334  0.00  0.00    +0.210 HD
ENDBRANCH  15  19
BRANCH  15  21
ATOM     21  C   UNL     1       1.292  -7.147  26.229  0.00  0.00    +0.195 C 
BRANCH  21  22
ATOM     22  O   UNL     1       1.902  -8.391  26.565  0.00  0.00    -0.392 OA
ATOM     23  H   UNL     1       1.855  -8.964  25.777  0.00  0.00    +0.210 HD
ENDBRANCH  21  22
ENDBRANCH  15  21
ENDBRANCH  11  12
ENDBRANCH   4  11
BRANCH   3  24
ATOM     24  O   UNL     1       7.789  -3.816  26.261  0.00  0.00    -0.453 OA
BRANCH  24  25
ATOM     25  C   UNL     1       6.648  -3.972  27.074  0.00  0.00    +0.214 A 
ATOM     26  C   UNL     1       6.349  -5.294  27.766  0.00  0.00    +0.238 A 
ATOM     27  O   UNL     1       7.171  -6.168  27.964  0.00  0.00    -0.283 OA
ATOM     28  C   UNL     1       5.019  -5.526  28.288  0.00  0.00    +0.109 A 
ATOM     29  C   UNL     1       4.198  -4.422  28.434  0.00  0.00    +0.147 A 
ATOM     30  C   UNL     1       2.935  -4.563  29.017  0.00  0.00    +0.092 A 
ATOM     31  C   UNL     1       2.526  -5.820  29.458  0.00  0.00    +0.124 A 
ATOM     32  C   UNL     1       3.339  -6.937  29.324  0.00  0.00    +0.091 A 
ATOM     33  O   UNL     1       4.585  -3.169  28.052  0.00  0.00    -0.451 OA
ATOM     34  C   UNL     1       4.583  -6.790  28.731  0.00  0.00    +0.135 A 
ATOM     35  C   UNL     1       5.746  -2.973  27.287  0.00  0.00    +0.181 A 
BRANCH  35  36
ATOM     36  C   UNL     1       5.794  -1.555  26.763  0.00  0.00    +0.025 A 
ATOM     37  C   UNL     1       4.849  -0.986  25.887  0.00  0.00    +0.015 A 
ATOM     38  C   UNL     1       4.861   0.386  25.572  0.00  0.00    +0.050 A 
ATOM     39  C   UNL     1       5.831   1.207  26.117  0.00  0.00    +0.158 A 
ATOM     40  C   UNL     1       6.841   0.663  26.890  0.00  0.00    +0.159 A 
ATOM     41  C   UNL     1       6.829  -0.694  27.213  0.00  0.00    +0.060 A 
BRANCH  39  42
ATOM     42  O   UNL     1       5.786   2.552  25.895  0.00  0.00    -0.503 OA
ATOM     43  H   UNL     1       5.863   2.955  26.784  0.00  0.00    +0.292 HD
ENDBRANCH  39  42
BRANCH  40  44
ATOM     44  O   UNL     1       7.832   1.500  27.325  0.00  0.00    -0.503 OA
ATOM     45  H   UNL     1       7.457   2.054  28.032  0.00  0.00    +0.292 HD
ENDBRANCH  40  44
ENDBRANCH  35  36
BRANCH  34  46
ATOM     46  O   UNL     1       5.360  -7.905  28.567  0.00  0.00    -0.506 OA
ATOM     47  H   UNL     1       4.833  -8.708  28.706  0.00  0.00    +0.292 HD
ENDBRANCH  34  46
BRANCH  31  48
ATOM     48  O   UNL     1       1.309  -6.018  30.041  0.00  0.00    -0.507 OA
ATOM     49  H   UNL     1       1.333  -6.838  30.550  0.00  0.00    +0.292 HD
ENDBRANCH  31  48
ENDBRANCH  24  25
ENDBRANCH   3  24
BRANCH   1  50
ATOM     50  C   UNL     1       9.418  -2.047  22.424  0.00  0.00    +0.197 C 
BRANCH  50  51
ATOM     51  O   UNL     1       9.733  -1.253  23.563  0.00  0.00    -0.346 OA
BRANCH  51  55
ATOM     52  C   UNL     1       6.874   1.875  22.587  0.00  0.00    +0.041 C 
ATOM     53  C   UNL     1       8.285   1.722  22.031  0.00  0.00    +0.149 C 
ATOM     54  O   UNL     1       8.792   0.393  22.203  0.00  0.00    -0.343 OA
ATOM     55  C   UNL     1       9.116   0.030  23.544  0.00  0.00    +0.282 C 
ATOM     56  C   UNL     1      10.137   0.992  24.188  0.00  0.00    +0.201 C 
ATOM     57  C   UNL     1       9.735   2.456  23.997  0.00  0.00    +0.179 C 
ATOM     58  C   UNL     1       9.318   2.734  22.548  0.00  0.00    +0.174 C 
BRANCH  56  59
ATOM     59  O   UNL     1      10.288   0.696  25.587  0.00  0.00    -0.384 OA
ATOM     60  H   UNL     1      10.819   1.403  25.995  0.00  0.00    +0.210 HD
ENDBRANCH  56  59
BRANCH  57  61
ATOM     61  O   UNL     1       8.713   2.833  24.933  0.00  0.00    -0.386 OA
ATOM     62  H   UNL     1       9.038   2.723  25.841  0.00  0.00    +0.210 HD
ENDBRANCH  57  61
BRANCH  58  63
ATOM     63  O   UNL     1      10.484   2.637  21.709  0.00  0.00    -0.387 OA
ATOM     64  H   UNL     1      10.687   1.687  21.593  0.00  0.00    +0.210 HD
ENDBRANCH  58  63
ENDBRANCH  51  55
ENDBRANCH  50  51
ENDBRANCH   1  50
TORSDOF 21
ENDMDL
MODEL 2
REMARK VINA RESULT:      -7.4      2.857      9.734
REMARK  Name = 
REMARK  22 active torsions:
REMARK  status: ('A' for Active; 'I' for Inactive)
REMARK    1  A    between atoms: C_1  and  C_2
REMARK    2  A    between atoms: C_4  and  O_64
REMARK    3  A    between atoms: C_6  and  O_63
REMARK    4  A    between atoms: C_8  and  O_62
REMARK    5  A    between atoms: C_10  and  O_13
REMARK    6  A    between atoms: O_13  and  C_14
REMARK    7  A    between atoms: C_14  and  C_15
REMARK    8  A    between atoms: C_17  and  O_61
REMARK    9  A    between atoms: C_19  and  O_60
REMARK   10  A    between atoms: C_21  and  O_48
REMARK   11  A    between atoms: C_23  and  O_26
REMARK   12  A    between atoms: O_26  and  C_27
REMARK   13  A    between atoms: C_28  and  C_40
REMARK   14  A    between atoms: C_32  and  O_39
REMARK   15  A    between atoms: C_34  and  O_38
REMARK   16  A    between atoms: C_42  and  O_47
REMARK   17  A    between atoms: C_43  and  O_46
REMARK   18  A    between atoms: O_48  and  C_49
REMARK   19  A    between atoms: C_51  and  O_59
REMARK   20  A    between atoms: C_53  and  C_56
REMARK   21  A    between atoms: C_53  and  O_58
REMARK   22  A    between atoms: C_56  and  O_57
REMARK                            x       y       z     vdW  Elec       q    Type
REMARK                         _______ _______ _______ _____ _____    ______ ____
ROOT
ATOM      1  C   UNL     1       5.674   0.644  27.025  0.00  0.00    +0.179 C 
ATOM      2  O   UNL     1       6.005   0.823  25.651  0.00  0.00    -0.331 OA
ATOM      3  C   UNL     1       6.201   2.183  25.305  0.00  0.00    +0.340 C 
ATOM      4  C   UNL     1       4.850   2.959  25.412  0.00  0.00    +0.221 C 
ATOM      5  C   UNL     1       4.244   2.651  26.822  0.00  0.00    +0.180 C 
ATOM      6  C   UNL     1       4.239   1.146  27.162  0.00  0.00    +0.177 C 
ENDROOT
BRANCH   5   7
ATOM      7  O   UNL     1       2.921   3.201  26.944  0.00  0.00    -0.386 OA
ATOM      8  H   UNL     1       2.769   3.385  27.888  0.00  0.00    +0.210 HD
ENDBRANCH   5   7
BRANCH   6   9
ATOM      9  O   UNL     1       3.343   0.484  26.263  0.00  0.00    -0.386 OA
ATOM     10  H   UNL     1       3.428   0.939  25.397  0.00  0.00    +0.210 HD
ENDBRANCH   6   9
BRANCH   4  11
ATOM     11  O   UNL     1       5.041   4.396  25.393  0.00  0.00    -0.337 OA
BRANCH  11  12
ATOM     12  C   UNL     1       4.401   5.061  24.319  0.00  0.00    +0.282 C 
ATOM     13  O   UNL     1       3.018   5.279  24.593  0.00  0.00    -0.346 OA
ATOM     14  C   UNL     1       2.219   4.874  23.481  0.00  0.00    +0.202 C 
ATOM     15  C   UNL     1       3.184   4.665  22.325  0.00  0.00    +0.142 C 
ATOM     16  C   UNL     1       4.439   4.193  23.053  0.00  0.00    +0.206 C 
BRANCH  16  17
ATOM     17  O   UNL     1       5.614   4.382  22.264  0.00  0.00    -0.384 OA
ATOM     18  H   UNL     1       6.274   4.813  22.841  0.00  0.00    +0.210 HD
ENDBRANCH  16  17
BRANCH  15  19
ATOM     19  O   UNL     1       3.482   5.919  21.671  0.00  0.00    -0.381 OA
ATOM     20  H   UNL     1       3.474   5.775  20.706  0.00  0.00    +0.210 HD
ENDBRANCH  15  19
BRANCH  15  21
ATOM     21  C   UNL     1       2.631   3.686  21.291  0.00  0.00    +0.195 C 
BRANCH  21  22
ATOM     22  O   UNL     1       2.643   4.220  19.970  0.00  0.00    -0.392 OA
ATOM     23  H   UNL     1       2.207   3.571  19.387  0.00  0.00    +0.210 HD
ENDBRANCH  21  22
ENDBRANCH  15  21
ENDBRANCH  11  12
ENDBRANCH   4  11
BRANCH   3  24
ATOM     24  O   UNL     1       6.854   2.129  24.027  0.00  0.00    -0.453 OA
BRANCH  24  25
ATOM     25  C   UNL     1       8.215   2.495  24.034  0.00  0.00    +0.214 A 
ATOM     26  C   UNL     1       8.639   3.954  24.092  0.00  0.00    +0.238 A 
ATOM     27  O   UNL     1       7.922   4.864  24.466  0.00  0.00    -0.283 OA
ATOM     28  C   UNL     1       9.999   4.304  23.745  0.00  0.00    +0.109 A 
ATOM     29  C   UNL     1      10.925   3.275  23.708  0.00  0.00    +0.147 A 
ATOM     30  C   UNL     1      12.273   3.557  23.469  0.00  0.00    +0.092 A 
ATOM     31  C   UNL     1      12.670   4.879  23.283  0.00  0.00    +0.124 A 
ATOM     32  C   UNL     1      11.755   5.924  23.321  0.00  0.00    +0.091 A 
ATOM     33  O   UNL     1      10.576   1.973  23.928  0.00  0.00    -0.451 OA
ATOM     34  C   UNL     1      10.419   5.634  23.545  0.00  0.00    +0.135 A 
ATOM     35  C   UNL     1       9.229   1.584  23.981  0.00  0.00    +0.181 A 
BRANCH  35  36
ATOM     36  C   UNL     1       9.118   0.076  23.948  0.00  0.00    +0.025 A 
ATOM     37  C   UNL     1       9.278  -0.720  22.798  0.00  0.00    +0.015 A 
ATOM     38  C   UNL     1       9.328  -2.126  22.869  0.00  0.00    +0.050 A 
ATOM     39  C   UNL     1       9.200  -2.756  24.093  0.00  0.00    +0.158 A 
ATOM     40  C   UNL     1       8.927  -2.013  25.228  0.00  0.00    +0.159 A 
ATOM     41  C   UNL     1       8.886  -0.619  25.164  0.00  0.00    +0.060 A 
BRANCH  39  42
ATOM     42  O   UNL     1       9.348  -4.110  24.179  0.00  0.00    -0.503 OA
ATOM     43  H   UNL     1       8.806  -4.467  23.448  0.00  0.00    +0.292 HD
ENDBRANCH  39  42
BRANCH  40  44
ATOM     44  O   UNL     1       8.712  -2.689  26.396  0.00  0.00    -0.503 OA
ATOM     45  H   UNL     1       9.582  -2.938  26.754  0.00  0.00    +0.292 HD
ENDBRANCH  40  44
ENDBRANCH  35  36
BRANCH  34  46
ATOM     46  O   UNL     1       9.521   6.667  23.540  0.00  0.00    -0.506 OA
ATOM     47  H   UNL     1       9.949   7.488  23.826  0.00  0.00    +0.292 HD
ENDBRANCH  34  46
BRANCH  31  48
ATOM     48  O   UNL     1      13.971   5.216  23.053  0.00  0.00    -0.507 OA
ATOM     49  H   UNL     1      14.078   6.167  23.186  0.00  0.00    +0.292 HD
ENDBRANCH  31  48
ENDBRANCH  24  25
ENDBRANCH   3  24
BRANCH   1  50
ATOM     50  C   UNL     1       5.901  -0.835  27.315  0.00  0.00    +0.197 C 
BRANCH  50  51
ATOM     51  O   UNL     1       5.638  -1.570  26.124  0.00  0.00    -0.346 OA
BRANCH  51  55
ATOM     52  C   UNL     1       4.635  -5.192  28.313  0.00  0.00    +0.041 C 
ATOM     53  C   UNL     1       5.980  -4.849  27.681  0.00  0.00    +0.149 C 
ATOM     54  O   UNL     1       6.116  -3.447  27.427  0.00  0.00    -0.343 OA
ATOM     55  C   UNL     1       5.312  -2.935  26.364  0.00  0.00    +0.282 C 
ATOM     56  C   UNL     1       5.565  -3.665  25.027  0.00  0.00    +0.201 C 
ATOM     57  C   UNL     1       5.520  -5.186  25.194  0.00  0.00    +0.179 C 
ATOM     58  C   UNL     1       6.337  -5.635  26.411  0.00  0.00    +0.174 C 
BRANCH  56  59
ATOM     59  O   UNL     1       4.606  -3.244  24.041  0.00  0.00    -0.384 OA
ATOM     60  H   UNL     1       4.995  -2.514  23.528  0.00  0.00    +0.210 HD
ENDBRANCH  56  59
BRANCH  57  61
ATOM     61  O   UNL     1       4.164  -5.655  25.253  0.00  0.00    -0.386 OA
ATOM     62  H   UNL     1       4.147  -6.587  25.524  0.00  0.00    +0.210 HD
ENDBRANCH  57  61
BRANCH  58  63
ATOM     63  O   UNL     1       7.732  -5.410  26.134  0.00  0.00    -0.387 OA
ATOM     64  H   UNL     1       7.794  -4.643  25.532  0.00  0.00    +0.210 HD
ENDBRANCH  58  63
ENDBRANCH  51  55
ENDBRANCH  50  51
ENDBRANCH   1  50
TORSDOF 21
ENDMDL
MODEL 3
REMARK VINA RESULT:      -7.3      1.296      2.018
REMARK  Name = 
REMARK  22 active torsions:
REMARK  status: ('A' for Active; 'I' for Inactive)
REMARK    1  A    between atoms: C_1  and  C_2
REMARK    2  A    between atoms: C_4  and  O_64
REMARK    3  A    between atoms: C_6  and  O_63
REMARK    4  A    between atoms: C_8  and  O_62
REMARK    5  A    between atoms: C_10  and  O_13
REMARK    6  A    between atoms: O_13  and  C_14
REMARK    7  A    between atoms: C_14  and  C_15
REMARK    8  A    between atoms: C_17  and  O_61
REMARK    9  A    between atoms: C_19  and  O_60
REMARK   10  A    between atoms: C_21  and  O_48
REMARK   11  A    between atoms: C_23  and  O_26
REMARK   12  A    between atoms: O_26  and  C_27
REMARK   13  A    between atoms: C_28  and  C_40
REMARK   14  A    between atoms: C_32  and  O_39
REMARK   15  A    between atoms: C_34  and  O_38
REMARK   16  A    between atoms: C_42  and  O_47
REMARK   17  A    between atoms: C_43  and  O_46
REMARK   18  A    between atoms: O_48  and  C_49
REMARK   19  A    between atoms: C_51  and  O_59
REMARK   20  A    between atoms: C_53  and  C_56
REMARK   21  A    between atoms: C_53  and  O_58
REMARK   22  A    between atoms: C_56  and  O_57
REMARK                            x       y       z     vdW  Elec       q    Type
REMARK                         _______ _______ _______ _____ _____    ______ ____
ROOT
ATOM      1  C   UNL     1       9.199  -1.958  23.478  0.00  0.00    +0.179 C 
ATOM      2  O   UNL     1       8.600  -1.796  24.759  0.00  0.00    -0.331 OA
ATOM      3  C   UNL     1       7.985  -2.981  25.234  0.00  0.00    +0.340 C 
ATOM      4  C   UNL     1       6.749  -3.331  24.346  0.00  0.00    +0.221 C 
ATOM      5  C   UNL     1       7.224  -3.308  22.854  0.00  0.00    +0.180 C 
ATOM      6  C   UNL     1       8.033  -2.045  22.496  0.00  0.00    +0.177 C 
ENDROOT
BRANCH   5   7
ATOM      7  O   UNL     1       6.110  -3.465  21.958  0.00  0.00    -0.386 OA
ATOM      8  H   UNL     1       5.917  -2.590  21.578  0.00  0.00    +0.210 HD
ENDBRANCH   5   7
BRANCH   6   9
ATOM      9  O   UNL     1       7.163  -0.912  22.585  0.00  0.00    -0.386 OA
ATOM     10  H   UNL     1       6.553  -0.966  21.816  0.00  0.00    +0.210 HD
ENDBRANCH   6   9
BRANCH   4  11
ATOM     11  O   UNL     1       6.280  -4.684  24.569  0.00  0.00    -0.337 OA
BRANCH  11  12
ATOM     12  C   UNL     1       5.114  -5.031  23.844  0.00  0.00    +0.282 C 
ATOM     13  O   UNL     1       4.038  -4.140  24.134  0.00  0.00    -0.346 OA
ATOM     14  C   UNL     1       2.846  -4.874  24.420  0.00  0.00    +0.202 C 
ATOM     15  C   UNL     1       3.122  -6.306  23.993  0.00  0.00    +0.142 C 
ATOM     16  C   UNL     1       4.619  -6.424  24.260  0.00  0.00    +0.206 C 
BRANCH  16  17
ATOM     17  O   UNL     1       5.211  -7.487  23.512  0.00  0.00    -0.384 OA
ATOM     18  H   UNL     1       4.826  -8.318  23.852  0.00  0.00    +0.210 HD
ENDBRANCH  16  17
BRANCH  15  19
ATOM     19  O   UNL     1       2.898  -6.471  22.574  0.00  0.00    -0.381 OA
ATOM     20  H   UNL     1       3.101  -7.394  22.333  0.00  0.00    +0.210 HD
ENDBRANCH  15  19
BRANCH  15  21
ATOM     21  C   UNL     1       2.251  -7.305  24.751  0.00  0.00    +0.195 C 
BRANCH  21  22
ATOM     22  O   UNL     1       2.968  -8.475  25.136  0.00  0.00    -0.392 OA
ATOM     23  H   UNL     1       2.376  -9.239  25.005  0.00  0.00    +0.210 HD
ENDBRANCH  21  22
ENDBRANCH  15  21
ENDBRANCH  11  12
ENDBRANCH   4  11
BRANCH   3  24
ATOM     24  O   UNL     1       7.767  -2.728  26.631  0.00  0.00    -0.453 OA
BRANCH  24  25
ATOM     25  C   UNL     1       6.514  -3.140  27.126  0.00  0.00    +0.214 A 
ATOM     26  C   UNL     1       6.276  -4.575  27.572  0.00  0.00    +0.238 A 
ATOM     27  O   UNL     1       7.159  -5.362  27.860  0.00  0.00    -0.283 OA
ATOM     28  C   UNL     1       4.916  -5.043  27.733  0.00  0.00    +0.109 A 
ATOM     29  C   UNL     1       3.923  -4.081  27.803  0.00  0.00    +0.147 A 
ATOM     30  C   UNL     1       2.600  -4.460  28.049  0.00  0.00    +0.092 A 
ATOM     31  C   UNL     1       2.301  -5.808  28.235  0.00  0.00    +0.124 A 
ATOM     32  C   UNL     1       3.286  -6.786  28.172  0.00  0.00    +0.091 A 
ATOM     33  O   UNL     1       4.188  -2.748  27.669  0.00  0.00    -0.451 OA
ATOM     34  C   UNL     1       4.592  -6.402  27.913  0.00  0.00    +0.135 A 
ATOM     35  C   UNL     1       5.444  -2.301  27.230  0.00  0.00    +0.181 A 
BRANCH  35  36
ATOM     36  C   UNL     1       5.388  -0.827  26.896  0.00  0.00    +0.025 A 
ATOM     37  C   UNL     1       5.491   0.218  27.835  0.00  0.00    +0.015 A 
ATOM     38  C   UNL     1       5.598   1.564  27.439  0.00  0.00    +0.050 A 
ATOM     39  C   UNL     1       5.587   1.887  26.094  0.00  0.00    +0.158 A 
ATOM     40  C   UNL     1       5.374   0.899  25.149  0.00  0.00    +0.159 A 
ATOM     41  C   UNL     1       5.276  -0.438  25.536  0.00  0.00    +0.060 A 
BRANCH  39  42
ATOM     42  O   UNL     1       5.792   3.178  25.703  0.00  0.00    -0.503 OA
ATOM     43  H   UNL     1       6.742   3.220  25.471  0.00  0.00    +0.292 HD
ENDBRANCH  39  42
BRANCH  40  44
ATOM     44  O   UNL     1       5.273   1.281  23.840  0.00  0.00    -0.503 OA
ATOM     45  H   UNL     1       5.490   2.229  23.795  0.00  0.00    +0.292 HD
ENDBRANCH  40  44
ENDBRANCH  35  36
BRANCH  34  46
ATOM     46  O   UNL     1       5.548  -7.377  27.813  0.00  0.00    -0.506 OA
ATOM     47  H   UNL     1       5.201  -8.141  27.327  0.00  0.00    +0.292 HD
ENDBRANCH  34  46
BRANCH  31  48
ATOM     48  O   UNL     1       1.031  -6.238  28.484  0.00  0.00    -0.507 OA
ATOM     49  H   UNL     1       1.043  -7.194  28.617  0.00  0.00    +0.292 HD
ENDBRANCH  31  48
ENDBRANCH  24  25
ENDBRANCH   3  24
BRANCH   1  50
ATOM     50  C   UNL     1      10.138  -0.769  23.306  0.00  0.00    +0.197 C 
BRANCH  50  51
ATOM     51  O   UNL     1       9.663   0.023  22.222  0.00  0.00    -0.346 OA
BRANCH  51  55
ATOM     52  C   UNL     1      11.319   3.946  23.107  0.00  0.00    +0.041 C 
ATOM     53  C   UNL     1      10.562   3.036  24.068  0.00  0.00    +0.149 C 
ATOM     54  O   UNL     1      10.537   1.676  23.618  0.00  0.00    -0.343 OA
ATOM     55  C   UNL     1       9.710   1.421  22.482  0.00  0.00    +0.282 C 
ATOM     56  C   UNL     1       8.245   1.851  22.709  0.00  0.00    +0.201 C 
ATOM     57  C   UNL     1       8.151   3.273  23.267  0.00  0.00    +0.179 C 
ATOM     58  C   UNL     1       9.136   3.482  24.423  0.00  0.00    +0.174 C 
BRANCH  56  59
ATOM     59  O   UNL     1       7.500   1.748  21.483  0.00  0.00    -0.384 OA
ATOM     60  H   UNL     1       7.192   2.638  21.235  0.00  0.00    +0.210 HD
ENDBRANCH  56  59
BRANCH  57  61
ATOM     61  O   UNL     1       8.329   4.246  22.225  0.00  0.00    -0.386 OA
ATOM     62  H   UNL     1       8.656   5.079  22.601  0.00  0.00    +0.210 HD
ENDBRANCH  57  61
BRANCH  58  63
ATOM     63  O   UNL     1       8.697   2.696  25.546  0.00  0.00    -0.387 OA
ATOM     64  H   UNL     1       8.051   3.231  26.048  0.00  0.00    +0.210 HD
ENDBRANCH  58  63
ENDBRANCH  51  55
ENDBRANCH  50  51
ENDBRANCH   1  50
TORSDOF 21
ENDMDL
MODEL 4
REMARK VINA RESULT:      -7.1      2.351      5.729
REMARK  Name = 
REMARK  22 active torsions:
REMARK  status: ('A' for Active; 'I' for Inactive)
REMARK    1  A    between atoms: C_1  and  C_2
REMARK    2  A    between atoms: C_4  and  O_64
REMARK    3  A    between atoms: C_6  and  O_63
REMARK    4  A    between atoms: C_8  and  O_62
REMARK    5  A    between atoms: C_10  and  O_13
REMARK    6  A    between atoms: O_13  and  C_14
REMARK    7  A    between atoms: C_14  and  C_15
REMARK    8  A    between atoms: C_17  and  O_61
REMARK    9  A    between atoms: C_19  and  O_60
REMARK   10  A    between atoms: C_21  and  O_48
REMARK   11  A    between atoms: C_23  and  O_26
REMARK   12  A    between atoms: O_26  and  C_27
REMARK   13  A    between atoms: C_28  and  C_40
REMARK   14  A    between atoms: C_32  and  O_39
REMARK   15  A    between atoms: C_34  and  O_38
REMARK   16  A    between atoms: C_42  and  O_47
REMARK   17  A    between atoms: C_43  and  O_46
REMARK   18  A    between atoms: O_48  and  C_49
REMARK   19  A    between atoms: C_51  and  O_59
REMARK   20  A    between atoms: C_53  and  C_56
REMARK   21  A    between atoms: C_53  and  O_58
REMARK   22  A    between atoms: C_56  and  O_57
REMARK                            x       y       z     vdW  Elec       q    Type
REMARK                         _______ _______ _______ _____ _____    ______ ____
ROOT
ATOM      1  C   UNL     1       9.198   1.108  23.229  0.00  0.00    +0.179 C 
ATOM      2  O   UNL     1       7.812   0.780  23.247  0.00  0.00    -0.331 OA
ATOM      3  C   UNL     1       7.570  -0.565  23.621  0.00  0.00    +0.340 C 
ATOM      4  C   UNL     1       8.112  -1.530  22.519  0.00  0.00    +0.221 C 
ATOM      5  C   UNL     1       9.593  -1.116  22.224  0.00  0.00    +0.180 C 
ATOM      6  C   UNL     1       9.764   0.401  22.000  0.00  0.00    +0.177 C 
ENDROOT
BRANCH   5   7
ATOM      7  O   UNL     1      10.119  -1.853  21.106  0.00  0.00    -0.386 OA
ATOM      8  H   UNL     1      10.083  -2.797  21.339  0.00  0.00    +0.210 HD
ENDBRANCH   5   7
BRANCH   6   9
ATOM      9  O   UNL     1       9.072   0.760  20.800  0.00  0.00    -0.386 OA
ATOM     10  H   UNL     1       9.100  -0.027  20.214  0.00  0.00    +0.210 HD
ENDBRANCH   6   9
BRANCH   4  11
ATOM     11  O   UNL     1       8.192  -2.901  22.983  0.00  0.00    -0.337 OA
BRANCH  11  12
ATOM     12  C   UNL     1       7.208  -3.764  22.442  0.00  0.00    +0.282 C 
ATOM     13  O   UNL     1       5.936  -3.122  22.372  0.00  0.00    -0.346 OA
ATOM     14  C   UNL     1       4.920  -3.967  22.913  0.00  0.00    +0.202 C 
ATOM     15  C   UNL     1       5.551  -5.341  23.062  0.00  0.00    +0.142 C 
ATOM     16  C   UNL     1       7.004  -4.982  23.355  0.00  0.00    +0.206 C 
BRANCH  16  17
ATOM     17  O   UNL     1       7.889  -6.066  23.068  0.00  0.00    -0.384 OA
ATOM     18  H   UNL     1       8.751  -5.671  22.835  0.00  0.00    +0.210 HD
ENDBRANCH  16  17
BRANCH  15  19
ATOM     19  O   UNL     1       5.506  -6.066  21.811  0.00  0.00    -0.381 OA
ATOM     20  H   UNL     1       6.367  -5.966  21.364  0.00  0.00    +0.210 HD
ENDBRANCH  15  19
BRANCH  15  21
ATOM     21  C   UNL     1       4.861  -6.172  24.141  0.00  0.00    +0.195 C 
BRANCH  21  22
ATOM     22  O   UNL     1       4.598  -7.508  23.720  0.00  0.00    -0.392 OA
ATOM     23  H   UNL     1       3.905  -7.469  23.034  0.00  0.00    +0.210 HD
ENDBRANCH  21  22
ENDBRANCH  15  21
ENDBRANCH  11  12
ENDBRANCH   4  11
BRANCH   3  24
ATOM     24  O   UNL     1       6.165  -0.597  23.921  0.00  0.00    -0.453 OA
BRANCH  24  25
ATOM     25  C   UNL     1       5.813  -0.101  25.192  0.00  0.00    +0.214 A 
ATOM     26  C   UNL     1       5.203   1.283  25.356  0.00  0.00    +0.238 A 
ATOM     27  O   UNL     1       4.672   1.912  24.460  0.00  0.00    -0.283 OA
ATOM     28  C   UNL     1       5.185   1.890  26.670  0.00  0.00    +0.109 A 
ATOM     29  C   UNL     1       5.409   1.057  27.752  0.00  0.00    +0.147 A 
ATOM     30  C   UNL     1       5.315   1.561  29.052  0.00  0.00    +0.092 A 
ATOM     31  C   UNL     1       4.982   2.901  29.241  0.00  0.00    +0.124 A 
ATOM     32  C   UNL     1       4.751   3.750  28.166  0.00  0.00    +0.091 A 
ATOM     33  O   UNL     1       5.695  -0.271  27.604  0.00  0.00    -0.451 OA
ATOM     34  C   UNL     1       4.860   3.244  26.880  0.00  0.00    +0.135 A 
ATOM     35  C   UNL     1       5.997  -0.808  26.343  0.00  0.00    +0.181 A 
BRANCH  35  36
ATOM     36  C   UNL     1       6.547  -2.210  26.490  0.00  0.00    +0.025 A 
ATOM     37  C   UNL     1       7.903  -2.563  26.350  0.00  0.00    +0.015 A 
ATOM     38  C   UNL     1       8.370  -3.854  26.665  0.00  0.00    +0.050 A 
ATOM     39  C   UNL     1       7.481  -4.816  27.108  0.00  0.00    +0.158 A 
ATOM     40  C   UNL     1       6.126  -4.538  27.149  0.00  0.00    +0.159 A 
ATOM     41  C   UNL     1       5.660  -3.258  26.847  0.00  0.00    +0.060 A 
BRANCH  39  42
ATOM     42  O   UNL     1       7.943  -6.035  27.509  0.00  0.00    -0.503 OA
ATOM     43  H   UNL     1       7.166  -6.480  27.903  0.00  0.00    +0.292 HD
ENDBRANCH  39  42
BRANCH  40  44
ATOM     44  O   UNL     1       5.278  -5.552  27.499  0.00  0.00    -0.503 OA
ATOM     45  H   UNL     1       4.538  -5.156  27.992  0.00  0.00    +0.292 HD
ENDBRANCH  40  44
ENDBRANCH  35  36
BRANCH  34  46
ATOM     46  O   UNL     1       4.669   4.099  25.829  0.00  0.00    -0.506 OA
ATOM     47  H   UNL     1       3.926   3.801  25.281  0.00  0.00    +0.292 HD
ENDBRANCH  34  46
BRANCH  31  48
ATOM     48  O   UNL     1       4.870   3.447  30.485  0.00  0.00    -0.507 OA
ATOM     49  H   UNL     1       5.721   3.825  30.741  0.00  0.00    +0.292 HD
ENDBRANCH  31  48
ENDBRANCH  24  25
ENDBRANCH   3  24
BRANCH   1  50
ATOM     50  C   UNL     1       9.262   2.631  23.220  0.00  0.00    +0.197 C 
BRANCH  50  51
ATOM     51  O   UNL     1       8.583   3.115  24.374  0.00  0.00    -0.346 OA
BRANCH  51  55
ATOM     52  C   UNL     1       4.878   4.593  22.641  0.00  0.00    +0.041 C 
ATOM     53  C   UNL     1       6.295   4.948  22.206  0.00  0.00    +0.149 C 
ATOM     54  O   UNL     1       7.257   3.991  22.665  0.00  0.00    -0.343 OA
ATOM     55  C   UNL     1       7.518   4.009  24.068  0.00  0.00    +0.282 C 
ATOM     56  C   UNL     1       7.984   5.395  24.565  0.00  0.00    +0.201 C 
ATOM     57  C   UNL     1       7.067   6.514  24.066  0.00  0.00    +0.179 C 
ATOM     58  C   UNL     1       6.769   6.363  22.570  0.00  0.00    +0.174 C 
BRANCH  56  59
ATOM     59  O   UNL     1       8.054   5.412  26.001  0.00  0.00    -0.384 OA
ATOM     60  H   UNL     1       8.000   6.337  26.299  0.00  0.00    +0.210 HD
ENDBRANCH  56  59
BRANCH  57  61
ATOM     61  O   UNL     1       5.866   6.579  24.850  0.00  0.00    -0.386 OA
ATOM     62  H   UNL     1       5.390   5.734  24.801  0.00  0.00    +0.210 HD
ENDBRANCH  57  61
BRANCH  58  63
ATOM     63  O   UNL     1       7.978   6.623  21.833  0.00  0.00    -0.387 OA
ATOM     64  H   UNL     1       8.331   5.762  21.530  0.00  0.00    +0.210 HD
ENDBRANCH  58  63
ENDBRANCH  51  55
ENDBRANCH  50  51
ENDBRANCH   1  50
TORSDOF 21
ENDMDL
MODEL 5
REMARK VINA RESULT:      -7.1      1.306      6.970
REMARK  Name = 
REMARK  22 active torsions:
REMARK  status: ('A' for Active; 'I' for Inactive)
REMARK    1  A    between atoms: C_1  and  C_2
REMARK    2  A    between atoms: C_4  and  O_64
REMARK    3  A    between atoms: C_6  and  O_63
REMARK    4  A    between atoms: C_8  and  O_62
REMARK    5  A    between atoms: C_10  and  O_13
REMARK    6  A    between atoms: O_13  and  C_14
REMARK    7  A    between atoms: C_14  and  C_15
REMARK    8  A    between atoms: C_17  and  O_61
REMARK    9  A    between atoms: C_19  and  O_60
REMARK   10  A    between atoms: C_21  and  O_48
REMARK   11  A    between atoms: C_23  and  O_26
REMARK   12  A    between atoms: O_26  and  C_27
REMARK   13  A    between atoms: C_28  and  C_40
REMARK   14  A    between atoms: C_32  and  O_39
REMARK   15  A    between atoms: C_34  and  O_38
REMARK   16  A    between atoms: C_42  and  O_47
REMARK   17  A    between atoms: C_43  and  O_46
REMARK   18  A    between atoms: O_48  and  C_49
REMARK   19  A    between atoms: C_51  and  O_59
REMARK   20  A    between atoms: C_53  and  C_56
REMARK   21  A    between atoms: C_53  and  O_58
REMARK   22  A    between atoms: C_56  and  O_57
REMARK                            x       y       z     vdW  Elec       q    Type
REMARK                         _______ _______ _______ _____ _____    ______ ____
ROOT
ATOM      1  C   UNL     1       5.870  -2.979  23.206  0.00  0.00    +0.179 C 
ATOM      2  O   UNL     1       6.534  -3.368  24.405  0.00  0.00    -0.331 OA
ATOM      3  C   UNL     1       7.589  -2.491  24.760  0.00  0.00    +0.340 C 
ATOM      4  C   UNL     1       8.741  -2.593  23.710  0.00  0.00    +0.221 C 
ATOM      5  C   UNL     1       8.098  -2.417  22.293  0.00  0.00    +0.180 C 
ATOM      6  C   UNL     1       6.851  -3.300  22.081  0.00  0.00    +0.177 C 
ENDROOT
BRANCH   5   7
ATOM      7  O   UNL     1       9.067  -2.654  21.257  0.00  0.00    -0.386 OA
ATOM      8  H   UNL     1       8.864  -2.046  20.525  0.00  0.00    +0.210 HD
ENDBRANCH   5   7
BRANCH   6   9
ATOM      9  O   UNL     1       7.262  -4.671  22.092  0.00  0.00    -0.386 OA
ATOM     10  H   UNL     1       7.190  -4.977  23.022  0.00  0.00    +0.210 HD
ENDBRANCH   6   9
BRANCH   4  11
ATOM     11  O   UNL     1       9.688  -1.501  23.830  0.00  0.00    -0.337 OA
BRANCH  11  12
ATOM     12  C   UNL     1       9.157  -0.225  23.522  0.00  0.00    +0.282 C 
ATOM     13  O   UNL     1       9.288   0.070  22.132  0.00  0.00    -0.346 OA
ATOM     14  C   UNL     1       9.831   1.378  21.948  0.00  0.00    +0.202 C 
ATOM     15  C   UNL     1       9.762   2.056  23.307  0.00  0.00    +0.142 C 
ATOM     16  C   UNL     1       9.945   0.873  24.252  0.00  0.00    +0.206 C 
BRANCH  16  17
ATOM     17  O   UNL     1       9.451   1.156  25.561  0.00  0.00    -0.384 OA
ATOM     18  H   UNL     1       9.726   2.069  25.774  0.00  0.00    +0.210 HD
ENDBRANCH  16  17
BRANCH  15  19
ATOM     19  O   UNL     1       8.450   2.620  23.532  0.00  0.00    -0.381 OA
ATOM     20  H   UNL     1       7.872   1.924  23.898  0.00  0.00    +0.210 HD
ENDBRANCH  15  19
BRANCH  15  21
ATOM     21  C   UNL     1      10.807   3.161  23.447  0.00  0.00    +0.195 C 
BRANCH  21  22
ATOM     22  O   UNL     1      10.233   4.465  23.410  0.00  0.00    -0.392 OA
ATOM     23  H   UNL     1       9.879   4.606  22.512  0.00  0.00    +0.210 HD
ENDBRANCH  21  22
ENDBRANCH  15  21
ENDBRANCH  11  12
ENDBRANCH   4  11
BRANCH   3  24
ATOM     24  O   UNL     1       7.882  -2.830  26.125  0.00  0.00    -0.453 OA
BRANCH  24  25
ATOM     25  C   UNL     1       6.757  -3.113  26.926  0.00  0.00    +0.214 A 
ATOM     26  C   UNL     1       6.484  -4.521  27.430  0.00  0.00    +0.238 A 
ATOM     27  O   UNL     1       7.318  -5.405  27.491  0.00  0.00    -0.283 OA
ATOM     28  C   UNL     1       5.166  -4.841  27.936  0.00  0.00    +0.109 A 
ATOM     29  C   UNL     1       4.336  -3.778  28.248  0.00  0.00    +0.147 A 
ATOM     30  C   UNL     1       3.085  -4.016  28.826  0.00  0.00    +0.092 A 
ATOM     31  C   UNL     1       2.696  -5.327  29.093  0.00  0.00    +0.124 A 
ATOM     32  C   UNL     1       3.518  -6.404  28.790  0.00  0.00    +0.091 A 
ATOM     33  O   UNL     1       4.703  -2.480  28.039  0.00  0.00    -0.451 OA
ATOM     34  C   UNL     1       4.751  -6.160  28.204  0.00  0.00    +0.135 A 
ATOM     35  C   UNL     1       5.849  -2.164  27.292  0.00  0.00    +0.181 A 
BRANCH  35  36
ATOM     36  C   UNL     1       5.873  -0.686  26.970  0.00  0.00    +0.025 A 
ATOM     37  C   UNL     1       6.468   0.305  27.774  0.00  0.00    +0.015 A 
ATOM     38  C   UNL     1       6.601   1.636  27.335  0.00  0.00    +0.050 A 
ATOM     39  C   UNL     1       6.122   1.999  26.089  0.00  0.00    +0.158 A 
ATOM     40  C   UNL     1       5.430   1.080  25.321  0.00  0.00    +0.159 A 
ATOM     41  C   UNL     1       5.304  -0.243  25.748  0.00  0.00    +0.060 A 
BRANCH  39  42
ATOM     42  O   UNL     1       6.337   3.261  25.620  0.00  0.00    -0.503 OA
ATOM     43  H   UNL     1       5.866   3.293  24.763  0.00  0.00    +0.292 HD
ENDBRANCH  39  42
BRANCH  40  44
ATOM     44  O   UNL     1       4.891   1.512  24.141  0.00  0.00    -0.503 OA
ATOM     45  H   UNL     1       5.628   1.761  23.557  0.00  0.00    +0.292 HD
ENDBRANCH  40  44
ENDBRANCH  35  36
BRANCH  34  46
ATOM     46  O   UNL     1       5.536  -7.231  27.874  0.00  0.00    -0.506 OA
ATOM     47  H   UNL     1       5.310  -7.555  26.988  0.00  0.00    +0.292 HD
ENDBRANCH  34  46
BRANCH  31  48
ATOM     48  O   UNL     1       1.492  -5.620  29.661  0.00  0.00    -0.507 OA
ATOM     49  H   UNL     1       1.641  -6.012  30.531  0.00  0.00    +0.292 HD
ENDBRANCH  31  48
ENDBRANCH  24  25
ENDBRANCH   3  24
BRANCH   1  50
ATOM     50  C   UNL     1       4.555  -3.749  23.193  0.00  0.00    +0.197 C 
BRANCH  50  51
ATOM     51  O   UNL     1       4.793  -5.032  22.624  0.00  0.00    -0.346 OA
BRANCH  51  55
ATOM     52  C   UNL     1       1.445  -7.804  22.469  0.00  0.00    +0.041 C 
ATOM     53  C   UNL     1       1.487  -6.461  23.189  0.00  0.00    +0.149 C 
ATOM     54  O   UNL     1       2.535  -5.617  22.700  0.00  0.00    -0.343 OA
ATOM     55  C   UNL     1       3.859  -6.019  23.048  0.00  0.00    +0.282 C 
ATOM     56  C   UNL     1       4.056  -6.148  24.574  0.00  0.00    +0.201 C 
ATOM     57  C   UNL     1       2.941  -6.972  25.222  0.00  0.00    +0.179 C 
ATOM     58  C   UNL     1       1.561  -6.531  24.722  0.00  0.00    +0.174 C 
BRANCH  56  59
ATOM     59  O   UNL     1       5.338  -6.731  24.864  0.00  0.00    -0.384 OA
ATOM     60  H   UNL     1       5.672  -7.156  24.054  0.00  0.00    +0.210 HD
ENDBRANCH  56  59
BRANCH  57  61
ATOM     61  O   UNL     1       3.161  -8.378  25.024  0.00  0.00    -0.386 OA
ATOM     62  H   UNL     1       3.162  -8.838  25.879  0.00  0.00    +0.210 HD
ENDBRANCH  57  61
BRANCH  58  63
ATOM     63  O   UNL     1       1.288  -5.213  25.234  0.00  0.00    -0.387 OA
ATOM     64  H   UNL     1       1.592  -4.567  24.565  0.00  0.00    +0.210 HD
ENDBRANCH  58  63
ENDBRANCH  51  55
ENDBRANCH  50  51
ENDBRANCH   1  50
TORSDOF 21
ENDMDL
MODEL 6
REMARK VINA RESULT:      -7.0      2.157      4.202
REMARK  Name = 
REMARK  22 active torsions:
REMARK  status: ('A' for Active; 'I' for Inactive)
REMARK    1  A    between atoms: C_1  and  C_2
REMARK    2  A    between atoms: C_4  and  O_64
REMARK    3  A    between atoms: C_6  and  O_63
REMARK    4  A    between atoms: C_8  and  O_62
REMARK    5  A    between atoms: C_10  and  O_13
REMARK    6  A    between atoms: O_13  and  C_14
REMARK    7  A    between atoms: C_14  and  C_15
REMARK    8  A    between atoms: C_17  and  O_61
REMARK    9  A    between atoms: C_19  and  O_60
REMARK   10  A    between atoms: C_21  and  O_48
REMARK   11  A    between atoms: C_23  and  O_26
REMARK   12  A    between atoms: O_26  and  C_27
REMARK   13  A    between atoms: C_28  and  C_40
REMARK   14  A    between atoms: C_32  and  O_39
REMARK   15  A    between atoms: C_34  and  O_38
REMARK   16  A    between atoms: C_42  and  O_47
REMARK   17  A    between atoms: C_43  and  O_46
REMARK   18  A    between atoms: O_48  and  C_49
REMARK   19  A    between atoms: C_51  and  O_59
REMARK   20  A    between atoms: C_53  and  C_56
REMARK   21  A    between atoms: C_53  and  O_58
REMARK   22  A    between atoms: C_56  and  O_57
REMARK                            x       y       z     vdW  Elec       q    Type
REMARK                         _______ _______ _______ _____ _____    ______ ____
ROOT
ATOM      1  C   UNL     1       9.886   0.782  24.080  0.00  0.00    +0.179 C 
ATOM      2  O   UNL     1       9.151   0.224  25.166  0.00  0.00    -0.331 OA
ATOM      3  C   UNL     1       9.260  -1.188  25.237  0.00  0.00    +0.340 C 
ATOM      4  C   UNL     1       8.552  -1.838  24.006  0.00  0.00    +0.221 C 
ATOM      5  C   UNL     1       9.106  -1.132  22.722  0.00  0.00    +0.180 C 
ATOM      6  C   UNL     1       9.098   0.407  22.827  0.00  0.00    +0.177 C 
ENDROOT
BRANCH   5   7
ATOM      7  O   UNL     1       8.391  -1.562  21.551  0.00  0.00    -0.386 OA
ATOM      8  H   UNL     1       8.741  -1.059  20.796  0.00  0.00    +0.210 HD
ENDBRANCH   5   7
BRANCH   6   9
ATOM      9  O   UNL     1       7.737   0.847  22.888  0.00  0.00    -0.386 OA
ATOM     10  H   UNL     1       7.649   1.369  23.716  0.00  0.00    +0.210 HD
ENDBRANCH   6   9
BRANCH   4  11
ATOM     11  O   UNL     1       8.905  -3.235  23.847  0.00  0.00    -0.337 OA
BRANCH  11  12
ATOM     12  C   UNL     1       7.800  -4.109  23.708  0.00  0.00    +0.282 C 
ATOM     13  O   UNL     1       8.211  -5.475  23.743  0.00  0.00    -0.346 OA
ATOM     14  C   UNL     1       7.620  -6.201  22.664  0.00  0.00    +0.202 C 
ATOM     15  C   UNL     1       6.540  -5.299  22.092  0.00  0.00    +0.142 C 
ATOM     16  C   UNL     1       7.132  -3.915  22.339  0.00  0.00    +0.206 C 
BRANCH  16  17
ATOM     17  O   UNL     1       6.129  -2.898  22.331  0.00  0.00    -0.384 OA
ATOM     18  H   UNL     1       6.570  -2.069  22.061  0.00  0.00    +0.210 HD
ENDBRANCH  16  17
BRANCH  15  19
ATOM     19  O   UNL     1       5.317  -5.414  22.854  0.00  0.00    -0.381 OA
ATOM     20  H   UNL     1       4.564  -5.220  22.264  0.00  0.00    +0.210 HD
ENDBRANCH  15  19
BRANCH  15  21
ATOM     21  C   UNL     1       6.244  -5.621  20.629  0.00  0.00    +0.195 C 
BRANCH  21  22
ATOM     22  O   UNL     1       5.815  -4.480  19.892  0.00  0.00    -0.392 OA
ATOM     23  H   UNL     1       5.309  -4.799  19.121  0.00  0.00    +0.210 HD
ENDBRANCH  21  22
ENDBRANCH  15  21
ENDBRANCH  11  12
ENDBRANCH   4  11
BRANCH   3  24
ATOM     24  O   UNL     1       8.773  -1.511  26.549  0.00  0.00    -0.453 OA
BRANCH  24  25
ATOM     25  C   UNL     1       7.455  -2.007  26.593  0.00  0.00    +0.214 A 
ATOM     26  C   UNL     1       7.177  -3.500  26.685  0.00  0.00    +0.238 A 
ATOM     27  O   UNL     1       7.987  -4.329  27.057  0.00  0.00    -0.283 OA
ATOM     28  C   UNL     1       5.850  -3.987  26.374  0.00  0.00    +0.109 A 
ATOM     29  C   UNL     1       4.828  -3.054  26.341  0.00  0.00    +0.147 A 
ATOM     30  C   UNL     1       3.509  -3.470  26.137  0.00  0.00    +0.092 A 
ATOM     31  C   UNL     1       3.240  -4.828  25.982  0.00  0.00    +0.124 A 
ATOM     32  C   UNL     1       4.253  -5.778  26.017  0.00  0.00    +0.091 A 
ATOM     33  O   UNL     1       5.052  -1.720  26.532  0.00  0.00    -0.451 OA
ATOM     34  C   UNL     1       5.559  -5.354  26.205  0.00  0.00    +0.135 A 
ATOM     35  C   UNL     1       6.356  -1.201  26.548  0.00  0.00    +0.181 A 
BRANCH  35  36
ATOM     36  C   UNL     1       6.318   0.310  26.488  0.00  0.00    +0.025 A 
ATOM     37  C   UNL     1       5.633   1.062  25.515  0.00  0.00    +0.015 A 
ATOM     38  C   UNL     1       5.501   2.461  25.614  0.00  0.00    +0.050 A 
ATOM     39  C   UNL     1       6.069   3.130  26.683  0.00  0.00    +0.158 A 
ATOM     40  C   UNL     1       6.845   2.438  27.597  0.00  0.00    +0.159 A 
ATOM     41  C   UNL     1       6.971   1.051  27.507  0.00  0.00    +0.060 A 
BRANCH  39  42
ATOM     42  O   UNL     1       5.858   4.468  26.837  0.00  0.00    -0.503 OA
ATOM     43  H   UNL     1       5.536   4.566  27.756  0.00  0.00    +0.292 HD
ENDBRANCH  39  42
BRANCH  40  44
ATOM     44  O   UNL     1       7.466   3.158  28.580  0.00  0.00    -0.503 OA
ATOM     45  H   UNL     1       8.327   3.445  28.230  0.00  0.00    +0.292 HD
ENDBRANCH  40  44
ENDBRANCH  35  36
BRANCH  34  46
ATOM     46  O   UNL     1       6.554  -6.295  26.198  0.00  0.00    -0.506 OA
ATOM     47  H   UNL     1       7.409  -5.881  26.004  0.00  0.00    +0.292 HD
ENDBRANCH  34  46
BRANCH  31  48
ATOM     48  O   UNL     1       1.974  -5.294  25.787  0.00  0.00    -0.507 OA
ATOM     49  H   UNL     1       1.666  -5.013  24.916  0.00  0.00    +0.292 HD
ENDBRANCH  31  48
ENDBRANCH  24  25
ENDBRANCH   3  24
BRANCH   1  50
ATOM     50  C   UNL     1      10.003   2.270  24.382  0.00  0.00    +0.197 C 
BRANCH  50  51
ATOM     51  O   UNL     1       8.690   2.813  24.476  0.00  0.00    -0.346 OA
BRANCH  51  55
ATOM     52  C   UNL     1       9.377   7.108  24.460  0.00  0.00    +0.041 C 
ATOM     53  C   UNL     1       8.105   6.388  24.893  0.00  0.00    +0.149 C 
ATOM     54  O   UNL     1       8.340   5.008  25.192  0.00  0.00    -0.343 OA
ATOM     55  C   UNL     1       8.612   4.174  24.065  0.00  0.00    +0.282 C 
ATOM     56  C   UNL     1       7.488   4.224  23.007  0.00  0.00    +0.201 C 
ATOM     57  C   UNL     1       7.096   5.663  22.664  0.00  0.00    +0.179 C 
ATOM     58  C   UNL     1       6.913   6.507  23.931  0.00  0.00    +0.174 C 
BRANCH  56  59
ATOM     59  O   UNL     1       7.891   3.521  21.819  0.00  0.00    -0.384 OA
ATOM     60  H   UNL     1       7.633   4.054  21.046  0.00  0.00    +0.210 HD
ENDBRANCH  56  59
BRANCH  57  61
ATOM     61  O   UNL     1       8.045   6.250  21.759  0.00  0.00    -0.386 OA
ATOM     62  H   UNL     1       8.056   5.756  20.923  0.00  0.00    +0.210 HD
ENDBRANCH  57  61
BRANCH  58  63
ATOM     63  O   UNL     1       5.741   6.041  24.625  0.00  0.00    -0.387 OA
ATOM     64  H   UNL     1       5.079   6.760  24.604  0.00  0.00    +0.210 HD
ENDBRANCH  58  63
ENDBRANCH  51  55
ENDBRANCH  50  51
ENDBRANCH   1  50
TORSDOF 21
ENDMDL
MODEL 7
REMARK VINA RESULT:      -6.9      1.948      6.385
REMARK  Name = 
REMARK  22 active torsions:
REMARK  status: ('A' for Active; 'I' for Inactive)
REMARK    1  A    between atoms: C_1  and  C_2
REMARK    2  A    between atoms: C_4  and  O_64
REMARK    3  A    between atoms: C_6  and  O_63
REMARK    4  A    between atoms: C_8  and  O_62
REMARK    5  A    between atoms: C_10  and  O_13
REMARK    6  A    between atoms: O_13  and  C_14
REMARK    7  A    between atoms: C_14  and  C_15
REMARK    8  A    between atoms: C_17  and  O_61
REMARK    9  A    between atoms: C_19  and  O_60
REMARK   10  A    between atoms: C_21  and  O_48
REMARK   11  A    between atoms: C_23  and  O_26
REMARK   12  A    between atoms: O_26  and  C_27
REMARK   13  A    between atoms: C_28  and  C_40
REMARK   14  A    between atoms: C_32  and  O_39
REMARK   15  A    between atoms: C_34  and  O_38
REMARK   16  A    between atoms: C_42  and  O_47
REMARK   17  A    between atoms: C_43  and  O_46
REMARK   18  A    between atoms: O_48  and  C_49
REMARK   19  A    between atoms: C_51  and  O_59
REMARK   20  A    between atoms: C_53  and  C_56
REMARK   21  A    between atoms: C_53  and  O_58
REMARK   22  A    between atoms: C_56  and  O_57
REMARK                            x       y       z     vdW  Elec       q    Type
REMARK                         _______ _______ _______ _____ _____    ______ ____
ROOT
ATOM      1  C   UNL     1       4.182   0.276  26.404  0.00  0.00    +0.179 C 
ATOM      2  O   UNL     1       5.076  -0.749  26.827  0.00  0.00    -0.331 OA
ATOM      3  C   UNL     1       4.449  -2.016  26.936  0.00  0.00    +0.340 C 
ATOM      4  C   UNL     1       3.411  -1.996  28.103  0.00  0.00    +0.221 C 
ATOM      5  C   UNL     1       2.490  -0.748  27.888  0.00  0.00    +0.180 C 
ATOM      6  C   UNL     1       3.282   0.546  27.607  0.00  0.00    +0.177 C 
ENDROOT
BRANCH   5   7
ATOM      7  O   UNL     1       1.604  -0.565  29.006  0.00  0.00    -0.386 OA
ATOM      8  H   UNL     1       0.694  -0.582  28.661  0.00  0.00    +0.210 HD
ENDBRANCH   5   7
BRANCH   6   9
ATOM      9  O   UNL     1       4.028   0.882  28.781  0.00  0.00    -0.386 OA
ATOM     10  H   UNL     1       4.960   1.006  28.494  0.00  0.00    +0.210 HD
ENDBRANCH   6   9
BRANCH   4  11
ATOM     11  O   UNL     1       2.515  -3.135  28.056  0.00  0.00    -0.337 OA
BRANCH  11  12
ATOM     12  C   UNL     1       2.754  -4.113  29.052  0.00  0.00    +0.282 C 
ATOM     13  O   UNL     1       3.592  -3.606  30.088  0.00  0.00    -0.346 OA
ATOM     14  C   UNL     1       4.647  -4.526  30.373  0.00  0.00    +0.202 C 
ATOM     15  C   UNL     1       4.273  -5.822  29.674  0.00  0.00    +0.142 C 
ATOM     16  C   UNL     1       3.514  -5.308  28.455  0.00  0.00    +0.206 C 
BRANCH  16  17
ATOM     17  O   UNL     1       2.660  -6.308  27.899  0.00  0.00    -0.384 OA
ATOM     18  H   UNL     1       2.352  -5.968  27.037  0.00  0.00    +0.210 HD
ENDBRANCH  16  17
BRANCH  15  19
ATOM     19  O   UNL     1       3.360  -6.598  30.485  0.00  0.00    -0.381 OA
ATOM     20  H   UNL     1       2.596  -6.037  30.714  0.00  0.00    +0.210 HD
ENDBRANCH  15  19
BRANCH  15  21
ATOM     21  C   UNL     1       5.500  -6.674  29.357  0.00  0.00    +0.195 C 
BRANCH  21  22
ATOM     22  O   UNL     1       5.283  -7.563  28.265  0.00  0.00    -0.392 OA
ATOM     23  H   UNL     1       4.451  -8.042  28.436  0.00  0.00    +0.210 HD
ENDBRANCH  21  22
ENDBRANCH  15  21
ENDBRANCH  11  12
ENDBRANCH   4  11
BRANCH   3  24
ATOM     24  O   UNL     1       5.543  -2.943  27.016  0.00  0.00    -0.453 OA
BRANCH  24  25
ATOM     25  C   UNL     1       6.450  -2.893  25.938  0.00  0.00    +0.214 A 
ATOM     26  C   UNL     1       7.690  -2.014  25.991  0.00  0.00    +0.238 A 
ATOM     27  O   UNL     1       8.177  -1.573  27.015  0.00  0.00    -0.283 OA
ATOM     28  C   UNL     1       8.392  -1.717  24.761  0.00  0.00    +0.109 A 
ATOM     29  C   UNL     1       8.106  -2.511  23.665  0.00  0.00    +0.147 A 
ATOM     30  C   UNL     1       8.815  -2.337  22.472  0.00  0.00    +0.092 A 
ATOM     31  C   UNL     1       9.814  -1.369  22.410  0.00  0.00    +0.124 A 
ATOM     32  C   UNL     1      10.117  -0.565  23.501  0.00  0.00    +0.091 A 
ATOM     33  O   UNL     1       7.163  -3.498  23.705  0.00  0.00    -0.451 OA
ATOM     34  C   UNL     1       9.399  -0.736  24.675  0.00  0.00    +0.135 A 
ATOM     35  C   UNL     1       6.279  -3.609  24.790  0.00  0.00    +0.181 A 
BRANCH  35  36
ATOM     36  C   UNL     1       5.169  -4.584  24.464  0.00  0.00    +0.025 A 
ATOM     37  C   UNL     1       4.267  -4.450  23.391  0.00  0.00    +0.015 A 
ATOM     38  C   UNL     1       3.368  -5.477  23.044  0.00  0.00    +0.050 A 
ATOM     39  C   UNL     1       3.346  -6.648  23.780  0.00  0.00    +0.158 A 
ATOM     40  C   UNL     1       4.138  -6.769  24.908  0.00  0.00    +0.159 A 
ATOM     41  C   UNL     1       5.037  -5.758  25.250  0.00  0.00    +0.060 A 
BRANCH  39  42
ATOM     42  O   UNL     1       2.549  -7.682  23.387  0.00  0.00    -0.503 OA
ATOM     43  H   UNL     1       3.043  -8.118  22.664  0.00  0.00    +0.292 HD
ENDBRANCH  39  42
BRANCH  40  44
ATOM     44  O   UNL     1       4.009  -7.905  25.658  0.00  0.00    -0.503 OA
ATOM     45  H   UNL     1       3.070  -8.160  25.643  0.00  0.00    +0.292 HD
ENDBRANCH  40  44
ENDBRANCH  35  36
BRANCH  34  46
ATOM     46  O   UNL     1       9.679   0.088  25.732  0.00  0.00    -0.506 OA
ATOM     47  H   UNL     1       9.892  -0.434  26.521  0.00  0.00    +0.292 HD
ENDBRANCH  34  46
BRANCH  31  48
ATOM     48  O   UNL     1      10.543  -1.157  21.277  0.00  0.00    -0.507 OA
ATOM     49  H   UNL     1      11.415  -0.821  21.521  0.00  0.00    +0.292 HD
ENDBRANCH  31  48
ENDBRANCH  24  25
ENDBRANCH   3  24
BRANCH   1  50
ATOM     50  C   UNL     1       5.065   1.432  25.950  0.00  0.00    +0.197 C 
BRANCH  50  51
ATOM     51  O   UNL     1       5.412   1.221  24.584  0.00  0.00    -0.346 OA
BRANCH  51  55
ATOM     52  C   UNL     1       8.676   4.090  24.751  0.00  0.00    +0.041 C 
ATOM     53  C   UNL     1       7.296   4.311  24.142  0.00  0.00    +0.149 C 
ATOM     54  O   UNL     1       6.335   3.364  24.623  0.00  0.00    -0.343 OA
ATOM     55  C   UNL     1       6.500   2.028  24.148  0.00  0.00    +0.282 C 
ATOM     56  C   UNL     1       6.490   1.943  22.607  0.00  0.00    +0.201 C 
ATOM     57  C   UNL     1       7.431   2.971  21.975  0.00  0.00    +0.179 C 
ATOM     58  C   UNL     1       7.246   4.356  22.608  0.00  0.00    +0.174 C 
BRANCH  56  59
ATOM     59  O   UNL     1       6.844   0.616  22.179  0.00  0.00    -0.384 OA
ATOM     60  H   UNL     1       6.894   0.044  22.965  0.00  0.00    +0.210 HD
ENDBRANCH  56  59
BRANCH  57  61
ATOM     61  O   UNL     1       8.795   2.527  22.041  0.00  0.00    -0.386 OA
ATOM     62  H   UNL     1       9.389   3.290  22.126  0.00  0.00    +0.210 HD
ENDBRANCH  57  61
BRANCH  58  63
ATOM     63  O   UNL     1       5.955   4.865  22.226  0.00  0.00    -0.387 OA
ATOM     64  H   UNL     1       5.277   4.291  22.637  0.00  0.00    +0.210 HD
ENDBRANCH  58  63
ENDBRANCH  51  55
ENDBRANCH  50  51
ENDBRANCH   1  50
TORSDOF 21
ENDMDL
MODEL 8
REMARK VINA RESULT:      -6.9      2.027      4.610
REMARK  Name = 
REMARK  22 active torsions:
REMARK  status: ('A' for Active; 'I' for Inactive)
REMARK    1  A    between atoms: C_1  and  C_2
REMARK    2  A    between atoms: C_4  and  O_64
REMARK    3  A    between atoms: C_6  and  O_63
REMARK    4  A    between atoms: C_8  and  O_62
REMARK    5  A    between atoms: C_10  and  O_13
REMARK    6  A    between atoms: O_13  and  C_14
REMARK    7  A    between atoms: C_14  and  C_15
REMARK    8  A    between atoms: C_17  and  O_61
REMARK    9  A    between atoms: C_19  and  O_60
REMARK   10  A    between atoms: C_21  and  O_48
REMARK   11  A    between atoms: C_23  and  O_26
REMARK   12  A    between atoms: O_26  and  C_27
REMARK   13  A    between atoms: C_28  and  C_40
REMARK   14  A    between atoms: C_32  and  O_39
REMARK   15  A    between atoms: C_34  and  O_38
REMARK   16  A    between atoms: C_42  and  O_47
REMARK   17  A    between atoms: C_43  and  O_46
REMARK   18  A    between atoms: O_48  and  C_49
REMARK   19  A    between atoms: C_51  and  O_59
REMARK   20  A    between atoms: C_53  and  C_56
REMARK   21  A    between atoms: C_53  and  O_58
REMARK   22  A    between atoms: C_56  and  O_57
REMARK                            x       y       z     vdW  Elec       q    Type
REMARK                         _______ _______ _______ _____ _____    ______ ____
ROOT
ATOM      1  C   UNL     1       9.174   0.431  24.652  0.00  0.00    +0.179 C 
ATOM      2  O   UNL     1       7.904   0.252  24.031  0.00  0.00    -0.331 OA
ATOM      3  C   UNL     1       7.500  -1.106  23.986  0.00  0.00    +0.340 C 
ATOM      4  C   UNL     1       8.439  -1.909  23.031  0.00  0.00    +0.221 C 
ATOM      5  C   UNL     1       9.913  -1.607  23.462  0.00  0.00    +0.180 C 
ATOM      6  C   UNL     1      10.192  -0.100  23.646  0.00  0.00    +0.177 C 
ENDROOT
BRANCH   5   7
ATOM      7  O   UNL     1      10.848  -2.183  22.533  0.00  0.00    -0.386 OA
ATOM      8  H   UNL     1      10.711  -3.146  22.543  0.00  0.00    +0.210 HD
ENDBRANCH   5   7
BRANCH   6   9
ATOM      9  O   UNL     1      10.080   0.538  22.370  0.00  0.00    -0.386 OA
ATOM     10  H   UNL     1      10.960   0.928  22.174  0.00  0.00    +0.210 HD
ENDBRANCH   6   9
BRANCH   4  11
ATOM     11  O   UNL     1       8.288  -3.342  23.193  0.00  0.00    -0.337 OA
BRANCH  11  12
ATOM     12  C   UNL     1       8.936  -3.876  24.334  0.00  0.00    +0.282 C 
ATOM     13  O   UNL     1       9.298  -5.241  24.134  0.00  0.00    -0.346 OA
ATOM     14  C   UNL     1       8.894  -6.034  25.251  0.00  0.00    +0.202 C 
ATOM     15  C   UNL     1       8.519  -5.052  26.348  0.00  0.00    +0.142 C 
ATOM     16  C   UNL     1       7.983  -3.875  25.539  0.00  0.00    +0.206 C 
BRANCH  16  17
ATOM     17  O   UNL     1       8.009  -2.659  26.287  0.00  0.00    -0.384 OA
ATOM     18  H   UNL     1       8.678  -2.084  25.867  0.00  0.00    +0.210 HD
ENDBRANCH  16  17
BRANCH  15  19
ATOM     19  O   UNL     1       9.693  -4.612  27.069  0.00  0.00    -0.381 OA
ATOM     20  H   UNL     1       9.412  -4.263  27.935  0.00  0.00    +0.210 HD
ENDBRANCH  15  19
BRANCH  15  21
ATOM     21  C   UNL     1       7.527  -5.657  27.340  0.00  0.00    +0.195 C 
BRANCH  21  22
ATOM     22  O   UNL     1       6.648  -4.684  27.898  0.00  0.00    -0.392 OA
ATOM     23  H   UNL     1       6.901  -4.560  28.832  0.00  0.00    +0.210 HD
ENDBRANCH  21  22
ENDBRANCH  15  21
ENDBRANCH  11  12
ENDBRANCH   4  11
BRANCH   3  24
ATOM     24  O   UNL     1       6.100  -1.045  23.669  0.00  0.00    -0.453 OA
BRANCH  24  25
ATOM     25  C   UNL     1       5.264  -1.815  24.502  0.00  0.00    +0.214 A 
ATOM     26  C   UNL     1       4.714  -3.156  24.042  0.00  0.00    +0.238 A 
ATOM     27  O   UNL     1       5.180  -3.816  23.132  0.00  0.00    -0.283 OA
ATOM     28  C   UNL     1       3.599  -3.739  24.758  0.00  0.00    +0.109 A 
ATOM     29  C   UNL     1       3.315  -3.223  26.011  0.00  0.00    +0.147 A 
ATOM     30  C   UNL     1       2.310  -3.801  26.793  0.00  0.00    +0.092 A 
ATOM     31  C   UNL     1       1.615  -4.904  26.302  0.00  0.00    +0.124 A 
ATOM     32  C   UNL     1       1.890  -5.437  25.049  0.00  0.00    +0.091 A 
ATOM     33  O   UNL     1       4.006  -2.170  26.540  0.00  0.00    -0.451 OA
ATOM     34  C   UNL     1       2.878  -4.848  24.275  0.00  0.00    +0.135 A 
ATOM     35  C   UNL     1       4.889  -1.416  25.751  0.00  0.00    +0.181 A 
BRANCH  35  36
ATOM     36  C   UNL     1       5.299  -0.158  26.483  0.00  0.00    +0.025 A 
ATOM     37  C   UNL     1       6.412  -0.048  27.340  0.00  0.00    +0.015 A 
ATOM     38  C   UNL     1       6.833   1.192  27.856  0.00  0.00    +0.050 A 
ATOM     39  C   UNL     1       6.134   2.342  27.535  0.00  0.00    +0.158 A 
ATOM     40  C   UNL     1       4.971   2.257  26.790  0.00  0.00    +0.159 A 
ATOM     41  C   UNL     1       4.555   1.031  26.269  0.00  0.00    +0.060 A 
BRANCH  39  42
ATOM     42  O   UNL     1       6.596   3.556  27.950  0.00  0.00    -0.503 OA
ATOM     43  H   UNL     1       6.234   4.195  27.303  0.00  0.00    +0.292 HD
ENDBRANCH  39  42
BRANCH  40  44
ATOM     44  O   UNL     1       4.262   3.408  26.582  0.00  0.00    -0.503 OA
ATOM     45  H   UNL     1       3.917   3.378  25.673  0.00  0.00    +0.292 HD
ENDBRANCH  40  44
ENDBRANCH  35  36
BRANCH  34  46
ATOM     46  O   UNL     1       3.112  -5.357  23.026  0.00  0.00    -0.506 OA
ATOM     47  H   UNL     1       2.386  -5.940  22.756  0.00  0.00    +0.292 HD
ENDBRANCH  34  46
BRANCH  31  48
ATOM     48  O   UNL     1       0.630  -5.513  27.021  0.00  0.00    -0.507 OA
ATOM     49  H   UNL     1       0.801  -5.384  27.963  0.00  0.00    +0.292 HD
ENDBRANCH  31  48
ENDBRANCH  24  25
ENDBRANCH   3  24
BRANCH   1  50
ATOM     50  C   UNL     1       9.265   1.915  24.984  0.00  0.00    +0.197 C 
BRANCH  50  51
ATOM     51  O   UNL     1       9.912   2.577  23.900  0.00  0.00    -0.346 OA
BRANCH  51  55
ATOM     52  C   UNL     1       9.225   6.871  23.859  0.00  0.00    +0.041 C 
ATOM     53  C   UNL     1       8.388   5.819  24.577  0.00  0.00    +0.149 C 
ATOM     54  O   UNL     1       9.102   4.591  24.758  0.00  0.00    -0.343 OA
ATOM     55  C   UNL     1       9.319   3.829  23.571  0.00  0.00    +0.282 C 
ATOM     56  C   UNL     1       8.004   3.486  22.838  0.00  0.00    +0.201 C 
ATOM     57  C   UNL     1       7.117   4.720  22.657  0.00  0.00    +0.179 C 
ATOM     58  C   UNL     1       7.013   5.525  23.958  0.00  0.00    +0.174 C 
BRANCH  56  59
ATOM     59  O   UNL     1       8.286   2.885  21.563  0.00  0.00    -0.384 OA
ATOM     60  H   UNL     1       7.576   2.250  21.359  0.00  0.00    +0.210 HD
ENDBRANCH  56  59
BRANCH  57  61
ATOM     61  O   UNL     1       7.578   5.525  21.561  0.00  0.00    -0.386 OA
ATOM     62  H   UNL     1       6.846   5.698  20.945  0.00  0.00    +0.210 HD
ENDBRANCH  57  61
BRANCH  58  63
ATOM     63  O   UNL     1       6.257   4.757  24.913  0.00  0.00    -0.387 OA
ATOM     64  H   UNL     1       6.710   3.897  25.025  0.00  0.00    +0.210 HD
ENDBRANCH  58  63
ENDBRANCH  51  55
ENDBRANCH  50  51
ENDBRANCH   1  50
TORSDOF 21
ENDMDL
MODEL 9
REMARK VINA RESULT:      -6.8      2.330      8.972
REMARK  Name = 
REMARK  22 active torsions:
REMARK  status: ('A' for Active; 'I' for Inactive)
REMARK    1  A    between atoms: C_1  and  C_2
REMARK    2  A    between atoms: C_4  and  O_64
REMARK    3  A    between atoms: C_6  and  O_63
REMARK    4  A    between atoms: C_8  and  O_62
REMARK    5  A    between atoms: C_10  and  O_13
REMARK    6  A    between atoms: O_13  and  C_14
REMARK    7  A    between atoms: C_14  and  C_15
REMARK    8  A    between atoms: C_17  and  O_61
REMARK    9  A    between atoms: C_19  and  O_60
REMARK   10  A    between atoms: C_21  and  O_48
REMARK   11  A    between atoms: C_23  and  O_26
REMARK   12  A    between atoms: O_26  and  C_27
REMARK   13  A    between atoms: C_28  and  C_40
REMARK   14  A    between atoms: C_32  and  O_39
REMARK   15  A    between atoms: C_34  and  O_38
REMARK   16  A    between atoms: C_42  and  O_47
REMARK   17  A    between atoms: C_43  and  O_46
REMARK   18  A    between atoms: O_48  and  C_49
REMARK   19  A    between atoms: C_51  and  O_59
REMARK   20  A    between atoms: C_53  and  C_56
REMARK   21  A    between atoms: C_53  and  O_58
REMARK   22  A    between atoms: C_56  and  O_57
REMARK                            x       y       z     vdW  Elec       q    Type
REMARK                         _______ _______ _______ _____ _____    ______ ____
ROOT
ATOM      1  C   UNL     1       5.337  -2.251  27.522  0.00  0.00    +0.179 C 
ATOM      2  O   UNL     1       5.203  -1.613  26.256  0.00  0.00    -0.331 OA
ATOM      3  C   UNL     1       5.304  -0.201  26.338  0.00  0.00    +0.340 C 
ATOM      4  C   UNL     1       4.079   0.375  27.117  0.00  0.00    +0.221 C 
ATOM      5  C   UNL     1       3.962  -0.422  28.459  0.00  0.00    +0.180 C 
ATOM      6  C   UNL     1       4.037  -1.950  28.264  0.00  0.00    +0.177 C 
ENDROOT
BRANCH   5   7
ATOM      7  O   UNL     1       2.764  -0.062  29.168  0.00  0.00    -0.386 OA
ATOM      8  H   UNL     1       2.803  -0.489  30.042  0.00  0.00    +0.210 HD
ENDBRANCH   5   7
BRANCH   6   9
ATOM      9  O   UNL     1       2.882  -2.368  27.528  0.00  0.00    -0.386 OA
ATOM     10  H   UNL     1       2.321  -1.570  27.411  0.00  0.00    +0.210 HD
ENDBRANCH   6   9
BRANCH   4  11
ATOM     11  O   UNL     1       4.284   1.753  27.516  0.00  0.00    -0.337 OA
BRANCH  11  12
ATOM     12  C   UNL     1       3.214   2.624  27.197  0.00  0.00    +0.282 C 
ATOM     13  O   UNL     1       1.954   1.967  27.322  0.00  0.00    -0.346 OA
ATOM     14  C   UNL     1       1.150   2.204  26.166  0.00  0.00    +0.202 C 
ATOM     15  C   UNL     1       1.836   3.322  25.399  0.00  0.00    +0.142 C 
ATOM     16  C   UNL     1       3.304   3.066  25.728  0.00  0.00    +0.206 C 
BRANCH  16  17
ATOM     17  O   UNL     1       4.105   4.231  25.530  0.00  0.00    -0.384 OA
ATOM     18  H   UNL     1       3.750   4.921  26.123  0.00  0.00    +0.210 HD
ENDBRANCH  16  17
BRANCH  15  19
ATOM     19  O   UNL     1       1.469   4.614  25.935  0.00  0.00    -0.381 OA
ATOM     20  H   UNL     1       2.284   5.125  26.098  0.00  0.00    +0.210 HD
ENDBRANCH  15  19
BRANCH  15  21
ATOM     21  C   UNL     1       1.494   3.288  23.911  0.00  0.00    +0.195 C 
BRANCH  21  22
ATOM     22  O   UNL     1       2.201   4.273  23.163  0.00  0.00    -0.392 OA
ATOM     23  H   UNL     1       2.172   5.105  23.670  0.00  0.00    +0.210 HD
ENDBRANCH  21  22
ENDBRANCH  15  21
ENDBRANCH  11  12
ENDBRANCH   4  11
BRANCH   3  24
ATOM     24  O   UNL     1       5.501   0.216  24.977  0.00  0.00    -0.453 OA
BRANCH  24  25
ATOM     25  C   UNL     1       6.780   0.733  24.689  0.00  0.00    +0.214 A 
ATOM     26  C   UNL     1       7.151   2.163  25.051  0.00  0.00    +0.238 A 
ATOM     27  O   UNL     1       6.562   2.840  25.873  0.00  0.00    -0.283 OA
ATOM     28  C   UNL     1       8.317   2.761  24.436  0.00  0.00    +0.109 A 
ATOM     29  C   UNL     1       9.215   1.906  23.822  0.00  0.00    +0.147 A 
ATOM     30  C   UNL     1      10.406   2.409  23.290  0.00  0.00    +0.092 A 
ATOM     31  C   UNL     1      10.678   3.771  23.397  0.00  0.00    +0.124 A 
ATOM     32  C   UNL     1       9.790   4.643  24.013  0.00  0.00    +0.091 A 
ATOM     33  O   UNL     1       8.999   0.560  23.738  0.00  0.00    -0.451 OA
ATOM     34  C   UNL     1       8.605   4.137  24.526  0.00  0.00    +0.135 A 
ATOM     35  C   UNL     1       7.753   0.006  24.070  0.00  0.00    +0.181 A 
BRANCH  35  36
ATOM     36  C   UNL     1       7.687  -1.439  23.625  0.00  0.00    +0.025 A 
ATOM     37  C   UNL     1       8.486  -2.478  24.138  0.00  0.00    +0.015 A 
ATOM     38  C   UNL     1       8.258  -3.826  23.799  0.00  0.00    +0.050 A 
ATOM     39  C   UNL     1       7.236  -4.151  22.927  0.00  0.00    +0.158 A 
ATOM     40  C   UNL     1       6.505  -3.148  22.315  0.00  0.00    +0.159 A 
ATOM     41  C   UNL     1       6.721  -1.811  22.655  0.00  0.00    +0.060 A 
BRANCH  39  42
ATOM     42  O   UNL     1       6.948  -5.460  22.675  0.00  0.00    -0.503 OA
ATOM     43  H   UNL     1       6.663  -5.477  21.739  0.00  0.00    +0.292 HD
ENDBRANCH  39  42
BRANCH  40  44
ATOM     44  O   UNL     1       5.571  -3.515  21.386  0.00  0.00    -0.503 OA
ATOM     45  H   UNL     1       4.701  -3.237  21.721  0.00  0.00    +0.292 HD
ENDBRANCH  40  44
ENDBRANCH  35  36
BRANCH  34  46
ATOM     46  O   UNL     1       7.719   5.012  25.095  0.00  0.00    -0.506 OA
ATOM     47  H   UNL     1       7.487   4.723  25.991  0.00  0.00    +0.292 HD
ENDBRANCH  34  46
BRANCH  31  48
ATOM     48  O   UNL     1      11.825   4.318  22.902  0.00  0.00    -0.507 OA
ATOM     49  H   UNL     1      11.845   5.258  23.120  0.00  0.00    +0.292 HD
ENDBRANCH  31  48
ENDBRANCH  24  25
ENDBRANCH   3  24
BRANCH   1  50
ATOM     50  C   UNL     1       5.616  -3.718  27.218  0.00  0.00    +0.197 C 
BRANCH  50  51
ATOM     51  O   UNL     1       5.522  -3.908  25.809  0.00  0.00    -0.346 OA
BRANCH  51  55
ATOM     52  C   UNL     1       3.311  -7.641  25.506  0.00  0.00    +0.041 C 
ATOM     53  C   UNL     1       4.170  -6.998  24.424  0.00  0.00    +0.149 C 
ATOM     54  O   UNL     1       5.088  -6.039  24.961  0.00  0.00    -0.343 OA
ATOM     55  C   UNL     1       4.502  -4.826  25.431  0.00  0.00    +0.282 C 
ATOM     56  C   UNL     1       3.678  -4.105  24.342  0.00  0.00    +0.201 C 
ATOM     57  C   UNL     1       2.709  -5.059  23.640  0.00  0.00    +0.179 C 
ATOM     58  C   UNL     1       3.403  -6.370  23.251  0.00  0.00    +0.174 C 
BRANCH  56  59
ATOM     59  O   UNL     1       2.960  -2.997  24.912  0.00  0.00    -0.384 OA
ATOM     60  H   UNL     1       2.229  -3.350  25.450  0.00  0.00    +0.210 HD
ENDBRANCH  56  59
BRANCH  57  61
ATOM     61  O   UNL     1       1.541  -5.287  24.445  0.00  0.00    -0.386 OA
ATOM     62  H   UNL     1       1.101  -6.107  24.167  0.00  0.00    +0.210 HD
ENDBRANCH  57  61
BRANCH  58  63
ATOM     63  O   UNL     1       4.352  -6.092  22.205  0.00  0.00    -0.387 OA
ATOM     64  H   UNL     1       4.491  -5.124  22.181  0.00  0.00    +0.210 HD
ENDBRANCH  58  63
ENDBRANCH  51  55
ENDBRANCH  50  51
ENDBRANCH   1  50
TORSDOF 21
ENDMDL
