MODEL 1
REMARK VINA RESULT:      -7.6      0.000      0.000
REMARK  Name = 
REMARK  12 active torsions:
REMARK  status: ('A' for Active; 'I' for Inactive)
REMARK    1  A    between atoms: C_3  and  O_38
REMARK    2  A    between atoms: C_4  and  O_37
REMARK    3  A    between atoms: C_6  and  C_7
REMARK    4  A    between atoms: C_8  and  O_36
REMARK    5  A    between atoms: C_12  and  O_35
REMARK    6  A    between atoms: C_14  and  O_18
REMARK    7  A    between atoms: O_18  and  C_19
REMARK    8  A    between atoms: C_21  and  O_34
REMARK    9  A    between atoms: C_23  and  O_33
REMARK   10  A    between atoms: C_25  and  O_32
REMARK   11  A    between atoms: C_27  and  C_30
REMARK   12  A    between atoms: C_30  and  O_31
REMARK                            x       y       z     vdW  Elec       q    Type
REMARK                         _______ _______ _______ _____ _____    ______ ____
ROOT
ATOM      1  C   UNL     1       6.847  -3.815  24.214  0.00  0.00    +0.181 A 
ATOM      2  O   UNL     1       6.291  -2.535  24.030  0.00  0.00    -0.451 OA
ATOM      3  C   UNL     1       7.121  -1.491  23.662  0.00  0.00    +0.147 A 
ATOM      4  C   UNL     1       8.501  -1.660  23.568  0.00  0.00    +0.109 A 
ATOM      5  C   UNL     1       9.321  -0.597  23.212  0.00  0.00    +0.135 A 
ATOM      6  C   UNL     1       8.775   0.639  22.951  0.00  0.00    +0.092 A 
ATOM      7  C   UNL     1       7.394   0.870  23.079  0.00  0.00    +0.131 A 
ATOM      8  C   UNL     1       9.088  -2.971  23.828  0.00  0.00    +0.238 A 
ATOM      9  O   UNL     1      10.313  -3.114  23.798  0.00  0.00    -0.283 OA
ATOM     10  C   UNL     1       6.562  -0.219  23.406  0.00  0.00    +0.093 A 
ATOM     11  C   UNL     1       8.162  -4.086  24.070  0.00  0.00    +0.208 A 
ENDROOT
BRANCH   1  13
ATOM     12  C   UNL     1       5.827  -5.482  25.836  0.00  0.00    +0.015 A 
ATOM     13  C   UNL     1       5.859  -4.887  24.551  0.00  0.00    +0.025 A 
ATOM     14  C   UNL     1       4.954  -5.366  23.595  0.00  0.00    +0.060 A 
ATOM     15  C   UNL     1       4.139  -6.459  23.894  0.00  0.00    +0.159 A 
ATOM     16  C   UNL     1       4.204  -7.096  25.130  0.00  0.00    +0.158 A 
ATOM     17  C   UNL     1       5.035  -6.602  26.119  0.00  0.00    +0.050 A 
BRANCH  15  18
ATOM     18  O   UNL     1       3.278  -6.927  22.942  0.00  0.00    -0.503 OA
ATOM     19  H   UNL     1       2.509  -6.323  22.986  0.00  0.00    +0.292 HD
ENDBRANCH  15  18
BRANCH  16  20
ATOM     20  O   UNL     1       3.431  -8.206  25.323  0.00  0.00    -0.503 OA
ATOM     21  H   UNL     1       3.736  -8.655  26.131  0.00  0.00    +0.292 HD
ENDBRANCH  16  20
ENDBRANCH   1  13
BRANCH   5  22
ATOM     22  O   UNL     1      10.685  -0.688  23.112  0.00  0.00    -0.506 OA
ATOM     23  H   UNL     1      11.076  -0.394  23.966  0.00  0.00    +0.292 HD
ENDBRANCH   5  22
BRANCH  11  24
ATOM     24  O   UNL     1       8.739  -5.340  24.112  0.00  0.00    -0.501 OA
ATOM     25  H   UNL     1       8.473  -5.764  24.944  0.00  0.00    +0.292 HD
ENDBRANCH  11  24
BRANCH   7  26
ATOM     26  O   UNL     1       6.813   2.133  22.944  0.00  0.00    -0.461 OA
BRANCH  26  27
ATOM     27  C   UNL     1       6.769   2.868  24.186  0.00  0.00    +0.339 C 
ATOM     28  O   UNL     1       5.994   4.065  24.065  0.00  0.00    -0.331 OA
ATOM     29  C   UNL     1       6.671   5.228  23.574  0.00  0.00    +0.179 C 
ATOM     30  C   UNL     1       7.815   5.576  24.533  0.00  0.00    +0.177 C 
ATOM     31  C   UNL     1       8.824   4.419  24.609  0.00  0.00    +0.180 C 
ATOM     32  C   UNL     1       8.120   3.089  24.923  0.00  0.00    +0.214 C 
BRANCH  30  33
ATOM     33  O   UNL     1       7.248   5.795  25.841  0.00  0.00    -0.386 OA
ATOM     34  H   UNL     1       7.968   6.064  26.438  0.00  0.00    +0.210 HD
ENDBRANCH  30  33
BRANCH  31  35
ATOM     35  O   UNL     1       9.626   4.385  23.428  0.00  0.00    -0.386 OA
ATOM     36  H   UNL     1       9.727   3.463  23.130  0.00  0.00    +0.210 HD
ENDBRANCH  31  35
BRANCH  32  37
ATOM     37  O   UNL     1       7.846   3.114  26.349  0.00  0.00    -0.383 OA
ATOM     38  H   UNL     1       6.930   2.769  26.461  0.00  0.00    +0.210 HD
ENDBRANCH  32  37
BRANCH  29  39
ATOM     39  C   UNL     1       7.107   5.157  22.096  0.00  0.00    +0.190 C 
BRANCH  39  40
ATOM     40  O   UNL     1       7.945   6.246  21.703  0.00  0.00    -0.392 OA
ATOM     41  H   UNL     1       8.541   5.935  21.005  0.00  0.00    +0.210 HD
ENDBRANCH  39  40
ENDBRANCH  29  39
ENDBRANCH  26  27
ENDBRANCH   7  26
TORSDOF 12
ENDMDL
MODEL 2
REMARK VINA RESULT:      -7.6      1.151      2.387
REMARK  Name = 
REMARK  12 active torsions:
REMARK  status: ('A' for Active; 'I' for Inactive)
REMARK    1  A    between atoms: C_3  and  O_38
REMARK    2  A    between atoms: C_4  and  O_37
REMARK    3  A    between atoms: C_6  and  C_7
REMARK    4  A    between atoms: C_8  and  O_36
REMARK    5  A    between atoms: C_12  and  O_35
REMARK    6  A    between atoms: C_14  and  O_18
REMARK    7  A    between atoms: O_18  and  C_19
REMARK    8  A    between atoms: C_21  and  O_34
REMARK    9  A    between atoms: C_23  and  O_33
REMARK   10  A    between atoms: C_25  and  O_32
REMARK   11  A    between atoms: C_27  and  C_30
REMARK   12  A    between atoms: C_30  and  O_31
REMARK                            x       y       z     vdW  Elec       q    Type
REMARK                         _______ _______ _______ _____ _____    ______ ____
ROOT
ATOM      1  C   UNL     1       6.989  -4.106  24.201  0.00  0.00    +0.181 A 
ATOM      2  O   UNL     1       6.327  -2.894  23.931  0.00  0.00    -0.451 OA
ATOM      3  C   UNL     1       7.074  -1.794  23.550  0.00  0.00    +0.147 A 
ATOM      4  C   UNL     1       8.466  -1.835  23.524  0.00  0.00    +0.109 A 
ATOM      5  C   UNL     1       9.202  -0.717  23.152  0.00  0.00    +0.135 A 
ATOM      6  C   UNL     1       8.557   0.450  22.808  0.00  0.00    +0.092 A 
ATOM      7  C   UNL     1       7.156   0.555  22.865  0.00  0.00    +0.131 A 
ATOM      8  C   UNL     1       9.158  -3.073  23.872  0.00  0.00    +0.238 A 
ATOM      9  O   UNL     1      10.392  -3.101  23.903  0.00  0.00    -0.283 OA
ATOM     10  C   UNL     1       6.413  -0.593  23.207  0.00  0.00    +0.093 A 
ATOM     11  C   UNL     1       8.329  -4.258  24.128  0.00  0.00    +0.208 A 
ENDROOT
BRANCH   1  13
ATOM     12  C   UNL     1       5.235  -5.834  23.578  0.00  0.00    +0.015 A 
ATOM     13  C   UNL     1       6.089  -5.250  24.547  0.00  0.00    +0.025 A 
ATOM     14  C   UNL     1       6.031  -5.761  25.850  0.00  0.00    +0.060 A 
ATOM     15  C   UNL     1       5.084  -6.733  26.175  0.00  0.00    +0.159 A 
ATOM     16  C   UNL     1       4.182  -7.213  25.230  0.00  0.00    +0.158 A 
ATOM     17  C   UNL     1       4.261  -6.782  23.919  0.00  0.00    +0.050 A 
BRANCH  15  18
ATOM     18  O   UNL     1       5.027  -7.204  27.457  0.00  0.00    -0.503 OA
ATOM     19  H   UNL     1       5.864  -7.696  27.577  0.00  0.00    +0.292 HD
ENDBRANCH  15  18
BRANCH  16  20
ATOM     20  O   UNL     1       3.235  -8.108  25.641  0.00  0.00    -0.503 OA
ATOM     21  H   UNL     1       2.489  -7.612  26.020  0.00  0.00    +0.292 HD
ENDBRANCH  16  20
ENDBRANCH   1  13
BRANCH   5  22
ATOM     22  O   UNL     1      10.571  -0.684  23.117  0.00  0.00    -0.506 OA
ATOM     23  H   UNL     1      10.903  -1.610  23.156  0.00  0.00    +0.292 HD
ENDBRANCH   5  22
BRANCH  11  24
ATOM     24  O   UNL     1       9.016  -5.449  24.256  0.00  0.00    -0.501 OA
ATOM     25  H   UNL     1       9.762  -5.301  24.861  0.00  0.00    +0.292 HD
ENDBRANCH  11  24
BRANCH   7  26
ATOM     26  O   UNL     1       6.469   1.750  22.643  0.00  0.00    -0.461 OA
BRANCH  26  27
ATOM     27  C   UNL     1       7.160   2.903  23.171  0.00  0.00    +0.339 C 
ATOM     28  O   UNL     1       6.882   3.094  24.562  0.00  0.00    -0.331 OA
ATOM     29  C   UNL     1       5.703   3.838  24.890  0.00  0.00    +0.179 C 
ATOM     30  C   UNL     1       5.826   5.247  24.299  0.00  0.00    +0.177 C 
ATOM     31  C   UNL     1       5.951   5.180  22.769  0.00  0.00    +0.180 C 
ATOM     32  C   UNL     1       7.073   4.217  22.345  0.00  0.00    +0.214 C 
BRANCH  30  33
ATOM     33  O   UNL     1       7.015   5.855  24.844  0.00  0.00    -0.386 OA
ATOM     34  H   UNL     1       6.780   6.260  25.698  0.00  0.00    +0.210 HD
ENDBRANCH  30  33
BRANCH  31  35
ATOM     35  O   UNL     1       4.683   4.883  22.183  0.00  0.00    -0.386 OA
ATOM     36  H   UNL     1       4.796   4.216  21.483  0.00  0.00    +0.210 HD
ENDBRANCH  31  35
BRANCH  32  37
ATOM     37  O   UNL     1       8.313   4.945  22.543  0.00  0.00    -0.383 OA
ATOM     38  H   UNL     1       8.746   5.001  21.661  0.00  0.00    +0.210 HD
ENDBRANCH  32  37
BRANCH  29  39
ATOM     39  C   UNL     1       4.371   3.140  24.545  0.00  0.00    +0.190 C 
BRANCH  39  40
ATOM     40  O   UNL     1       4.364   1.749  24.868  0.00  0.00    -0.392 OA
ATOM     41  H   UNL     1       3.948   1.268  24.136  0.00  0.00    +0.210 HD
ENDBRANCH  39  40
ENDBRANCH  29  39
ENDBRANCH  26  27
ENDBRANCH   7  26
TORSDOF 12
ENDMDL
MODEL 3
REMARK VINA RESULT:      -7.4      2.228      8.937
REMARK  Name = 
REMARK  12 active torsions:
REMARK  status: ('A' for Active; 'I' for Inactive)
REMARK    1  A    between atoms: C_3  and  O_38
REMARK    2  A    between atoms: C_4  and  O_37
REMARK    3  A    between atoms: C_6  and  C_7
REMARK    4  A    between atoms: C_8  and  O_36
REMARK    5  A    between atoms: C_12  and  O_35
REMARK    6  A    between atoms: C_14  and  O_18
REMARK    7  A    between atoms: O_18  and  C_19
REMARK    8  A    between atoms: C_21  and  O_34
REMARK    9  A    between atoms: C_23  and  O_33
REMARK   10  A    between atoms: C_25  and  O_32
REMARK   11  A    between atoms: C_27  and  C_30
REMARK   12  A    between atoms: C_30  and  O_31
REMARK                            x       y       z     vdW  Elec       q    Type
REMARK                         _______ _______ _______ _____ _____    ______ ____
ROOT
ATOM      1  C   UNL     1       8.419  -0.150  23.832  0.00  0.00    +0.181 A 
ATOM      2  O   UNL     1       7.580  -0.701  24.820  0.00  0.00    -0.451 OA
ATOM      3  C   UNL     1       7.874  -1.955  25.324  0.00  0.00    +0.147 A 
ATOM      4  C   UNL     1       8.918  -2.719  24.807  0.00  0.00    +0.109 A 
ATOM      5  C   UNL     1       9.191  -3.983  25.315  0.00  0.00    +0.135 A 
ATOM      6  C   UNL     1       8.423  -4.495  26.337  0.00  0.00    +0.092 A 
ATOM      7  C   UNL     1       7.330  -3.782  26.858  0.00  0.00    +0.131 A 
ATOM      8  C   UNL     1       9.747  -2.177  23.734  0.00  0.00    +0.238 A 
ATOM      9  O   UNL     1      10.639  -2.869  23.236  0.00  0.00    -0.283 OA
ATOM     10  C   UNL     1       7.079  -2.487  26.364  0.00  0.00    +0.093 A 
ATOM     11  C   UNL     1       9.497  -0.787  23.328  0.00  0.00    +0.208 A 
ENDROOT
BRANCH   1  13
ATOM     12  C   UNL     1       6.872   1.483  22.652  0.00  0.00    +0.015 A 
ATOM     13  C   UNL     1       8.052   1.234  23.397  0.00  0.00    +0.025 A 
ATOM     14  C   UNL     1       8.881   2.328  23.678  0.00  0.00    +0.060 A 
ATOM     15  C   UNL     1       8.585   3.581  23.142  0.00  0.00    +0.159 A 
ATOM     16  C   UNL     1       7.477   3.777  22.322  0.00  0.00    +0.158 A 
ATOM     17  C   UNL     1       6.600   2.734  22.085  0.00  0.00    +0.050 A 
BRANCH  15  18
ATOM     18  O   UNL     1       9.416   4.632  23.408  0.00  0.00    -0.503 OA
ATOM     19  H   UNL     1      10.121   4.254  23.971  0.00  0.00    +0.292 HD
ENDBRANCH  15  18
BRANCH  16  20
ATOM     20  O   UNL     1       7.294   5.014  21.772  0.00  0.00    -0.503 OA
ATOM     21  H   UNL     1       6.341   5.211  21.768  0.00  0.00    +0.292 HD
ENDBRANCH  16  20
ENDBRANCH   1  13
BRANCH   5  22
ATOM     22  O   UNL     1      10.193  -4.792  24.847  0.00  0.00    -0.506 OA
ATOM     23  H   UNL     1       9.994  -5.016  23.909  0.00  0.00    +0.292 HD
ENDBRANCH   5  22
BRANCH  11  24
ATOM     24  O   UNL     1      10.423  -0.246  22.458  0.00  0.00    -0.501 OA
ATOM     25  H   UNL     1      11.264  -0.153  22.935  0.00  0.00    +0.292 HD
ENDBRANCH  11  24
BRANCH   7  26
ATOM     26  O   UNL     1       6.453  -4.313  27.808  0.00  0.00    -0.461 OA
BRANCH  26  27
ATOM     27  C   UNL     1       5.949  -5.616  27.441  0.00  0.00    +0.339 C 
ATOM     28  O   UNL     1       5.268  -5.584  26.182  0.00  0.00    -0.331 OA
ATOM     29  C   UNL     1       3.883  -5.220  26.205  0.00  0.00    +0.179 C 
ATOM     30  C   UNL     1       3.117  -6.236  27.059  0.00  0.00    +0.177 C 
ATOM     31  C   UNL     1       3.646  -6.233  28.502  0.00  0.00    +0.180 C 
ATOM     32  C   UNL     1       5.174  -6.405  28.534  0.00  0.00    +0.214 C 
BRANCH  30  33
ATOM     33  O   UNL     1       3.321  -7.543  26.484  0.00  0.00    -0.386 OA
ATOM     34  H   UNL     1       4.031  -7.983  26.986  0.00  0.00    +0.210 HD
ENDBRANCH  30  33
BRANCH  31  35
ATOM     35  O   UNL     1       3.180  -5.075  29.196  0.00  0.00    -0.386 OA
ATOM     36  H   UNL     1       2.236  -5.181  29.409  0.00  0.00    +0.210 HD
ENDBRANCH  31  35
BRANCH  32  37
ATOM     37  O   UNL     1       5.417  -7.819  28.311  0.00  0.00    -0.383 OA
ATOM     38  H   UNL     1       4.534  -8.235  28.182  0.00  0.00    +0.210 HD
ENDBRANCH  32  37
BRANCH  29  39
ATOM     39  C   UNL     1       3.597  -3.753  26.590  0.00  0.00    +0.190 C 
BRANCH  39  40
ATOM     40  O   UNL     1       3.545  -2.876  25.463  0.00  0.00    -0.392 OA
ATOM     41  H   UNL     1       3.300  -1.991  25.777  0.00  0.00    +0.210 HD
ENDBRANCH  39  40
ENDBRANCH  29  39
ENDBRANCH  26  27
ENDBRANCH   7  26
TORSDOF 12
ENDMDL
MODEL 4
REMARK VINA RESULT:      -7.4      1.945      3.064
REMARK  Name = 
REMARK  12 active torsions:
REMARK  status: ('A' for Active; 'I' for Inactive)
REMARK    1  A    between atoms: C_3  and  O_38
REMARK    2  A    between atoms: C_4  and  O_37
REMARK    3  A    between atoms: C_6  and  C_7
REMARK    4  A    between atoms: C_8  and  O_36
REMARK    5  A    between atoms: C_12  and  O_35
REMARK    6  A    between atoms: C_14  and  O_18
REMARK    7  A    between atoms: O_18  and  C_19
REMARK    8  A    between atoms: C_21  and  O_34
REMARK    9  A    between atoms: C_23  and  O_33
REMARK   10  A    between atoms: C_25  and  O_32
REMARK   11  A    between atoms: C_27  and  C_30
REMARK   12  A    between atoms: C_30  and  O_31
REMARK                            x       y       z     vdW  Elec       q    Type
REMARK                         _______ _______ _______ _____ _____    ______ ____
ROOT
ATOM      1  C   UNL     1       7.374  -4.310  25.613  0.00  0.00    +0.181 A 
ATOM      2  O   UNL     1       6.662  -3.155  25.238  0.00  0.00    -0.451 OA
ATOM      3  C   UNL     1       7.269  -2.239  24.397  0.00  0.00    +0.147 A 
ATOM      4  C   UNL     1       8.595  -2.388  23.998  0.00  0.00    +0.109 A 
ATOM      5  C   UNL     1       9.193  -1.451  23.165  0.00  0.00    +0.135 A 
ATOM      6  C   UNL     1       8.477  -0.359  22.728  0.00  0.00    +0.092 A 
ATOM      7  C   UNL     1       7.151  -0.141  23.142  0.00  0.00    +0.131 A 
ATOM      8  C   UNL     1       9.358  -3.550  24.443  0.00  0.00    +0.238 A 
ATOM      9  O   UNL     1      10.548  -3.660  24.137  0.00  0.00    -0.283 OA
ATOM     10  C   UNL     1       6.538  -1.112  23.958  0.00  0.00    +0.093 A 
ATOM     11  C   UNL     1       8.636  -4.573  25.212  0.00  0.00    +0.208 A 
ENDROOT
BRANCH   1  13
ATOM     12  C   UNL     1       5.547  -6.043  25.950  0.00  0.00    +0.015 A 
ATOM     13  C   UNL     1       6.610  -5.266  26.475  0.00  0.00    +0.025 A 
ATOM     14  C   UNL     1       6.894  -5.400  27.840  0.00  0.00    +0.060 A 
ATOM     15  C   UNL     1       6.078  -6.193  28.646  0.00  0.00    +0.159 A 
ATOM     16  C   UNL     1       4.973  -6.862  28.126  0.00  0.00    +0.158 A 
ATOM     17  C   UNL     1       4.708  -6.808  26.770  0.00  0.00    +0.050 A 
BRANCH  15  18
ATOM     18  O   UNL     1       6.357  -6.295  29.980  0.00  0.00    -0.503 OA
ATOM     19  H   UNL     1       6.451  -5.371  30.285  0.00  0.00    +0.292 HD
ENDBRANCH  15  18
BRANCH  16  20
ATOM     20  O   UNL     1       4.177  -7.558  28.991  0.00  0.00    -0.503 OA
ATOM     21  H   UNL     1       3.548  -8.088  28.470  0.00  0.00    +0.292 HD
ENDBRANCH  16  20
ENDBRANCH   1  13
BRANCH   5  22
ATOM     22  O   UNL     1      10.495  -1.528  22.743  0.00  0.00    -0.506 OA
ATOM     23  H   UNL     1      10.708  -0.702  22.251  0.00  0.00    +0.292 HD
ENDBRANCH   5  22
BRANCH  11  24
ATOM     24  O   UNL     1       9.331  -5.744  25.443  0.00  0.00    -0.501 OA
ATOM     25  H   UNL     1       8.976  -6.425  24.848  0.00  0.00    +0.292 HD
ENDBRANCH  11  24
BRANCH   7  26
ATOM     26  O   UNL     1       6.429   1.012  22.823  0.00  0.00    -0.461 OA
BRANCH  26  27
ATOM     27  C   UNL     1       7.136   2.227  23.153  0.00  0.00    +0.339 C 
ATOM     28  O   UNL     1       6.947   2.592  24.524  0.00  0.00    -0.331 OA
ATOM     29  C   UNL     1       5.781   3.364  24.834  0.00  0.00    +0.179 C 
ATOM     30  C   UNL     1       5.843   4.687  24.063  0.00  0.00    +0.177 C 
ATOM     31  C   UNL     1       5.868   4.426  22.548  0.00  0.00    +0.180 C 
ATOM     32  C   UNL     1       6.975   3.425  22.176  0.00  0.00    +0.214 C 
BRANCH  30  33
ATOM     33  O   UNL     1       7.056   5.367  24.445  0.00  0.00    -0.386 OA
ATOM     34  H   UNL     1       6.817   6.267  24.729  0.00  0.00    +0.210 HD
ENDBRANCH  30  33
BRANCH  31  35
ATOM     35  O   UNL     1       4.568   4.048  22.091  0.00  0.00    -0.386 OA
ATOM     36  H   UNL     1       3.903   4.310  22.752  0.00  0.00    +0.210 HD
ENDBRANCH  31  35
BRANCH  32  37
ATOM     37  O   UNL     1       8.214   4.181  22.196  0.00  0.00    -0.383 OA
ATOM     38  H   UNL     1       8.897   3.584  22.578  0.00  0.00    +0.210 HD
ENDBRANCH  32  37
BRANCH  29  39
ATOM     39  C   UNL     1       4.440   2.618  24.671  0.00  0.00    +0.190 C 
BRANCH  39  40
ATOM     40  O   UNL     1       4.471   1.284  25.183  0.00  0.00    -0.392 OA
ATOM     41  H   UNL     1       3.981   0.712  24.573  0.00  0.00    +0.210 HD
ENDBRANCH  39  40
ENDBRANCH  29  39
ENDBRANCH  26  27
ENDBRANCH   7  26
TORSDOF 12
ENDMDL
MODEL 5
REMARK VINA RESULT:      -7.4      1.139      2.337
REMARK  Name = 
REMARK  12 active torsions:
REMARK  status: ('A' for Active; 'I' for Inactive)
REMARK    1  A    between atoms: C_3  and  O_38
REMARK    2  A    between atoms: C_4  and  O_37
REMARK    3  A    between atoms: C_6  and  C_7
REMARK    4  A    between atoms: C_8  and  O_36
REMARK    5  A    between atoms: C_12  and  O_35
REMARK    6  A    between atoms: C_14  and  O_18
REMARK    7  A    between atoms: O_18  and  C_19
REMARK    8  A    between atoms: C_21  and  O_34
REMARK    9  A    between atoms: C_23  and  O_33
REMARK   10  A    between atoms: C_25  and  O_32
REMARK   11  A    between atoms: C_27  and  C_30
REMARK   12  A    between atoms: C_30  and  O_31
REMARK                            x       y       z     vdW  Elec       q    Type
REMARK                         _______ _______ _______ _____ _____    ______ ____
ROOT
ATOM      1  C   UNL     1       6.959  -4.046  24.574  0.00  0.00    +0.181 A 
ATOM      2  O   UNL     1       6.345  -2.786  24.709  0.00  0.00    -0.451 OA
ATOM      3  C   UNL     1       7.091  -1.648  24.454  0.00  0.00    +0.147 A 
ATOM      4  C   UNL     1       8.452  -1.722  24.165  0.00  0.00    +0.109 A 
ATOM      5  C   UNL     1       9.189  -0.569  23.926  0.00  0.00    +0.135 A 
ATOM      6  C   UNL     1       8.577   0.663  23.978  0.00  0.00    +0.092 A 
ATOM      7  C   UNL     1       7.218   0.792  24.312  0.00  0.00    +0.131 A 
ATOM      8  C   UNL     1       9.105  -3.026  24.093  0.00  0.00    +0.238 A 
ATOM      9  O   UNL     1      10.320  -3.095  23.890  0.00  0.00    -0.283 OA
ATOM     10  C   UNL     1       6.467  -0.383  24.519  0.00  0.00    +0.093 A 
ATOM     11  C   UNL     1       8.251  -4.214  24.223  0.00  0.00    +0.208 A 
ENDROOT
BRANCH   1  13
ATOM     12  C   UNL     1       5.235  -5.734  23.779  0.00  0.00    +0.015 A 
ATOM     13  C   UNL     1       6.053  -5.213  24.812  0.00  0.00    +0.025 A 
ATOM     14  C   UNL     1       5.953  -5.809  26.076  0.00  0.00    +0.060 A 
ATOM     15  C   UNL     1       5.002  -6.803  26.304  0.00  0.00    +0.159 A 
ATOM     16  C   UNL     1       4.135  -7.223  25.299  0.00  0.00    +0.158 A 
ATOM     17  C   UNL     1       4.256  -6.706  24.022  0.00  0.00    +0.050 A 
BRANCH  15  18
ATOM     18  O   UNL     1       4.904  -7.358  27.549  0.00  0.00    -0.503 OA
ATOM     19  H   UNL     1       4.377  -6.716  28.065  0.00  0.00    +0.292 HD
ENDBRANCH  15  18
BRANCH  16  20
ATOM     20  O   UNL     1       3.179  -8.146  25.617  0.00  0.00    -0.503 OA
ATOM     21  H   UNL     1       2.969  -8.658  24.817  0.00  0.00    +0.292 HD
ENDBRANCH  16  20
ENDBRANCH   1  13
BRANCH   5  22
ATOM     22  O   UNL     1      10.531  -0.567  23.648  0.00  0.00    -0.506 OA
ATOM     23  H   UNL     1      10.754   0.289  23.216  0.00  0.00    +0.292 HD
ENDBRANCH   5  22
BRANCH  11  24
ATOM     24  O   UNL     1       8.865  -5.421  23.952  0.00  0.00    -0.501 OA
ATOM     25  H   UNL     1       9.029  -5.466  22.995  0.00  0.00    +0.292 HD
ENDBRANCH  11  24
BRANCH   7  26
ATOM     26  O   UNL     1       6.588   2.025  24.495  0.00  0.00    -0.461 OA
BRANCH  26  27
ATOM     27  C   UNL     1       6.501   2.797  23.278  0.00  0.00    +0.339 C 
ATOM     28  O   UNL     1       7.795   3.186  22.806  0.00  0.00    -0.331 OA
ATOM     29  C   UNL     1       8.349   4.389  23.352  0.00  0.00    +0.179 C 
ATOM     30  C   UNL     1       7.420   5.561  23.015  0.00  0.00    +0.177 C 
ATOM     31  C   UNL     1       6.030   5.340  23.631  0.00  0.00    +0.180 C 
ATOM     32  C   UNL     1       5.468   3.959  23.252  0.00  0.00    +0.214 C 
BRANCH  30  33
ATOM     33  O   UNL     1       7.296   5.629  21.579  0.00  0.00    -0.386 OA
ATOM     34  H   UNL     1       6.875   4.804  21.276  0.00  0.00    +0.210 HD
ENDBRANCH  30  33
BRANCH  31  35
ATOM     35  O   UNL     1       6.069   5.582  25.038  0.00  0.00    -0.386 OA
ATOM     36  H   UNL     1       5.276   6.081  25.304  0.00  0.00    +0.210 HD
ENDBRANCH  31  35
BRANCH  32  37
ATOM     37  O   UNL     1       4.985   4.089  21.889  0.00  0.00    -0.383 OA
ATOM     38  H   UNL     1       5.465   3.412  21.359  0.00  0.00    +0.210 HD
ENDBRANCH  32  37
BRANCH  29  39
ATOM     39  C   UNL     1       8.729   4.315  24.846  0.00  0.00    +0.190 C 
BRANCH  39  40
ATOM     40  O   UNL     1       9.070   5.586  25.404  0.00  0.00    -0.392 OA
ATOM     41  H   UNL     1      10.015   5.740  25.253  0.00  0.00    +0.210 HD
ENDBRANCH  39  40
ENDBRANCH  29  39
ENDBRANCH  26  27
ENDBRANCH   7  26
TORSDOF 12
ENDMDL
MODEL 6
REMARK VINA RESULT:      -7.3      1.226      2.090
REMARK  Name = 
REMARK  12 active torsions:
REMARK  status: ('A' for Active; 'I' for Inactive)
REMARK    1  A    between atoms: C_3  and  O_38
REMARK    2  A    between atoms: C_4  and  O_37
REMARK    3  A    between atoms: C_6  and  C_7
REMARK    4  A    between atoms: C_8  and  O_36
REMARK    5  A    between atoms: C_12  and  O_35
REMARK    6  A    between atoms: C_14  and  O_18
REMARK    7  A    between atoms: O_18  and  C_19
REMARK    8  A    between atoms: C_21  and  O_34
REMARK    9  A    between atoms: C_23  and  O_33
REMARK   10  A    between atoms: C_25  and  O_32
REMARK   11  A    between atoms: C_27  and  C_30
REMARK   12  A    between atoms: C_30  and  O_31
REMARK                            x       y       z     vdW  Elec       q    Type
REMARK                         _______ _______ _______ _____ _____    ______ ____
ROOT
ATOM      1  C   UNL     1       6.821  -3.842  24.470  0.00  0.00    +0.181 A 
ATOM      2  O   UNL     1       6.320  -2.533  24.599  0.00  0.00    -0.451 OA
ATOM      3  C   UNL     1       7.166  -1.466  24.354  0.00  0.00    +0.147 A 
ATOM      4  C   UNL     1       8.519  -1.660  24.082  0.00  0.00    +0.109 A 
ATOM      5  C   UNL     1       9.358  -0.577  23.853  0.00  0.00    +0.135 A 
ATOM      6  C   UNL     1       8.857   0.705  23.898  0.00  0.00    +0.092 A 
ATOM      7  C   UNL     1       7.511   0.953  24.216  0.00  0.00    +0.131 A 
ATOM      8  C   UNL     1       9.055  -3.016  24.016  0.00  0.00    +0.238 A 
ATOM      9  O   UNL     1      10.262  -3.193  23.828  0.00  0.00    -0.283 OA
ATOM     10  C   UNL     1       6.656  -0.150  24.412  0.00  0.00    +0.093 A 
ATOM     11  C   UNL     1       8.098  -4.124  24.135  0.00  0.00    +0.208 A 
ENDROOT
BRANCH   1  13
ATOM     12  C   UNL     1       5.728  -5.606  25.935  0.00  0.00    +0.015 A 
ATOM     13  C   UNL     1       5.813  -4.925  24.696  0.00  0.00    +0.025 A 
ATOM     14  C   UNL     1       4.940  -5.329  23.676  0.00  0.00    +0.060 A 
ATOM     15  C   UNL     1       4.107  -6.431  23.870  0.00  0.00    +0.159 A 
ATOM     16  C   UNL     1       4.121  -7.152  25.061  0.00  0.00    +0.158 A 
ATOM     17  C   UNL     1       4.918  -6.735  26.111  0.00  0.00    +0.050 A 
BRANCH  15  18
ATOM     18  O   UNL     1       3.279  -6.825  22.857  0.00  0.00    -0.503 OA
ATOM     19  H   UNL     1       2.678  -7.478  23.269  0.00  0.00    +0.292 HD
ENDBRANCH  15  18
BRANCH  16  20
ATOM     20  O   UNL     1       3.334  -8.265  25.149  0.00  0.00    -0.503 OA
ATOM     21  H   UNL     1       3.854  -8.977  25.559  0.00  0.00    +0.292 HD
ENDBRANCH  16  20
ENDBRANCH   1  13
BRANCH   5  22
ATOM     22  O   UNL     1      10.698  -0.693  23.591  0.00  0.00    -0.506 OA
ATOM     23  H   UNL     1      10.804  -1.142  22.721  0.00  0.00    +0.292 HD
ENDBRANCH   5  22
BRANCH  11  24
ATOM     24  O   UNL     1       8.606  -5.380  23.870  0.00  0.00    -0.501 OA
ATOM     25  H   UNL     1       9.528  -5.401  24.176  0.00  0.00    +0.292 HD
ENDBRANCH  11  24
BRANCH   7  26
ATOM     26  O   UNL     1       6.990   2.237  24.392  0.00  0.00    -0.461 OA
BRANCH  26  27
ATOM     27  C   UNL     1       5.838   2.496  23.560  0.00  0.00    +0.339 C 
ATOM     28  O   UNL     1       6.199   3.177  22.355  0.00  0.00    -0.331 OA
ATOM     29  C   UNL     1       6.285   4.606  22.420  0.00  0.00    +0.179 C 
ATOM     30  C   UNL     1       4.914   5.168  22.813  0.00  0.00    +0.177 C 
ATOM     31  C   UNL     1       4.493   4.640  24.194  0.00  0.00    +0.180 C 
ATOM     32  C   UNL     1       4.588   3.107  24.255  0.00  0.00    +0.214 C 
BRANCH  30  33
ATOM     33  O   UNL     1       3.956   4.730  21.828  0.00  0.00    -0.386 OA
ATOM     34  H   UNL     1       3.156   5.277  21.926  0.00  0.00    +0.210 HD
ENDBRANCH  30  33
BRANCH  31  35
ATOM     35  O   UNL     1       5.227   5.307  25.222  0.00  0.00    -0.386 OA
ATOM     36  H   UNL     1       5.852   5.936  24.819  0.00  0.00    +0.210 HD
ENDBRANCH  31  35
BRANCH  32  37
ATOM     37  O   UNL     1       3.413   2.610  23.564  0.00  0.00    -0.383 OA
ATOM     38  H   UNL     1       3.561   2.782  22.606  0.00  0.00    +0.210 HD
ENDBRANCH  32  37
BRANCH  29  39
ATOM     39  C   UNL     1       7.444   5.154  23.279  0.00  0.00    +0.190 C 
BRANCH  39  40
ATOM     40  O   UNL     1       8.678   4.464  23.065  0.00  0.00    -0.392 OA
ATOM     41  H   UNL     1       9.221   4.558  23.863  0.00  0.00    +0.210 HD
ENDBRANCH  39  40
ENDBRANCH  29  39
ENDBRANCH  26  27
ENDBRANCH   7  26
TORSDOF 12
ENDMDL
MODEL 7
REMARK VINA RESULT:      -7.2      1.590      2.809
REMARK  Name = 
REMARK  12 active torsions:
REMARK  status: ('A' for Active; 'I' for Inactive)
REMARK    1  A    between atoms: C_3  and  O_38
REMARK    2  A    between atoms: C_4  and  O_37
REMARK    3  A    between atoms: C_6  and  C_7
REMARK    4  A    between atoms: C_8  and  O_36
REMARK    5  A    between atoms: C_12  and  O_35
REMARK    6  A    between atoms: C_14  and  O_18
REMARK    7  A    between atoms: O_18  and  C_19
REMARK    8  A    between atoms: C_21  and  O_34
REMARK    9  A    between atoms: C_23  and  O_33
REMARK   10  A    between atoms: C_25  and  O_32
REMARK   11  A    between atoms: C_27  and  C_30
REMARK   12  A    between atoms: C_30  and  O_31
REMARK                            x       y       z     vdW  Elec       q    Type
REMARK                         _______ _______ _______ _____ _____    ______ ____
ROOT
ATOM      1  C   UNL     1       6.935  -3.961  24.672  0.00  0.00    +0.181 A 
ATOM      2  O   UNL     1       6.320  -2.719  24.924  0.00  0.00    -0.451 OA
ATOM      3  C   UNL     1       7.042  -1.559  24.706  0.00  0.00    +0.147 A 
ATOM      4  C   UNL     1       8.385  -1.599  24.339  0.00  0.00    +0.109 A 
ATOM      5  C   UNL     1       9.100  -0.424  24.137  0.00  0.00    +0.135 A 
ATOM      6  C   UNL     1       8.482   0.795  24.304  0.00  0.00    +0.092 A 
ATOM      7  C   UNL     1       7.142   0.886  24.719  0.00  0.00    +0.131 A 
ATOM      8  C   UNL     1       9.044  -2.887  24.145  0.00  0.00    +0.238 A 
ATOM      9  O   UNL     1      10.247  -2.929  23.872  0.00  0.00    -0.283 OA
ATOM     10  C   UNL     1       6.412  -0.308  24.887  0.00  0.00    +0.093 A 
ATOM     11  C   UNL     1       8.207  -4.091  24.242  0.00  0.00    +0.208 A 
ENDROOT
BRANCH   1  13
ATOM     12  C   UNL     1       5.262  -5.676  23.829  0.00  0.00    +0.015 A 
ATOM     13  C   UNL     1       6.052  -5.152  24.881  0.00  0.00    +0.025 A 
ATOM     14  C   UNL     1       5.948  -5.767  26.135  0.00  0.00    +0.060 A 
ATOM     15  C   UNL     1       5.016  -6.786  26.336  0.00  0.00    +0.159 A 
ATOM     16  C   UNL     1       4.174  -7.211  25.312  0.00  0.00    +0.158 A 
ATOM     17  C   UNL     1       4.301  -6.673  24.044  0.00  0.00    +0.050 A 
BRANCH  15  18
ATOM     18  O   UNL     1       4.913  -7.360  27.571  0.00  0.00    -0.503 OA
ATOM     19  H   UNL     1       4.117  -6.953  27.967  0.00  0.00    +0.292 HD
ENDBRANCH  15  18
BRANCH  16  20
ATOM     20  O   UNL     1       3.235  -8.159  25.603  0.00  0.00    -0.503 OA
ATOM     21  H   UNL     1       3.530  -9.008  25.231  0.00  0.00    +0.292 HD
ENDBRANCH  16  20
ENDBRANCH   1  13
BRANCH   5  22
ATOM     22  O   UNL     1      10.424  -0.389  23.788  0.00  0.00    -0.506 OA
ATOM     23  H   UNL     1      10.529  -0.862  22.931  0.00  0.00    +0.292 HD
ENDBRANCH   5  22
BRANCH  11  24
ATOM     24  O   UNL     1       8.815  -5.270  23.858  0.00  0.00    -0.501 OA
ATOM     25  H   UNL     1       8.185  -5.768  23.310  0.00  0.00    +0.292 HD
ENDBRANCH  11  24
BRANCH   7  26
ATOM     26  O   UNL     1       6.514   2.097  25.018  0.00  0.00    -0.461 OA
BRANCH  26  27
ATOM     27  C   UNL     1       6.643   3.073  23.961  0.00  0.00    +0.339 C 
ATOM     28  O   UNL     1       6.456   4.406  24.447  0.00  0.00    -0.331 OA
ATOM     29  C   UNL     1       5.108   4.885  24.520  0.00  0.00    +0.179 C 
ATOM     30  C   UNL     1       4.501   4.873  23.113  0.00  0.00    +0.177 C 
ATOM     31  C   UNL     1       4.482   3.444  22.547  0.00  0.00    +0.180 C 
ATOM     32  C   UNL     1       5.871   2.791  22.641  0.00  0.00    +0.214 C 
BRANCH  30  33
ATOM     33  O   UNL     1       5.323   5.704  22.268  0.00  0.00    -0.386 OA
ATOM     34  H   UNL     1       6.241   5.641  22.588  0.00  0.00    +0.210 HD
ENDBRANCH  30  33
BRANCH  31  35
ATOM     35  O   UNL     1       3.442   2.683  23.163  0.00  0.00    -0.386 OA
ATOM     36  H   UNL     1       3.814   2.155  23.892  0.00  0.00    +0.210 HD
ENDBRANCH  31  35
BRANCH  32  37
ATOM     37  O   UNL     1       6.645   3.351  21.549  0.00  0.00    -0.383 OA
ATOM     38  H   UNL     1       7.584   3.108  21.721  0.00  0.00    +0.210 HD
ENDBRANCH  32  37
BRANCH  29  39
ATOM     39  C   UNL     1       4.223   4.192  25.578  0.00  0.00    +0.190 C 
BRANCH  39  40
ATOM     40  O   UNL     1       4.894   3.980  26.821  0.00  0.00    -0.392 OA
ATOM     41  H   UNL     1       5.831   4.199  26.703  0.00  0.00    +0.210 HD
ENDBRANCH  39  40
ENDBRANCH  29  39
ENDBRANCH  26  27
ENDBRANCH   7  26
TORSDOF 12
ENDMDL
MODEL 8
REMARK VINA RESULT:      -7.1      1.802      9.352
REMARK  Name = 
REMARK  12 active torsions:
REMARK  status: ('A' for Active; 'I' for Inactive)
REMARK    1  A    between atoms: C_3  and  O_38
REMARK    2  A    between atoms: C_4  and  O_37
REMARK    3  A    between atoms: C_6  and  C_7
REMARK    4  A    between atoms: C_8  and  O_36
REMARK    5  A    between atoms: C_12  and  O_35
REMARK    6  A    between atoms: C_14  and  O_18
REMARK    7  A    between atoms: O_18  and  C_19
REMARK    8  A    between atoms: C_21  and  O_34
REMARK    9  A    between atoms: C_23  and  O_33
REMARK   10  A    between atoms: C_25  and  O_32
REMARK   11  A    between atoms: C_27  and  C_30
REMARK   12  A    between atoms: C_30  and  O_31
REMARK                            x       y       z     vdW  Elec       q    Type
REMARK                         _______ _______ _______ _____ _____    ______ ____
ROOT
ATOM      1  C   UNL     1       8.222  -0.521  23.847  0.00  0.00    +0.181 A 
ATOM      2  O   UNL     1       7.077  -1.184  24.330  0.00  0.00    -0.451 OA
ATOM      3  C   UNL     1       7.183  -2.511  24.708  0.00  0.00    +0.147 A 
ATOM      4  C   UNL     1       8.366  -3.225  24.529  0.00  0.00    +0.109 A 
ATOM      5  C   UNL     1       8.451  -4.560  24.902  0.00  0.00    +0.135 A 
ATOM      6  C   UNL     1       7.358  -5.194  25.450  0.00  0.00    +0.092 A 
ATOM      7  C   UNL     1       6.129  -4.529  25.606  0.00  0.00    +0.131 A 
ATOM      8  C   UNL     1       9.534  -2.557  23.963  0.00  0.00    +0.238 A 
ATOM      9  O   UNL     1      10.568  -3.197  23.753  0.00  0.00    -0.283 OA
ATOM     10  C   UNL     1       6.059  -3.165  25.260  0.00  0.00    +0.093 A 
ATOM     11  C   UNL     1       9.427  -1.113  23.712  0.00  0.00    +0.208 A 
ENDROOT
BRANCH   1  13
ATOM     12  C   UNL     1       7.377   1.328  22.324  0.00  0.00    +0.015 A 
ATOM     13  C   UNL     1       8.018   0.926  23.522  0.00  0.00    +0.025 A 
ATOM     14  C   UNL     1       8.489   1.934  24.373  0.00  0.00    +0.060 A 
ATOM     15  C   UNL     1       8.409   3.270  23.979  0.00  0.00    +0.159 A 
ATOM     16  C   UNL     1       7.871   3.634  22.748  0.00  0.00    +0.158 A 
ATOM     17  C   UNL     1       7.333   2.668  21.917  0.00  0.00    +0.050 A 
BRANCH  15  18
ATOM     18  O   UNL     1       8.893   4.240  24.812  0.00  0.00    -0.503 OA
ATOM     19  H   UNL     1       8.107   4.565  25.295  0.00  0.00    +0.292 HD
ENDBRANCH  15  18
BRANCH  16  20
ATOM     20  O   UNL     1       7.897   4.954  22.399  0.00  0.00    -0.503 OA
ATOM     21  H   UNL     1       7.181   5.117  21.760  0.00  0.00    +0.292 HD
ENDBRANCH  16  20
ENDBRANCH   1  13
BRANCH   5  22
ATOM     22  O   UNL     1       9.576  -5.325  24.744  0.00  0.00    -0.506 OA
ATOM     23  H   UNL     1       9.341  -6.109  24.197  0.00  0.00    +0.292 HD
ENDBRANCH   5  22
BRANCH  11  24
ATOM     24  O   UNL     1      10.605  -0.480  23.368  0.00  0.00    -0.501 OA
ATOM     25  H   UNL     1      11.341  -0.989  23.747  0.00  0.00    +0.292 HD
ENDBRANCH  11  24
BRANCH   7  26
ATOM     26  O   UNL     1       4.965  -5.165  26.042  0.00  0.00    -0.461 OA
BRANCH  26  27
ATOM     27  C   UNL     1       3.859  -5.003  25.128  0.00  0.00    +0.339 C 
ATOM     28  O   UNL     1       2.635  -4.739  25.821  0.00  0.00    -0.331 OA
ATOM     29  C   UNL     1       1.893  -5.875  26.281  0.00  0.00    +0.179 C 
ATOM     30  C   UNL     1       1.503  -6.734  25.073  0.00  0.00    +0.177 C 
ATOM     31  C   UNL     1       2.758  -7.234  24.340  0.00  0.00    +0.180 C 
ATOM     32  C   UNL     1       3.707  -6.070  24.008  0.00  0.00    +0.214 C 
BRANCH  30  33
ATOM     33  O   UNL     1       0.728  -5.912  24.175  0.00  0.00    -0.386 OA
ATOM     34  H   UNL     1      -0.005  -5.523  24.685  0.00  0.00    +0.210 HD
ENDBRANCH  30  33
BRANCH  31  35
ATOM     35  O   UNL     1       3.374  -8.289  25.080  0.00  0.00    -0.386 OA
ATOM     36  H   UNL     1       2.888  -8.429  25.913  0.00  0.00    +0.210 HD
ENDBRANCH  31  35
BRANCH  32  37
ATOM     37  O   UNL     1       3.134  -5.413  22.847  0.00  0.00    -0.383 OA
ATOM     38  H   UNL     1       2.256  -5.831  22.696  0.00  0.00    +0.210 HD
ENDBRANCH  32  37
BRANCH  29  39
ATOM     39  C   UNL     1       2.562  -6.678  27.417  0.00  0.00    +0.190 C 
BRANCH  39  40
ATOM     40  O   UNL     1       1.923  -7.930  27.672  0.00  0.00    -0.392 OA
ATOM     41  H   UNL     1       1.091  -7.955  27.174  0.00  0.00    +0.210 HD
ENDBRANCH  39  40
ENDBRANCH  29  39
ENDBRANCH  26  27
ENDBRANCH   7  26
TORSDOF 12
ENDMDL
MODEL 9
REMARK VINA RESULT:      -7.0      1.614      9.478
REMARK  Name = 
REMARK  12 active torsions:
REMARK  status: ('A' for Active; 'I' for Inactive)
REMARK    1  A    between atoms: C_3  and  O_38
REMARK    2  A    between atoms: C_4  and  O_37
REMARK    3  A    between atoms: C_6  and  C_7
REMARK    4  A    between atoms: C_8  and  O_36
REMARK    5  A    between atoms: C_12  and  O_35
REMARK    6  A    between atoms: C_14  and  O_18
REMARK    7  A    between atoms: O_18  and  C_19
REMARK    8  A    between atoms: C_21  and  O_34
REMARK    9  A    between atoms: C_23  and  O_33
REMARK   10  A    between atoms: C_25  and  O_32
REMARK   11  A    between atoms: C_27  and  C_30
REMARK   12  A    between atoms: C_30  and  O_31
REMARK                            x       y       z     vdW  Elec       q    Type
REMARK                         _______ _______ _______ _____ _____    ______ ____
ROOT
ATOM      1  C   UNL     1       8.014  -0.154  23.586  0.00  0.00    +0.181 A 
ATOM      2  O   UNL     1       6.764  -0.784  23.735  0.00  0.00    -0.451 OA
ATOM      3  C   UNL     1       6.727  -2.143  23.991  0.00  0.00    +0.147 A 
ATOM      4  C   UNL     1       7.889  -2.911  24.006  0.00  0.00    +0.109 A 
ATOM      5  C   UNL     1       7.833  -4.277  24.250  0.00  0.00    +0.135 A 
ATOM      6  C   UNL     1       6.620  -4.888  24.478  0.00  0.00    +0.092 A 
ATOM      7  C   UNL     1       5.416  -4.164  24.426  0.00  0.00    +0.131 A 
ATOM      8  C   UNL     1       9.182  -2.270  23.781  0.00  0.00    +0.238 A 
ATOM      9  O   UNL     1      10.209  -2.952  23.740  0.00  0.00    -0.283 OA
ATOM     10  C   UNL     1       5.481  -2.772  24.213  0.00  0.00    +0.093 A 
ATOM     11  C   UNL     1       9.193  -0.806  23.660  0.00  0.00    +0.208 A 
ENDROOT
BRANCH   1  13
ATOM     12  C   UNL     1       7.450   1.875  22.165  0.00  0.00    +0.015 A 
ATOM     13  C   UNL     1       7.949   1.326  23.372  0.00  0.00    +0.025 A 
ATOM     14  C   UNL     1       8.414   2.221  24.344  0.00  0.00    +0.060 A 
ATOM     15  C   UNL     1       8.469   3.587  24.064  0.00  0.00    +0.159 A 
ATOM     16  C   UNL     1       8.074   4.091  22.827  0.00  0.00    +0.158 A 
ATOM     17  C   UNL     1       7.544   3.242  21.873  0.00  0.00    +0.050 A 
BRANCH  15  18
ATOM     18  O   UNL     1       8.946   4.443  25.016  0.00  0.00    -0.503 OA
ATOM     19  H   UNL     1       9.411   3.868  25.655  0.00  0.00    +0.292 HD
ENDBRANCH  15  18
BRANCH  16  20
ATOM     20  O   UNL     1       8.229   5.428  22.599  0.00  0.00    -0.503 OA
ATOM     21  H   UNL     1       8.875   5.776  23.237  0.00  0.00    +0.292 HD
ENDBRANCH  16  20
ENDBRANCH   1  13
BRANCH   5  22
ATOM     22  O   UNL     1       8.933  -5.094  24.267  0.00  0.00    -0.506 OA
ATOM     23  H   UNL     1       9.705  -4.577  23.943  0.00  0.00    +0.292 HD
ENDBRANCH   5  22
BRANCH  11  24
ATOM     24  O   UNL     1      10.444  -0.220  23.650  0.00  0.00    -0.501 OA
ATOM     25  H   UNL     1      10.494   0.394  24.401  0.00  0.00    +0.292 HD
ENDBRANCH  11  24
BRANCH   7  26
ATOM     26  O   UNL     1       4.158  -4.762  24.529  0.00  0.00    -0.461 OA
BRANCH  26  27
ATOM     27  C   UNL     1       4.225  -6.144  24.944  0.00  0.00    +0.339 C 
ATOM     28  O   UNL     1       3.678  -7.019  23.952  0.00  0.00    -0.331 OA
ATOM     29  C   UNL     1       2.261  -7.233  23.988  0.00  0.00    +0.179 C 
ATOM     30  C   UNL     1       1.888  -7.857  25.337  0.00  0.00    +0.177 C 
ATOM     31  C   UNL     1       2.269  -6.915  26.490  0.00  0.00    +0.180 C 
ATOM     32  C   UNL     1       3.738  -6.473  26.383  0.00  0.00    +0.214 C 
BRANCH  30  33
ATOM     33  O   UNL     1       2.623  -9.091  25.473  0.00  0.00    -0.386 OA
ATOM     34  H   UNL     1       2.907  -9.169  26.402  0.00  0.00    +0.210 HD
ENDBRANCH  30  33
BRANCH  31  35
ATOM     35  O   UNL     1       1.343  -5.830  26.567  0.00  0.00    -0.386 OA
ATOM     36  H   UNL     1       1.341  -5.344  25.724  0.00  0.00    +0.210 HD
ENDBRANCH  31  35
BRANCH  32  37
ATOM     37  O   UNL     1       4.524  -7.593  26.868  0.00  0.00    -0.383 OA
ATOM     38  H   UNL     1       5.155  -7.822  26.148  0.00  0.00    +0.210 HD
ENDBRANCH  32  37
BRANCH  29  39
ATOM     39  C   UNL     1       1.404  -6.004  23.621  0.00  0.00    +0.190 C 
BRANCH  39  40
ATOM     40  O   UNL     1       1.999  -5.182  22.615  0.00  0.00    -0.392 OA
ATOM     41  H   UNL     1       1.890  -5.623  21.758  0.00  0.00    +0.210 HD
ENDBRANCH  39  40
ENDBRANCH  29  39
ENDBRANCH  26  27
ENDBRANCH   7  26
TORSDOF 12
ENDMDL
