MODEL 1
REMARK VINA RESULT:      -7.4      0.000      0.000
REMARK  Name = 
REMARK  13 active torsions:
REMARK  status: ('A' for Active; 'I' for Inactive)
REMARK    1  A    between atoms: C_1  and  O_2
REMARK    2  A    between atoms: O_2  and  C_3
REMARK    3  A    between atoms: C_4  and  O_37
REMARK    4  A    between atoms: C_7  and  C_9
REMARK    5  A    between atoms: C_10  and  O_36
REMARK    6  A    between atoms: C_14  and  O_35
REMARK    7  A    between atoms: C_16  and  O_20
REMARK    8  A    between atoms: O_20  and  C_21
REMARK    9  A    between atoms: C_23  and  N_34
REMARK   10  A    between atoms: C_24  and  O_33
REMARK   11  A    between atoms: C_26  and  O_32
REMARK   12  A    between atoms: C_28  and  C_30
REMARK   13  A    between atoms: C_30  and  O_31
REMARK                            x       y       z     vdW  Elec       q    Type
REMARK                         _______ _______ _______ _____ _____    ______ ____
ROOT
ATOM      1  C   UNL     1       7.089  -3.897  24.185  0.00  0.00    +0.181 A 
ATOM      2  O   UNL     1       6.478  -2.691  23.869  0.00  0.00    -0.451 OA
ATOM      3  C   UNL     1       7.244  -1.695  23.318  0.00  0.00    +0.147 A 
ATOM      4  C   UNL     1       8.621  -1.808  23.185  0.00  0.00    +0.109 A 
ATOM      5  C   UNL     1       9.344  -0.800  22.544  0.00  0.00    +0.135 A 
ATOM      6  C   UNL     1       8.701   0.341  22.071  0.00  0.00    +0.092 A 
ATOM      7  C   UNL     1       7.358   0.538  22.373  0.00  0.00    +0.131 A 
ATOM      8  C   UNL     1       9.289  -2.985  23.745  0.00  0.00    +0.238 A 
ATOM      9  O   UNL     1      10.512  -3.001  23.845  0.00  0.00    -0.283 OA
ATOM     10  C   UNL     1       6.611  -0.515  22.924  0.00  0.00    +0.093 A 
ATOM     11  C   UNL     1       8.419  -4.118  24.150  0.00  0.00    +0.208 A 
ENDROOT
BRANCH   1  14
ATOM     12  C   UNL     1       5.259  -6.525  26.152  0.00  0.00    +0.162 A 
ATOM     13  C   UNL     1       6.106  -5.466  25.818  0.00  0.00    +0.061 A 
ATOM     14  C   UNL     1       6.124  -4.956  24.513  0.00  0.00    +0.025 A 
ATOM     15  C   UNL     1       5.236  -5.470  23.557  0.00  0.00    +0.015 A 
ATOM     16  C   UNL     1       4.351  -6.494  23.902  0.00  0.00    +0.050 A 
ATOM     17  C   UNL     1       4.371  -7.015  25.192  0.00  0.00    +0.158 A 
BRANCH  12  19
ATOM     18  C   UNL     1       5.346  -6.221  28.477  0.00  0.00    +0.277 C 
ATOM     19  O   UNL     1       5.219  -7.128  27.383  0.00  0.00    -0.491 OA
ENDBRANCH  12  19
BRANCH  17  20
ATOM     20  O   UNL     1       3.522  -8.044  25.490  0.00  0.00    -0.503 OA
ATOM     21  H   UNL     1       4.021  -8.627  26.094  0.00  0.00    +0.292 HD
ENDBRANCH  17  20
ENDBRANCH   1  14
BRANCH   5  22
ATOM     22  O   UNL     1      10.703  -0.836  22.394  0.00  0.00    -0.506 OA
ATOM     23  H   UNL     1      11.060   0.048  22.655  0.00  0.00    +0.292 HD
ENDBRANCH   5  22
BRANCH  11  24
ATOM     24  O   UNL     1       9.031  -5.326  24.420  0.00  0.00    -0.501 OA
ATOM     25  H   UNL     1       8.806  -5.971  23.730  0.00  0.00    +0.292 HD
ENDBRANCH  11  24
BRANCH   7  26
ATOM     26  O   UNL     1       6.687   1.715  22.237  0.00  0.00    -0.462 OA
BRANCH  26  27
ATOM     27  C   UNL     1       6.653   2.687  23.305  0.00  0.00    +0.327 C 
ATOM     28  O   UNL     1       7.239   3.872  22.728  0.00  0.00    -0.332 OA
ATOM     29  C   UNL     1       7.274   5.045  23.552  0.00  0.00    +0.179 C 
ATOM     30  C   UNL     1       5.875   5.433  24.057  0.00  0.00    +0.176 C 
ATOM     31  C   UNL     1       5.235   4.242  24.763  0.00  0.00    +0.168 C 
ATOM     32  C   UNL     1       5.198   3.008  23.830  0.00  0.00    +0.152 C 
BRANCH  32  33
ATOM     33  N   UNL     1       4.441   1.975  24.564  0.00  0.00    -0.320 NA
ATOM     34  H   UNL     1       3.969   2.366  25.376  0.00  0.00    +0.119 HD
ATOM     35  H   UNL     1       3.740   1.532  23.967  0.00  0.00    +0.119 HD
ENDBRANCH  32  33
BRANCH  30  36
ATOM     36  O   UNL     1       5.047   5.853  22.968  0.00  0.00    -0.387 OA
ATOM     37  H   UNL     1       5.588   6.382  22.354  0.00  0.00    +0.210 HD
ENDBRANCH  30  36
BRANCH  31  38
ATOM     38  O   UNL     1       5.896   3.981  26.011  0.00  0.00    -0.387 OA
ATOM     39  H   UNL     1       5.367   3.381  26.560  0.00  0.00    +0.210 HD
ENDBRANCH  31  38
BRANCH  29  40
ATOM     40  C   UNL     1       7.873   6.205  22.733  0.00  0.00    +0.190 C 
BRANCH  40  41
ATOM     41  O   UNL     1       7.553   6.124  21.344  0.00  0.00    -0.392 OA
ATOM     42  H   UNL     1       7.386   7.021  21.011  0.00  0.00    +0.210 HD
ENDBRANCH  40  41
ENDBRANCH  29  40
ENDBRANCH  26  27
ENDBRANCH   7  26
TORSDOF 12
ENDMDL
MODEL 2
REMARK VINA RESULT:      -7.3      1.489      2.235
REMARK  Name = 
REMARK  13 active torsions:
REMARK  status: ('A' for Active; 'I' for Inactive)
REMARK    1  A    between atoms: C_1  and  O_2
REMARK    2  A    between atoms: O_2  and  C_3
REMARK    3  A    between atoms: C_4  and  O_37
REMARK    4  A    between atoms: C_7  and  C_9
REMARK    5  A    between atoms: C_10  and  O_36
REMARK    6  A    between atoms: C_14  and  O_35
REMARK    7  A    between atoms: C_16  and  O_20
REMARK    8  A    between atoms: O_20  and  C_21
REMARK    9  A    between atoms: C_23  and  N_34
REMARK   10  A    between atoms: C_24  and  O_33
REMARK   11  A    between atoms: C_26  and  O_32
REMARK   12  A    between atoms: C_28  and  C_30
REMARK   13  A    between atoms: C_30  and  O_31
REMARK                            x       y       z     vdW  Elec       q    Type
REMARK                         _______ _______ _______ _____ _____    ______ ____
ROOT
ATOM      1  C   UNL     1       6.876  -4.401  25.412  0.00  0.00    +0.181 A 
ATOM      2  O   UNL     1       6.379  -3.219  24.877  0.00  0.00    -0.451 OA
ATOM      3  C   UNL     1       7.195  -2.477  24.062  0.00  0.00    +0.147 A 
ATOM      4  C   UNL     1       8.529  -2.799  23.857  0.00  0.00    +0.109 A 
ATOM      5  C   UNL     1       9.294  -2.058  22.954  0.00  0.00    +0.135 A 
ATOM      6  C   UNL     1       8.741  -0.969  22.284  0.00  0.00    +0.092 A 
ATOM      7  C   UNL     1       7.468  -0.533  22.633  0.00  0.00    +0.131 A 
ATOM      8  C   UNL     1       9.111  -3.908  24.617  0.00  0.00    +0.238 A 
ATOM      9  O   UNL     1      10.328  -4.066  24.628  0.00  0.00    -0.283 OA
ATOM     10  C   UNL     1       6.665  -1.334  23.460  0.00  0.00    +0.093 A 
ATOM     11  C   UNL     1       8.162  -4.801  25.330  0.00  0.00    +0.208 A 
ENDROOT
BRANCH   1  14
ATOM     12  C   UNL     1       4.170  -6.977  25.806  0.00  0.00    +0.162 A 
ATOM     13  C   UNL     1       5.217  -6.223  25.274  0.00  0.00    +0.061 A 
ATOM     14  C   UNL     1       5.835  -5.225  26.040  0.00  0.00    +0.025 A 
ATOM     15  C   UNL     1       5.439  -5.030  27.371  0.00  0.00    +0.015 A 
ATOM     16  C   UNL     1       4.426  -5.819  27.923  0.00  0.00    +0.050 A 
ATOM     17  C   UNL     1       3.799  -6.781  27.138  0.00  0.00    +0.158 A 
BRANCH  12  19
ATOM     18  C   UNL     1       2.655  -7.400  24.065  0.00  0.00    +0.277 C 
ATOM     19  O   UNL     1       3.468  -7.929  25.112  0.00  0.00    -0.491 OA
ENDBRANCH  12  19
BRANCH  17  20
ATOM     20  O   UNL     1       2.784  -7.509  27.693  0.00  0.00    -0.503 OA
ATOM     21  H   UNL     1       3.215  -8.111  28.331  0.00  0.00    +0.292 HD
ENDBRANCH  17  20
ENDBRANCH   1  14
BRANCH   5  22
ATOM     22  O   UNL     1      10.618  -2.308  22.716  0.00  0.00    -0.506 OA
ATOM     23  H   UNL     1      10.989  -2.759  23.514  0.00  0.00    +0.292 HD
ENDBRANCH   5  22
BRANCH  11  24
ATOM     24  O   UNL     1       8.656  -5.994  25.819  0.00  0.00    -0.501 OA
ATOM     25  H   UNL     1       8.038  -6.715  25.613  0.00  0.00    +0.292 HD
ENDBRANCH  11  24
BRANCH   7  26
ATOM     26  O   UNL     1       6.926   0.666  22.285  0.00  0.00    -0.462 OA
BRANCH  26  27
ATOM     27  C   UNL     1       6.943   1.789  23.194  0.00  0.00    +0.327 C 
ATOM     28  O   UNL     1       8.306   2.260  23.154  0.00  0.00    -0.332 OA
ATOM     29  C   UNL     1       8.609   3.433  23.920  0.00  0.00    +0.179 C 
ATOM     30  C   UNL     1       7.710   4.618  23.534  0.00  0.00    +0.176 C 
ATOM     31  C   UNL     1       6.244   4.209  23.647  0.00  0.00    +0.168 C 
ATOM     32  C   UNL     1       5.959   2.954  22.787  0.00  0.00    +0.152 C 
BRANCH  32  33
ATOM     33  N   UNL     1       4.500   2.742  22.865  0.00  0.00    -0.320 NA
ATOM     34  H   UNL     1       4.210   1.945  22.303  0.00  0.00    +0.119 HD
ATOM     35  H   UNL     1       4.197   2.585  23.827  0.00  0.00    +0.119 HD
ENDBRANCH  32  33
BRANCH  30  36
ATOM     36  O   UNL     1       7.991   5.048  22.198  0.00  0.00    -0.387 OA
ATOM     37  H   UNL     1       8.927   5.314  22.150  0.00  0.00    +0.210 HD
ENDBRANCH  30  36
BRANCH  31  38
ATOM     38  O   UNL     1       5.873   4.041  25.025  0.00  0.00    -0.387 OA
ATOM     39  H   UNL     1       6.165   3.178  25.355  0.00  0.00    +0.210 HD
ENDBRANCH  31  38
BRANCH  29  40
ATOM     40  C   UNL     1      10.088   3.805  23.690  0.00  0.00    +0.190 C 
BRANCH  40  41
ATOM     41  O   UNL     1      10.640   3.181  22.530  0.00  0.00    -0.392 OA
ATOM     42  H   UNL     1      11.474   3.624  22.307  0.00  0.00    +0.210 HD
ENDBRANCH  40  41
ENDBRANCH  29  40
ENDBRANCH  26  27
ENDBRANCH   7  26
TORSDOF 12
ENDMDL
MODEL 3
REMARK VINA RESULT:      -7.3      2.538      9.045
REMARK  Name = 
REMARK  13 active torsions:
REMARK  status: ('A' for Active; 'I' for Inactive)
REMARK    1  A    between atoms: C_1  and  O_2
REMARK    2  A    between atoms: O_2  and  C_3
REMARK    3  A    between atoms: C_4  and  O_37
REMARK    4  A    between atoms: C_7  and  C_9
REMARK    5  A    between atoms: C_10  and  O_36
REMARK    6  A    between atoms: C_14  and  O_35
REMARK    7  A    between atoms: C_16  and  O_20
REMARK    8  A    between atoms: O_20  and  C_21
REMARK    9  A    between atoms: C_23  and  N_34
REMARK   10  A    between atoms: C_24  and  O_33
REMARK   11  A    between atoms: C_26  and  O_32
REMARK   12  A    between atoms: C_28  and  C_30
REMARK   13  A    between atoms: C_30  and  O_31
REMARK                            x       y       z     vdW  Elec       q    Type
REMARK                         _______ _______ _______ _____ _____    ______ ____
ROOT
ATOM      1  C   UNL     1       8.530   1.400  23.259  0.00  0.00    +0.181 A 
ATOM      2  O   UNL     1       7.766   0.852  24.282  0.00  0.00    -0.451 OA
ATOM      3  C   UNL     1       8.046  -0.427  24.691  0.00  0.00    +0.147 A 
ATOM      4  C   UNL     1       8.973  -1.229  24.040  0.00  0.00    +0.109 A 
ATOM      5  C   UNL     1       9.279  -2.493  24.548  0.00  0.00    +0.135 A 
ATOM      6  C   UNL     1       8.631  -2.977  25.682  0.00  0.00    +0.092 A 
ATOM      7  C   UNL     1       7.571  -2.255  26.218  0.00  0.00    +0.131 A 
ATOM      8  C   UNL     1       9.598  -0.729  22.814  0.00  0.00    +0.238 A 
ATOM      9  O   UNL     1      10.238  -1.496  22.101  0.00  0.00    -0.283 OA
ATOM     10  C   UNL     1       7.333  -0.945  25.775  0.00  0.00    +0.093 A 
ATOM     11  C   UNL     1       9.424   0.716  22.515  0.00  0.00    +0.208 A 
ENDROOT
BRANCH   1  14
ATOM     12  C   UNL     1       8.949   5.107  23.705  0.00  0.00    +0.162 A 
ATOM     13  C   UNL     1       9.167   3.729  23.769  0.00  0.00    +0.061 A 
ATOM     14  C   UNL     1       8.314   2.844  23.097  0.00  0.00    +0.025 A 
ATOM     15  C   UNL     1       7.276   3.352  22.302  0.00  0.00    +0.015 A 
ATOM     16  C   UNL     1       7.088   4.732  22.195  0.00  0.00    +0.050 A 
ATOM     17  C   UNL     1       7.921   5.596  22.897  0.00  0.00    +0.158 A 
BRANCH  12  19
ATOM     18  C   UNL     1      11.083   6.017  24.060  0.00  0.00    +0.277 C 
ATOM     19  O   UNL     1       9.693   6.042  24.379  0.00  0.00    -0.491 OA
ENDBRANCH  12  19
BRANCH  17  20
ATOM     20  O   UNL     1       7.688   6.940  22.805  0.00  0.00    -0.503 OA
ATOM     21  H   UNL     1       8.541   7.335  22.539  0.00  0.00    +0.292 HD
ENDBRANCH  17  20
ENDBRANCH   1  14
BRANCH   5  22
ATOM     22  O   UNL     1      10.168  -3.343  23.948  0.00  0.00    -0.506 OA
ATOM     23  H   UNL     1       9.650  -4.008  23.432  0.00  0.00    +0.292 HD
ENDBRANCH   5  22
BRANCH  11  24
ATOM     24  O   UNL     1      10.219   1.261  21.527  0.00  0.00    -0.501 OA
ATOM     25  H   UNL     1      10.741   1.995  21.892  0.00  0.00    +0.292 HD
ENDBRANCH  11  24
BRANCH   7  26
ATOM     26  O   UNL     1       6.672  -2.733  27.122  0.00  0.00    -0.462 OA
BRANCH  26  27
ATOM     27  C   UNL     1       5.874  -3.903  26.839  0.00  0.00    +0.327 C 
ATOM     28  O   UNL     1       5.173  -3.571  25.622  0.00  0.00    -0.332 OA
ATOM     29  C   UNL     1       4.342  -4.592  25.054  0.00  0.00    +0.179 C 
ATOM     30  C   UNL     1       5.128  -5.886  24.784  0.00  0.00    +0.176 C 
ATOM     31  C   UNL     1       5.821  -6.342  26.064  0.00  0.00    +0.168 C 
ATOM     32  C   UNL     1       6.722  -5.218  26.629  0.00  0.00    +0.152 C 
BRANCH  32  33
ATOM     33  N   UNL     1       7.439  -5.817  27.772  0.00  0.00    -0.320 NA
ATOM     34  H   UNL     1       8.088  -6.539  27.467  0.00  0.00    +0.119 HD
ATOM     35  H   UNL     1       7.962  -5.113  28.294  0.00  0.00    +0.119 HD
ENDBRANCH  32  33
BRANCH  30  36
ATOM     36  O   UNL     1       6.100  -5.679  23.755  0.00  0.00    -0.387 OA
ATOM     37  H   UNL     1       6.771  -6.382  23.818  0.00  0.00    +0.210 HD
ENDBRANCH  30  36
BRANCH  31  38
ATOM     38  O   UNL     1       4.857  -6.819  27.017  0.00  0.00    -0.387 OA
ATOM     39  H   UNL     1       5.300  -7.252  27.764  0.00  0.00    +0.210 HD
ENDBRANCH  31  38
BRANCH  29  40
ATOM     40  C   UNL     1       3.742  -4.064  23.736  0.00  0.00    +0.190 C 
BRANCH  40  41
ATOM     41  O   UNL     1       3.336  -5.112  22.855  0.00  0.00    -0.392 OA
ATOM     42  H   UNL     1       3.389  -4.787  21.942  0.00  0.00    +0.210 HD
ENDBRANCH  40  41
ENDBRANCH  29  40
ENDBRANCH  26  27
ENDBRANCH   7  26
TORSDOF 12
ENDMDL
MODEL 4
REMARK VINA RESULT:      -7.3      2.065      2.680
REMARK  Name = 
REMARK  13 active torsions:
REMARK  status: ('A' for Active; 'I' for Inactive)
REMARK    1  A    between atoms: C_1  and  O_2
REMARK    2  A    between atoms: O_2  and  C_3
REMARK    3  A    between atoms: C_4  and  O_37
REMARK    4  A    between atoms: C_7  and  C_9
REMARK    5  A    between atoms: C_10  and  O_36
REMARK    6  A    between atoms: C_14  and  O_35
REMARK    7  A    between atoms: C_16  and  O_20
REMARK    8  A    between atoms: O_20  and  C_21
REMARK    9  A    between atoms: C_23  and  N_34
REMARK   10  A    between atoms: C_24  and  O_33
REMARK   11  A    between atoms: C_26  and  O_32
REMARK   12  A    between atoms: C_28  and  C_30
REMARK   13  A    between atoms: C_30  and  O_31
REMARK                            x       y       z     vdW  Elec       q    Type
REMARK                         _______ _______ _______ _____ _____    ______ ____
ROOT
ATOM      1  C   UNL     1       6.310  -2.919  24.243  0.00  0.00    +0.181 A 
ATOM      2  O   UNL     1       6.292  -1.615  23.763  0.00  0.00    -0.451 OA
ATOM      3  C   UNL     1       7.436  -1.112  23.197  0.00  0.00    +0.147 A 
ATOM      4  C   UNL     1       8.634  -1.812  23.200  0.00  0.00    +0.109 A 
ATOM      5  C   UNL     1       9.747  -1.290  22.538  0.00  0.00    +0.135 A 
ATOM      6  C   UNL     1       9.679  -0.051  21.906  0.00  0.00    +0.092 A 
ATOM      7  C   UNL     1       8.541   0.731  22.066  0.00  0.00    +0.131 A 
ATOM      8  C   UNL     1       8.706  -3.084  23.923  0.00  0.00    +0.238 A 
ATOM      9  O   UNL     1       9.797  -3.603  24.135  0.00  0.00    -0.283 OA
ATOM     10  C   UNL     1       7.390   0.168  22.640  0.00  0.00    +0.093 A 
ATOM     11  C   UNL     1       7.415  -3.684  24.349  0.00  0.00    +0.208 A 
ENDROOT
BRANCH   1  14
ATOM     12  C   UNL     1       2.965  -4.587  23.857  0.00  0.00    +0.162 A 
ATOM     13  C   UNL     1       4.270  -4.157  23.611  0.00  0.00    +0.061 A 
ATOM     14  C   UNL     1       4.970  -3.421  24.576  0.00  0.00    +0.025 A 
ATOM     15  C   UNL     1       4.377  -3.175  25.823  0.00  0.00    +0.015 A 
ATOM     16  C   UNL     1       3.090  -3.649  26.091  0.00  0.00    +0.050 A 
ATOM     17  C   UNL     1       2.395  -4.346  25.109  0.00  0.00    +0.158 A 
BRANCH  12  19
ATOM     18  C   UNL     1       2.375  -6.669  22.951  0.00  0.00    +0.277 C 
ATOM     19  O   UNL     1       2.184  -5.256  22.950  0.00  0.00    -0.491 OA
ENDBRANCH  12  19
BRANCH  17  20
ATOM     20  O   UNL     1       1.123  -4.762  25.386  0.00  0.00    -0.503 OA
ATOM     21  H   UNL     1       0.822  -5.233  24.584  0.00  0.00    +0.292 HD
ENDBRANCH  17  20
ENDBRANCH   1  14
BRANCH   5  22
ATOM     22  O   UNL     1      10.964  -1.916  22.516  0.00  0.00    -0.506 OA
ATOM     23  H   UNL     1      11.100  -2.284  21.609  0.00  0.00    +0.292 HD
ENDBRANCH   5  22
BRANCH  11  24
ATOM     24  O   UNL     1       7.436  -4.995  24.782  0.00  0.00    -0.501 OA
ATOM     25  H   UNL     1       6.660  -5.170  25.340  0.00  0.00    +0.292 HD
ENDBRANCH  11  24
BRANCH   7  26
ATOM     26  O   UNL     1       8.448   2.055  21.764  0.00  0.00    -0.462 OA
BRANCH  26  27
ATOM     27  C   UNL     1       8.018   3.021  22.748  0.00  0.00    +0.327 C 
ATOM     28  O   UNL     1       9.200   3.801  23.022  0.00  0.00    -0.332 OA
ATOM     29  C   UNL     1       9.054   4.902  23.929  0.00  0.00    +0.179 C 
ATOM     30  C   UNL     1       7.963   5.882  23.469  0.00  0.00    +0.176 C 
ATOM     31  C   UNL     1       6.655   5.128  23.250  0.00  0.00    +0.168 C 
ATOM     32  C   UNL     1       6.855   3.965  22.249  0.00  0.00    +0.152 C 
BRANCH  32  33
ATOM     33  N   UNL     1       5.509   3.407  22.013  0.00  0.00    -0.320 NA
ATOM     34  H   UNL     1       4.796   3.927  22.516  0.00  0.00    +0.119 HD
ATOM     35  H   UNL     1       5.272   3.414  21.019  0.00  0.00    +0.119 HD
ENDBRANCH  32  33
BRANCH  30  36
ATOM     36  O   UNL     1       8.353   6.537  22.259  0.00  0.00    -0.387 OA
ATOM     37  H   UNL     1       8.350   5.881  21.538  0.00  0.00    +0.210 HD
ENDBRANCH  30  36
BRANCH  31  38
ATOM     38  O   UNL     1       6.103   4.699  24.505  0.00  0.00    -0.387 OA
ATOM     39  H   UNL     1       5.825   3.771  24.457  0.00  0.00    +0.210 HD
ENDBRANCH  31  38
BRANCH  29  40
ATOM     40  C   UNL     1      10.405   5.638  24.034  0.00  0.00    +0.190 C 
BRANCH  40  41
ATOM     41  O   UNL     1      11.135   5.629  22.807  0.00  0.00    -0.392 OA
ATOM     42  H   UNL     1      10.508   5.720  22.072  0.00  0.00    +0.210 HD
ENDBRANCH  40  41
ENDBRANCH  29  40
ENDBRANCH  26  27
ENDBRANCH   7  26
TORSDOF 12
ENDMDL
MODEL 5
REMARK VINA RESULT:      -7.1      2.348      8.755
REMARK  Name = 
REMARK  13 active torsions:
REMARK  status: ('A' for Active; 'I' for Inactive)
REMARK    1  A    between atoms: C_1  and  O_2
REMARK    2  A    between atoms: O_2  and  C_3
REMARK    3  A    between atoms: C_4  and  O_37
REMARK    4  A    between atoms: C_7  and  C_9
REMARK    5  A    between atoms: C_10  and  O_36
REMARK    6  A    between atoms: C_14  and  O_35
REMARK    7  A    between atoms: C_16  and  O_20
REMARK    8  A    between atoms: O_20  and  C_21
REMARK    9  A    between atoms: C_23  and  N_34
REMARK   10  A    between atoms: C_24  and  O_33
REMARK   11  A    between atoms: C_26  and  O_32
REMARK   12  A    between atoms: C_28  and  C_30
REMARK   13  A    between atoms: C_30  and  O_31
REMARK                            x       y       z     vdW  Elec       q    Type
REMARK                         _______ _______ _______ _____ _____    ______ ____
ROOT
ATOM      1  C   UNL     1       7.730   2.305  23.800  0.00  0.00    +0.181 A 
ATOM      2  O   UNL     1       6.798   1.274  23.822  0.00  0.00    -0.451 OA
ATOM      3  C   UNL     1       7.152   0.063  23.284  0.00  0.00    +0.147 A 
ATOM      4  C   UNL     1       8.352  -0.128  22.612  0.00  0.00    +0.109 A 
ATOM      5  C   UNL     1       8.699  -1.401  22.156  0.00  0.00    +0.135 A 
ATOM      6  C   UNL     1       7.832  -2.477  22.331  0.00  0.00    +0.092 A 
ATOM      7  C   UNL     1       6.555  -2.247  22.830  0.00  0.00    +0.131 A 
ATOM      8  C   UNL     1       9.222   1.027  22.381  0.00  0.00    +0.238 A 
ATOM      9  O   UNL     1      10.164   0.933  21.601  0.00  0.00    -0.283 OA
ATOM     10  C   UNL     1       6.245  -0.994  23.382  0.00  0.00    +0.093 A 
ATOM     11  C   UNL     1       8.906   2.264  23.141  0.00  0.00    +0.208 A 
ENDROOT
BRANCH   1  14
ATOM     12  C   UNL     1       7.201   4.445  26.842  0.00  0.00    +0.162 A 
ATOM     13  C   UNL     1       7.628   3.415  26.002  0.00  0.00    +0.061 A 
ATOM     14  C   UNL     1       7.334   3.449  24.632  0.00  0.00    +0.025 A 
ATOM     15  C   UNL     1       6.664   4.558  24.095  0.00  0.00    +0.015 A 
ATOM     16  C   UNL     1       6.282   5.615  24.925  0.00  0.00    +0.050 A 
ATOM     17  C   UNL     1       6.549   5.549  26.289  0.00  0.00    +0.158 A 
BRANCH  12  19
ATOM     18  C   UNL     1       6.778   3.374  28.887  0.00  0.00    +0.277 C 
ATOM     19  O   UNL     1       7.388   4.466  28.201  0.00  0.00    -0.491 OA
ENDBRANCH  12  19
BRANCH  17  20
ATOM     20  O   UNL     1       6.127   6.579  27.082  0.00  0.00    -0.503 OA
ATOM     21  H   UNL     1       6.471   7.390  26.661  0.00  0.00    +0.292 HD
ENDBRANCH  17  20
ENDBRANCH   1  14
BRANCH   5  22
ATOM     22  O   UNL     1       9.855  -1.659  21.471  0.00  0.00    -0.506 OA
ATOM     23  H   UNL     1      10.592  -1.704  22.127  0.00  0.00    +0.292 HD
ENDBRANCH   5  22
BRANCH  11  24
ATOM     24  O   UNL     1       9.857   3.265  23.150  0.00  0.00    -0.501 OA
ATOM     25  H   UNL     1      10.644   2.968  23.636  0.00  0.00    +0.292 HD
ENDBRANCH  11  24
BRANCH   7  26
ATOM     26  O   UNL     1       5.521  -3.130  22.780  0.00  0.00    -0.462 OA
BRANCH  26  27
ATOM     27  C   UNL     1       5.620  -4.436  23.389  0.00  0.00    +0.327 C 
ATOM     28  O   UNL     1       6.532  -4.247  24.491  0.00  0.00    -0.332 OA
ATOM     29  C   UNL     1       6.771  -5.381  25.335  0.00  0.00    +0.179 C 
ATOM     30  C   UNL     1       5.467  -5.945  25.921  0.00  0.00    +0.176 C 
ATOM     31  C   UNL     1       4.488  -6.253  24.792  0.00  0.00    +0.168 C 
ATOM     32  C   UNL     1       4.244  -4.997  23.922  0.00  0.00    +0.152 C 
BRANCH  32  33
ATOM     33  N   UNL     1       3.187  -5.376  22.963  0.00  0.00    -0.320 NA
ATOM     34  H   UNL     1       3.478  -5.209  22.003  0.00  0.00    +0.119 HD
ATOM     35  H   UNL     1       2.935  -6.362  23.056  0.00  0.00    +0.119 HD
ENDBRANCH  32  33
BRANCH  30  36
ATOM     36  O   UNL     1       4.878  -5.009  26.830  0.00  0.00    -0.387 OA
ATOM     37  H   UNL     1       4.194  -4.505  26.354  0.00  0.00    +0.210 HD
ENDBRANCH  30  36
BRANCH  31  38
ATOM     38  O   UNL     1       4.938  -7.385  24.030  0.00  0.00    -0.387 OA
ATOM     39  H   UNL     1       5.243  -7.106  23.152  0.00  0.00    +0.210 HD
ENDBRANCH  31  38
BRANCH  29  40
ATOM     40  C   UNL     1       7.714  -4.955  26.478  0.00  0.00    +0.190 C 
BRANCH  40  41
ATOM     41  O   UNL     1       7.717  -5.881  27.565  0.00  0.00    -0.392 OA
ATOM     42  H   UNL     1       8.547  -5.777  28.059  0.00  0.00    +0.210 HD
ENDBRANCH  40  41
ENDBRANCH  29  40
ENDBRANCH  26  27
ENDBRANCH   7  26
TORSDOF 12
ENDMDL
MODEL 6
REMARK VINA RESULT:      -7.1      2.610      8.794
REMARK  Name = 
REMARK  13 active torsions:
REMARK  status: ('A' for Active; 'I' for Inactive)
REMARK    1  A    between atoms: C_1  and  O_2
REMARK    2  A    between atoms: O_2  and  C_3
REMARK    3  A    between atoms: C_4  and  O_37
REMARK    4  A    between atoms: C_7  and  C_9
REMARK    5  A    between atoms: C_10  and  O_36
REMARK    6  A    between atoms: C_14  and  O_35
REMARK    7  A    between atoms: C_16  and  O_20
REMARK    8  A    between atoms: O_20  and  C_21
REMARK    9  A    between atoms: C_23  and  N_34
REMARK   10  A    between atoms: C_24  and  O_33
REMARK   11  A    between atoms: C_26  and  O_32
REMARK   12  A    between atoms: C_28  and  C_30
REMARK   13  A    between atoms: C_30  and  O_31
REMARK                            x       y       z     vdW  Elec       q    Type
REMARK                         _______ _______ _______ _____ _____    ______ ____
ROOT
ATOM      1  C   UNL     1       8.471  -0.199  24.243  0.00  0.00    +0.181 A 
ATOM      2  O   UNL     1       7.606  -0.769  25.168  0.00  0.00    -0.451 OA
ATOM      3  C   UNL     1       7.851  -2.052  25.587  0.00  0.00    +0.147 A 
ATOM      4  C   UNL     1       8.853  -2.835  25.030  0.00  0.00    +0.109 A 
ATOM      5  C   UNL     1       9.114  -4.104  25.550  0.00  0.00    +0.135 A 
ATOM      6  C   UNL     1       8.351  -4.611  26.599  0.00  0.00    +0.092 A 
ATOM      7  C   UNL     1       7.231  -3.907  27.026  0.00  0.00    +0.131 A 
ATOM      8  C   UNL     1       9.603  -2.311  23.887  0.00  0.00    +0.238 A 
ATOM      9  O   UNL     1      10.325  -3.061  23.237  0.00  0.00    -0.283 OA
ATOM     10  C   UNL     1       7.030  -2.592  26.579  0.00  0.00    +0.093 A 
ATOM     11  C   UNL     1       9.448  -0.863  23.592  0.00  0.00    +0.208 A 
ENDROOT
BRANCH   1  14
ATOM     12  C   UNL     1       7.036   3.042  22.995  0.00  0.00    +0.162 A 
ATOM     13  C   UNL     1       7.224   1.680  23.240  0.00  0.00    +0.061 A 
ATOM     14  C   UNL     1       8.259   1.246  24.079  0.00  0.00    +0.025 A 
ATOM     15  C   UNL     1       9.066   2.191  24.728  0.00  0.00    +0.015 A 
ATOM     16  C   UNL     1       8.847   3.556  24.526  0.00  0.00    +0.050 A 
ATOM     17  C   UNL     1       7.839   3.970  23.661  0.00  0.00    +0.158 A 
BRANCH  12  19
ATOM     18  C   UNL     1       4.748   3.286  22.537  0.00  0.00    +0.277 C 
ATOM     19  O   UNL     1       6.092   3.554  22.142  0.00  0.00    -0.491 OA
ENDBRANCH  12  19
BRANCH  17  20
ATOM     20  O   UNL     1       7.674   5.311  23.452  0.00  0.00    -0.503 OA
ATOM     21  H   UNL     1       6.962   5.584  24.063  0.00  0.00    +0.292 HD
ENDBRANCH  17  20
ENDBRANCH   1  14
BRANCH   5  22
ATOM     22  O   UNL     1      10.072  -4.937  25.039  0.00  0.00    -0.506 OA
ATOM     23  H   UNL     1      10.848  -4.918  25.651  0.00  0.00    +0.292 HD
ENDBRANCH   5  22
BRANCH  11  24
ATOM     24  O   UNL     1      10.340  -0.296  22.704  0.00  0.00    -0.501 OA
ATOM     25  H   UNL     1      10.725  -0.985  22.138  0.00  0.00    +0.292 HD
ENDBRANCH  11  24
BRANCH   7  26
ATOM     26  O   UNL     1       6.244  -4.406  27.819  0.00  0.00    -0.462 OA
BRANCH  26  27
ATOM     27  C   UNL     1       5.094  -5.072  27.254  0.00  0.00    +0.327 C 
ATOM     28  O   UNL     1       4.924  -4.456  25.960  0.00  0.00    -0.332 OA
ATOM     29  C   UNL     1       3.879  -4.975  25.127  0.00  0.00    +0.179 C 
ATOM     30  C   UNL     1       4.032  -6.487  24.891  0.00  0.00    +0.176 C 
ATOM     31  C   UNL     1       4.125  -7.210  26.231  0.00  0.00    +0.168 C 
ATOM     32  C   UNL     1       5.278  -6.632  27.086  0.00  0.00    +0.152 C 
BRANCH  32  33
ATOM     33  N   UNL     1       5.357  -7.492  28.282  0.00  0.00    -0.320 NA
ATOM     34  H   UNL     1       4.451  -7.586  28.735  0.00  0.00    +0.119 HD
ATOM     35  H   UNL     1       5.698  -8.426  28.047  0.00  0.00    +0.119 HD
ENDBRANCH  32  33
BRANCH  30  36
ATOM     36  O   UNL     1       5.203  -6.757  24.113  0.00  0.00    -0.387 OA
ATOM     37  H   UNL     1       5.626  -5.909  23.888  0.00  0.00    +0.210 HD
ENDBRANCH  30  36
BRANCH  31  38
ATOM     38  O   UNL     1       2.857  -7.182  26.907  0.00  0.00    -0.387 OA
ATOM     39  H   UNL     1       2.953  -6.812  27.798  0.00  0.00    +0.210 HD
ENDBRANCH  31  38
BRANCH  29  40
ATOM     40  C   UNL     1       3.908  -4.231  23.778  0.00  0.00    +0.190 C 
BRANCH  40  41
ATOM     41  O   UNL     1       3.481  -5.049  22.687  0.00  0.00    -0.392 OA
ATOM     42  H   UNL     1       4.249  -5.535  22.345  0.00  0.00    +0.210 HD
ENDBRANCH  40  41
ENDBRANCH  29  40
ENDBRANCH  26  27
ENDBRANCH   7  26
TORSDOF 12
ENDMDL
MODEL 7
REMARK VINA RESULT:      -7.1      1.399      1.728
REMARK  Name = 
REMARK  13 active torsions:
REMARK  status: ('A' for Active; 'I' for Inactive)
REMARK    1  A    between atoms: C_1  and  O_2
REMARK    2  A    between atoms: O_2  and  C_3
REMARK    3  A    between atoms: C_4  and  O_37
REMARK    4  A    between atoms: C_7  and  C_9
REMARK    5  A    between atoms: C_10  and  O_36
REMARK    6  A    between atoms: C_14  and  O_35
REMARK    7  A    between atoms: C_16  and  O_20
REMARK    8  A    between atoms: O_20  and  C_21
REMARK    9  A    between atoms: C_23  and  N_34
REMARK   10  A    between atoms: C_24  and  O_33
REMARK   11  A    between atoms: C_26  and  O_32
REMARK   12  A    between atoms: C_28  and  C_30
REMARK   13  A    between atoms: C_30  and  O_31
REMARK                            x       y       z     vdW  Elec       q    Type
REMARK                         _______ _______ _______ _____ _____    ______ ____
ROOT
ATOM      1  C   UNL     1       7.171  -3.640  24.311  0.00  0.00    +0.181 A 
ATOM      2  O   UNL     1       6.610  -2.379  24.146  0.00  0.00    -0.451 OA
ATOM      3  C   UNL     1       7.341  -1.420  23.492  0.00  0.00    +0.147 A 
ATOM      4  C   UNL     1       8.657  -1.628  23.104  0.00  0.00    +0.109 A 
ATOM      5  C   UNL     1       9.329  -0.649  22.369  0.00  0.00    +0.135 A 
ATOM      6  C   UNL     1       8.703   0.555  22.055  0.00  0.00    +0.092 A 
ATOM      7  C   UNL     1       7.458   0.837  22.606  0.00  0.00    +0.131 A 
ATOM      8  C   UNL     1       9.320  -2.873  23.497  0.00  0.00    +0.238 A 
ATOM      9  O   UNL     1      10.536  -2.982  23.369  0.00  0.00    -0.283 OA
ATOM     10  C   UNL     1       6.743  -0.181  23.255  0.00  0.00    +0.093 A 
ATOM     11  C   UNL     1       8.450  -3.956  24.024  0.00  0.00    +0.208 A 
ENDROOT
BRANCH   1  14
ATOM     12  C   UNL     1       5.532  -6.214  26.502  0.00  0.00    +0.162 A 
ATOM     13  C   UNL     1       6.385  -5.207  26.048  0.00  0.00    +0.061 A 
ATOM     14  C   UNL     1       6.201  -4.638  24.781  0.00  0.00    +0.025 A 
ATOM     15  C   UNL     1       5.110  -5.038  23.995  0.00  0.00    +0.015 A 
ATOM     16  C   UNL     1       4.224  -6.009  24.469  0.00  0.00    +0.050 A 
ATOM     17  C   UNL     1       4.443  -6.590  25.713  0.00  0.00    +0.158 A 
BRANCH  12  19
ATOM     18  C   UNL     1       6.032  -6.022  28.787  0.00  0.00    +0.277 C 
ATOM     19  O   UNL     1       5.674  -6.871  27.698  0.00  0.00    -0.491 OA
ENDBRANCH  12  19
BRANCH  17  20
ATOM     20  O   UNL     1       3.582  -7.566  26.133  0.00  0.00    -0.503 OA
ATOM     21  H   UNL     1       4.136  -8.213  26.612  0.00  0.00    +0.292 HD
ENDBRANCH  17  20
ENDBRANCH   1  14
BRANCH   5  22
ATOM     22  O   UNL     1      10.631  -0.778  21.969  0.00  0.00    -0.506 OA
ATOM     23  H   UNL     1      11.099   0.066  22.184  0.00  0.00    +0.292 HD
ENDBRANCH   5  22
BRANCH  11  24
ATOM     24  O   UNL     1       9.004  -5.215  24.142  0.00  0.00    -0.501 OA
ATOM     25  H   UNL     1       8.605  -5.813  23.487  0.00  0.00    +0.292 HD
ENDBRANCH  11  24
BRANCH   7  26
ATOM     26  O   UNL     1       6.869   2.064  22.630  0.00  0.00    -0.462 OA
BRANCH  26  27
ATOM     27  C   UNL     1       7.656   3.272  22.713  0.00  0.00    +0.327 C 
ATOM     28  O   UNL     1       6.760   4.313  22.269  0.00  0.00    -0.332 OA
ATOM     29  C   UNL     1       7.256   5.657  22.313  0.00  0.00    +0.179 C 
ATOM     30  C   UNL     1       7.738   6.045  23.721  0.00  0.00    +0.176 C 
ATOM     31  C   UNL     1       8.763   5.028  24.212  0.00  0.00    +0.168 C 
ATOM     32  C   UNL     1       8.177   3.596  24.168  0.00  0.00    +0.152 C 
BRANCH  32  33
ATOM     33  N   UNL     1       9.196   2.729  24.790  0.00  0.00    -0.320 NA
ATOM     34  H   UNL     1       9.912   3.275  25.263  0.00  0.00    +0.119 HD
ATOM     35  H   UNL     1       8.778   2.090  25.469  0.00  0.00    +0.119 HD
ENDBRANCH  32  33
BRANCH  30  36
ATOM     36  O   UNL     1       6.635   6.100  24.631  0.00  0.00    -0.387 OA
ATOM     37  H   UNL     1       5.873   6.495  24.170  0.00  0.00    +0.210 HD
ENDBRANCH  30  36
BRANCH  31  38
ATOM     38  O   UNL     1       9.990   5.154  23.476  0.00  0.00    -0.387 OA
ATOM     39  H   UNL     1      10.706   4.674  23.921  0.00  0.00    +0.210 HD
ENDBRANCH  31  38
BRANCH  29  40
ATOM     40  C   UNL     1       6.133   6.613  21.865  0.00  0.00    +0.190 C 
BRANCH  40  41
ATOM     41  O   UNL     1       4.829   6.073  22.082  0.00  0.00    -0.392 OA
ATOM     42  H   UNL     1       4.242   6.789  22.374  0.00  0.00    +0.210 HD
ENDBRANCH  40  41
ENDBRANCH  29  40
ENDBRANCH  26  27
ENDBRANCH   7  26
TORSDOF 12
ENDMDL
MODEL 8
REMARK VINA RESULT:      -7.0      1.496      2.316
REMARK  Name = 
REMARK  13 active torsions:
REMARK  status: ('A' for Active; 'I' for Inactive)
REMARK    1  A    between atoms: C_1  and  O_2
REMARK    2  A    between atoms: O_2  and  C_3
REMARK    3  A    between atoms: C_4  and  O_37
REMARK    4  A    between atoms: C_7  and  C_9
REMARK    5  A    between atoms: C_10  and  O_36
REMARK    6  A    between atoms: C_14  and  O_35
REMARK    7  A    between atoms: C_16  and  O_20
REMARK    8  A    between atoms: O_20  and  C_21
REMARK    9  A    between atoms: C_23  and  N_34
REMARK   10  A    between atoms: C_24  and  O_33
REMARK   11  A    between atoms: C_26  and  O_32
REMARK   12  A    between atoms: C_28  and  C_30
REMARK   13  A    between atoms: C_30  and  O_31
REMARK                            x       y       z     vdW  Elec       q    Type
REMARK                         _______ _______ _______ _____ _____    ______ ____
ROOT
ATOM      1  C   UNL     1       7.595  -3.381  24.935  0.00  0.00    +0.181 A 
ATOM      2  O   UNL     1       6.915  -2.177  24.795  0.00  0.00    -0.451 OA
ATOM      3  C   UNL     1       7.399  -1.254  23.904  0.00  0.00    +0.147 A 
ATOM      4  C   UNL     1       8.604  -1.428  23.236  0.00  0.00    +0.109 A 
ATOM      5  C   UNL     1       9.011  -0.497  22.279  0.00  0.00    +0.135 A 
ATOM      6  C   UNL     1       8.238   0.631  22.014  0.00  0.00    +0.092 A 
ATOM      7  C   UNL     1       7.134   0.900  22.815  0.00  0.00    +0.131 A 
ATOM      8  C   UNL     1       9.434  -2.587  23.573  0.00  0.00    +0.238 A 
ATOM      9  O   UNL     1      10.593  -2.642  23.172  0.00  0.00    -0.283 OA
ATOM     10  C   UNL     1       6.668  -0.081  23.703  0.00  0.00    +0.093 A 
ATOM     11  C   UNL     1       8.795  -3.654  24.384  0.00  0.00    +0.208 A 
ENDROOT
BRANCH   1  14
ATOM     12  C   UNL     1       5.318  -6.269  25.707  0.00  0.00    +0.162 A 
ATOM     13  C   UNL     1       6.112  -5.353  25.014  0.00  0.00    +0.061 A 
ATOM     14  C   UNL     1       6.839  -4.375  25.708  0.00  0.00    +0.025 A 
ATOM     15  C   UNL     1       6.819  -4.363  27.110  0.00  0.00    +0.015 A 
ATOM     16  C   UNL     1       6.066  -5.312  27.808  0.00  0.00    +0.050 A 
ATOM     17  C   UNL     1       5.321  -6.252  27.103  0.00  0.00    +0.158 A 
BRANCH  12  19
ATOM     18  C   UNL     1       3.653  -6.695  24.110  0.00  0.00    +0.277 C 
ATOM     19  O   UNL     1       4.526  -7.216  25.110  0.00  0.00    -0.491 OA
ENDBRANCH  12  19
BRANCH  17  20
ATOM     20  O   UNL     1       4.563  -7.142  27.812  0.00  0.00    -0.503 OA
ATOM     21  H   UNL     1       4.571  -6.815  28.733  0.00  0.00    +0.292 HD
ENDBRANCH  17  20
ENDBRANCH   1  14
BRANCH   5  22
ATOM     22  O   UNL     1      10.193  -0.595  21.598  0.00  0.00    -0.506 OA
ATOM     23  H   UNL     1      10.630   0.291  21.620  0.00  0.00    +0.292 HD
ENDBRANCH   5  22
BRANCH  11  24
ATOM     24  O   UNL     1       9.458  -4.862  24.481  0.00  0.00    -0.501 OA
ATOM     25  H   UNL     1       8.968  -5.546  23.995  0.00  0.00    +0.292 HD
ENDBRANCH  11  24
BRANCH   7  26
ATOM     26  O   UNL     1       6.472   2.089  22.867  0.00  0.00    -0.462 OA
BRANCH  26  27
ATOM     27  C   UNL     1       7.182   3.345  22.824  0.00  0.00    +0.327 C 
ATOM     28  O   UNL     1       6.162   4.323  22.532  0.00  0.00    -0.332 OA
ATOM     29  C   UNL     1       6.570   5.696  22.498  0.00  0.00    +0.179 C 
ATOM     30  C   UNL     1       7.245   6.126  23.811  0.00  0.00    +0.176 C 
ATOM     31  C   UNL     1       8.400   5.181  24.129  0.00  0.00    +0.168 C 
ATOM     32  C   UNL     1       7.908   3.715  24.177  0.00  0.00    +0.152 C 
BRANCH  32  33
ATOM     33  N   UNL     1       9.068   2.920  24.626  0.00  0.00    -0.320 NA
ATOM     34  H   UNL     1       9.518   3.341  25.434  0.00  0.00    +0.119 HD
ATOM     35  H   UNL     1       8.795   1.966  24.871  0.00  0.00    +0.119 HD
ENDBRANCH  32  33
BRANCH  30  36
ATOM     36  O   UNL     1       6.302   6.118  24.887  0.00  0.00    -0.387 OA
ATOM     37  H   UNL     1       5.589   5.492  24.667  0.00  0.00    +0.210 HD
ENDBRANCH  30  36
BRANCH  31  38
ATOM     38  O   UNL     1       9.482   5.379  23.205  0.00  0.00    -0.387 OA
ATOM     39  H   UNL     1      10.290   4.950  23.528  0.00  0.00    +0.210 HD
ENDBRANCH  31  38
BRANCH  29  40
ATOM     40  C   UNL     1       5.330   6.575  22.238  0.00  0.00    +0.190 C 
BRANCH  40  41
ATOM     41  O   UNL     1       4.183   5.812  21.860  0.00  0.00    -0.392 OA
ATOM     42  H   UNL     1       4.114   5.044  22.448  0.00  0.00    +0.210 HD
ENDBRANCH  40  41
ENDBRANCH  29  40
ENDBRANCH  26  27
ENDBRANCH   7  26
TORSDOF 12
ENDMDL
MODEL 9
REMARK VINA RESULT:      -7.0      1.544      2.302
REMARK  Name = 
REMARK  13 active torsions:
REMARK  status: ('A' for Active; 'I' for Inactive)
REMARK    1  A    between atoms: C_1  and  O_2
REMARK    2  A    between atoms: O_2  and  C_3
REMARK    3  A    between atoms: C_4  and  O_37
REMARK    4  A    between atoms: C_7  and  C_9
REMARK    5  A    between atoms: C_10  and  O_36
REMARK    6  A    between atoms: C_14  and  O_35
REMARK    7  A    between atoms: C_16  and  O_20
REMARK    8  A    between atoms: O_20  and  C_21
REMARK    9  A    between atoms: C_23  and  N_34
REMARK   10  A    between atoms: C_24  and  O_33
REMARK   11  A    between atoms: C_26  and  O_32
REMARK   12  A    between atoms: C_28  and  C_30
REMARK   13  A    between atoms: C_30  and  O_31
REMARK                            x       y       z     vdW  Elec       q    Type
REMARK                         _______ _______ _______ _____ _____    ______ ____
ROOT
ATOM      1  C   UNL     1       7.262  -3.833  25.097  0.00  0.00    +0.181 A 
ATOM      2  O   UNL     1       6.846  -2.595  25.570  0.00  0.00    -0.451 OA
ATOM      3  C   UNL     1       7.560  -1.482  25.202  0.00  0.00    +0.147 A 
ATOM      4  C   UNL     1       8.744  -1.565  24.484  0.00  0.00    +0.109 A 
ATOM      5  C   UNL     1       9.387  -0.399  24.064  0.00  0.00    +0.135 A 
ATOM      6  C   UNL     1       8.873   0.852  24.396  0.00  0.00    +0.092 A 
ATOM      7  C   UNL     1       7.798   0.933  25.273  0.00  0.00    +0.131 A 
ATOM      8  C   UNL     1       9.304  -2.888  24.199  0.00  0.00    +0.238 A 
ATOM      9  O   UNL     1      10.451  -2.985  23.773  0.00  0.00    -0.283 OA
ATOM     10  C   UNL     1       7.091  -0.232  25.610  0.00  0.00    +0.093 A 
ATOM     11  C   UNL     1       8.416  -4.055  24.435  0.00  0.00    +0.208 A 
ENDROOT
BRANCH   1  14
ATOM     12  C   UNL     1       4.424  -6.221  24.498  0.00  0.00    +0.162 A 
ATOM     13  C   UNL     1       5.425  -5.271  24.290  0.00  0.00    +0.061 A 
ATOM     14  C   UNL     1       6.277  -4.895  25.338  0.00  0.00    +0.025 A 
ATOM     15  C   UNL     1       6.161  -5.528  26.584  0.00  0.00    +0.015 A 
ATOM     16  C   UNL     1       5.193  -6.517  26.780  0.00  0.00    +0.050 A 
ATOM     17  C   UNL     1       4.332  -6.852  25.740  0.00  0.00    +0.158 A 
BRANCH  12  19
ATOM     18  C   UNL     1       2.544  -5.598  23.239  0.00  0.00    +0.277 C 
ATOM     19  O   UNL     1       3.508  -6.602  23.551  0.00  0.00    -0.491 OA
ENDBRANCH  12  19
BRANCH  17  20
ATOM     20  O   UNL     1       3.369  -7.793  25.974  0.00  0.00    -0.503 OA
ATOM     21  H   UNL     1       3.846  -8.576  26.312  0.00  0.00    +0.292 HD
ENDBRANCH  17  20
ENDBRANCH   1  14
BRANCH   5  22
ATOM     22  O   UNL     1      10.566  -0.406  23.370  0.00  0.00    -0.506 OA
ATOM     23  H   UNL     1      10.537   0.335  22.716  0.00  0.00    +0.292 HD
ENDBRANCH   5  22
BRANCH  11  24
ATOM     24  O   UNL     1       8.816  -5.273  23.922  0.00  0.00    -0.501 OA
ATOM     25  H   UNL     1       8.060  -5.883  23.892  0.00  0.00    +0.292 HD
ENDBRANCH  11  24
BRANCH   7  26
ATOM     26  O   UNL     1       7.385   2.065  25.907  0.00  0.00    -0.462 OA
BRANCH  26  27
ATOM     27  C   UNL     1       6.800   3.163  25.175  0.00  0.00    +0.327 C 
ATOM     28  O   UNL     1       7.929   3.968  24.776  0.00  0.00    -0.332 OA
ATOM     29  C   UNL     1       7.653   5.113  23.958  0.00  0.00    +0.179 C 
ATOM     30  C   UNL     1       6.895   4.732  22.676  0.00  0.00    +0.176 C 
ATOM     31  C   UNL     1       5.633   3.953  23.038  0.00  0.00    +0.168 C 
ATOM     32  C   UNL     1       5.982   2.717  23.900  0.00  0.00    +0.152 C 
BRANCH  32  33
ATOM     33  N   UNL     1       4.715   1.977  24.066  0.00  0.00    -0.320 NA
ATOM     34  H   UNL     1       4.313   2.129  24.987  0.00  0.00    +0.119 HD
ATOM     35  H   UNL     1       4.027   2.254  23.364  0.00  0.00    +0.119 HD
ENDBRANCH  32  33
BRANCH  30  36
ATOM     36  O   UNL     1       7.724   3.940  21.819  0.00  0.00    -0.387 OA
ATOM     37  H   UNL     1       8.394   3.493  22.366  0.00  0.00    +0.210 HD
ENDBRANCH  30  36
BRANCH  31  38
ATOM     38  O   UNL     1       4.669   4.818  23.660  0.00  0.00    -0.387 OA
ATOM     39  H   UNL     1       5.096   5.622  23.993  0.00  0.00    +0.210 HD
ENDBRANCH  31  38
BRANCH  29  40
ATOM     40  C   UNL     1       8.988   5.792  23.592  0.00  0.00    +0.190 C 
BRANCH  40  41
ATOM     41  O   UNL     1      10.037   4.853  23.351  0.00  0.00    -0.392 OA
ATOM     42  H   UNL     1       9.681   4.119  22.825  0.00  0.00    +0.210 HD
ENDBRANCH  40  41
ENDBRANCH  29  40
ENDBRANCH  26  27
ENDBRANCH   7  26
TORSDOF 12
ENDMDL
