MODEL 1
REMARK VINA RESULT:      -6.7      0.000      0.000
REMARK  Name = 
REMARK  14 active torsions:
REMARK  status: ('A' for Active; 'I' for Inactive)
REMARK    1  A    between atoms: C_3  and  O_41
REMARK    2  A    between atoms: C_4  and  O_36
REMARK    3  A    between atoms: C_6  and  C_7
REMARK    4  A    between atoms: C_8  and  O_20
REMARK    5  A    between atoms: C_12  and  O_19
REMARK    6  A    between atoms: C_14  and  O_18
REMARK    7  A    between atoms: O_20  and  C_21
REMARK    8  A    between atoms: C_23  and  O_35
REMARK    9  A    between atoms: C_24  and  O_34
REMARK   10  A    between atoms: C_25  and  O_33
REMARK   11  A    between atoms: C_27  and  C_30
REMARK   12  A    between atoms: C_30  and  O_32
REMARK   13  A    between atoms: O_36  and  S_37
REMARK   14  A    between atoms: S_37  and  O_40
REMARK                            x       y       z     vdW  Elec       q    Type
REMARK                         _______ _______ _______ _____ _____    ______ ____
ROOT
ATOM      1  C   UNL     1       6.160  -1.572  26.317  0.00  0.00    +0.181 A 
ATOM      2  O   UNL     1       5.437  -1.665  27.498  0.00  0.00    -0.451 OA
ATOM      3  C   UNL     1       4.460  -0.758  27.797  0.00  0.00    +0.147 A 
ATOM      4  C   UNL     1       4.244   0.374  27.035  0.00  0.00    +0.109 A 
ATOM      5  C   UNL     1       3.240   1.270  27.433  0.00  0.00    +0.135 A 
ATOM      6  C   UNL     1       2.452   1.008  28.564  0.00  0.00    +0.091 A 
ATOM      7  C   UNL     1       2.675  -0.151  29.300  0.00  0.00    +0.124 A 
ATOM      8  C   UNL     1       5.072   0.550  25.829  0.00  0.00    +0.238 A 
ATOM      9  O   UNL     1       4.897   1.535  25.111  0.00  0.00    -0.283 OA
ATOM     10  C   UNL     1       3.680  -1.033  28.922  0.00  0.00    +0.092 A 
ATOM     11  C   UNL     1       6.045  -0.540  25.443  0.00  0.00    +0.214 A 
ENDROOT
BRANCH   1  13
ATOM     12  C   UNL     1       8.145  -3.134  26.728  0.00  0.00    +0.015 A 
ATOM     13  C   UNL     1       6.938  -2.833  26.098  0.00  0.00    +0.025 A 
ATOM     14  C   UNL     1       6.506  -3.720  25.089  0.00  0.00    +0.064 A 
ATOM     15  C   UNL     1       7.338  -4.722  24.591  0.00  0.00    +0.201 A 
ATOM     16  C   UNL     1       8.630  -4.832  25.089  0.00  0.00    +0.161 A 
ATOM     17  C   UNL     1       9.017  -4.089  26.196  0.00  0.00    +0.050 A 
BRANCH  16  18
ATOM     18  O   UNL     1       9.514  -5.668  24.471  0.00  0.00    -0.503 OA
ATOM     19  H   UNL     1       9.008  -6.389  24.061  0.00  0.00    +0.292 HD
ENDBRANCH  16  18
BRANCH  15  20
ATOM     20  O   UNL     1       6.978  -5.526  23.542  0.00  0.00    -0.321 OA
BRANCH  20  21
ATOM     21  S   UNL     1       6.889  -4.917  22.034  0.00  0.00    +0.251 S 
ATOM     22  O   UNL     1       7.209  -5.953  21.079  0.00  0.00    -0.108 OA
ATOM     23  O   UNL     1       7.535  -3.625  22.002  0.00  0.00    -0.108 OA
BRANCH  21  24
ATOM     24  O   UNL     1       5.317  -4.595  21.881  0.00  0.00    -0.222 OA
ATOM     25  H   UNL     1       5.005  -4.243  22.737  0.00  0.00    +0.248 HD
ENDBRANCH  21  24
ENDBRANCH  20  21
ENDBRANCH  15  20
ENDBRANCH   1  13
BRANCH   5  26
ATOM     26  O   UNL     1       2.951   2.423  26.762  0.00  0.00    -0.506 OA
ATOM     27  H   UNL     1       2.718   3.114  27.430  0.00  0.00    +0.292 HD
ENDBRANCH   5  26
BRANCH   7  28
ATOM     28  O   UNL     1       1.934  -0.466  30.399  0.00  0.00    -0.507 OA
ATOM     29  H   UNL     1       1.097  -0.879  30.117  0.00  0.00    +0.292 HD
ENDBRANCH   7  28
BRANCH  11  30
ATOM     30  O   UNL     1       6.864  -0.345  24.329  0.00  0.00    -0.453 OA
BRANCH  30  31
ATOM     31  C   UNL     1       8.205   0.153  24.524  0.00  0.00    +0.340 C 
ATOM     32  O   UNL     1       8.257   1.592  24.401  0.00  0.00    -0.322 OA
ATOM     33  C   UNL     1       8.124   2.161  23.087  0.00  0.00    +0.261 C 
ATOM     34  C   UNL     1       8.533   1.328  21.852  0.00  0.00    +0.185 C 
ATOM     35  C   UNL     1       8.613  -0.175  22.111  0.00  0.00    +0.180 C 
ATOM     36  C   UNL     1       9.207  -0.416  23.500  0.00  0.00    +0.214 C 
BRANCH  33  37
ATOM     37  C   UNL     1       6.736   2.751  22.901  0.00  0.00    +0.337 C 
ATOM     38  O   UNL     1       6.493   3.941  23.020  0.00  0.00    -0.248 OA
BRANCH  37  39
ATOM     39  O   UNL     1       5.798   1.850  22.522  0.00  0.00    -0.479 OA
ATOM     40  H   UNL     1       6.173   1.022  22.155  0.00  0.00    +0.295 HD
ENDBRANCH  37  39
ENDBRANCH  33  37
BRANCH  34  41
ATOM     41  O   UNL     1       9.845   1.765  21.422  0.00  0.00    -0.386 OA
ATOM     42  H   UNL     1       9.671   2.254  20.585  0.00  0.00    +0.210 HD
ENDBRANCH  34  41
BRANCH  35  43
ATOM     43  O   UNL     1       9.445  -0.768  21.099  0.00  0.00    -0.386 OA
ATOM     44  H   UNL     1      10.009  -1.406  21.588  0.00  0.00    +0.210 HD
ENDBRANCH  35  43
BRANCH  36  45
ATOM     45  O   UNL     1       9.558  -1.786  23.663  0.00  0.00    -0.383 OA
ATOM     46  H   UNL     1      10.077  -2.081  22.894  0.00  0.00    +0.210 HD
ENDBRANCH  36  45
ENDBRANCH  30  31
ENDBRANCH  11  30
TORSDOF 14
ENDMDL
MODEL 2
REMARK VINA RESULT:      -6.7      2.554      6.787
REMARK  Name = 
REMARK  14 active torsions:
REMARK  status: ('A' for Active; 'I' for Inactive)
REMARK    1  A    between atoms: C_3  and  O_41
REMARK    2  A    between atoms: C_4  and  O_36
REMARK    3  A    between atoms: C_6  and  C_7
REMARK    4  A    between atoms: C_8  and  O_20
REMARK    5  A    between atoms: C_12  and  O_19
REMARK    6  A    between atoms: C_14  and  O_18
REMARK    7  A    between atoms: O_20  and  C_21
REMARK    8  A    between atoms: C_23  and  O_35
REMARK    9  A    between atoms: C_24  and  O_34
REMARK   10  A    between atoms: C_25  and  O_33
REMARK   11  A    between atoms: C_27  and  C_30
REMARK   12  A    between atoms: C_30  and  O_32
REMARK   13  A    between atoms: O_36  and  S_37
REMARK   14  A    between atoms: S_37  and  O_40
REMARK                            x       y       z     vdW  Elec       q    Type
REMARK                         _______ _______ _______ _____ _____    ______ ____
ROOT
ATOM      1  C   UNL     1       7.262  -1.354  23.435  0.00  0.00    +0.181 A 
ATOM      2  O   UNL     1       7.436  -2.569  22.786  0.00  0.00    -0.451 OA
ATOM      3  C   UNL     1       6.505  -3.563  22.892  0.00  0.00    +0.147 A 
ATOM      4  C   UNL     1       5.433  -3.482  23.760  0.00  0.00    +0.109 A 
ATOM      5  C   UNL     1       4.541  -4.564  23.830  0.00  0.00    +0.135 A 
ATOM      6  C   UNL     1       4.717  -5.691  23.013  0.00  0.00    +0.091 A 
ATOM      7  C   UNL     1       5.790  -5.737  22.131  0.00  0.00    +0.124 A 
ATOM      8  C   UNL     1       5.283  -2.242  24.542  0.00  0.00    +0.238 A 
ATOM      9  O   UNL     1       4.329  -2.121  25.312  0.00  0.00    -0.283 OA
ATOM     10  C   UNL     1       6.688  -4.678  22.071  0.00  0.00    +0.092 A 
ATOM     11  C   UNL     1       6.245  -1.102  24.298  0.00  0.00    +0.214 A 
ENDROOT
BRANCH   1  13
ATOM     12  C   UNL     1       9.626  -0.419  23.148  0.00  0.00    +0.015 A 
ATOM     13  C   UNL     1       8.252  -0.357  22.918  0.00  0.00    +0.025 A 
ATOM     14  C   UNL     1       7.763   0.800  22.276  0.00  0.00    +0.064 A 
ATOM     15  C   UNL     1       8.570   1.920  22.075  0.00  0.00    +0.201 A 
ATOM     16  C   UNL     1       9.878   1.898  22.539  0.00  0.00    +0.161 A 
ATOM     17  C   UNL     1      10.431   0.717  23.016  0.00  0.00    +0.050 A 
BRANCH  16  18
ATOM     18  O   UNL     1      10.608   3.051  22.532  0.00  0.00    -0.503 OA
ATOM     19  H   UNL     1      11.054   3.129  23.393  0.00  0.00    +0.292 HD
ENDBRANCH  16  18
BRANCH  15  20
ATOM     20  O   UNL     1       8.090   3.090  21.547  0.00  0.00    -0.321 OA
BRANCH  20  21
ATOM     21  S   UNL     1       7.256   4.130  22.482  0.00  0.00    +0.251 S 
ATOM     22  O   UNL     1       7.966   4.332  23.725  0.00  0.00    -0.108 OA
ATOM     23  O   UNL     1       5.855   3.781  22.454  0.00  0.00    -0.108 OA
BRANCH  21  24
ATOM     24  O   UNL     1       7.355   5.505  21.647  0.00  0.00    -0.222 OA
ATOM     25  H   UNL     1       7.012   6.220  22.218  0.00  0.00    +0.248 HD
ENDBRANCH  21  24
ENDBRANCH  20  21
ENDBRANCH  15  20
ENDBRANCH   1  13
BRANCH   5  26
ATOM     26  O   UNL     1       3.458  -4.594  24.661  0.00  0.00    -0.506 OA
ATOM     27  H   UNL     1       2.761  -5.148  24.231  0.00  0.00    +0.292 HD
ENDBRANCH   5  26
BRANCH   7  28
ATOM     28  O   UNL     1       6.006  -6.798  21.305  0.00  0.00    -0.507 OA
ATOM     29  H   UNL     1       6.964  -6.964  21.234  0.00  0.00    +0.292 HD
ENDBRANCH   7  28
BRANCH  11  30
ATOM     30  O   UNL     1       6.130   0.051  25.076  0.00  0.00    -0.453 OA
BRANCH  30  31
ATOM     31  C   UNL     1       6.947   0.181  26.261  0.00  0.00    +0.340 C 
ATOM     32  O   UNL     1       6.203  -0.152  27.454  0.00  0.00    -0.322 OA
ATOM     33  C   UNL     1       5.208   0.779  27.911  0.00  0.00    +0.261 C 
ATOM     34  C   UNL     1       5.350   2.277  27.559  0.00  0.00    +0.185 C 
ATOM     35  C   UNL     1       6.285   2.557  26.384  0.00  0.00    +0.180 C 
ATOM     36  C   UNL     1       7.486   1.611  26.460  0.00  0.00    +0.214 C 
BRANCH  33  37
ATOM     37  C   UNL     1       3.814   0.278  27.573  0.00  0.00    +0.337 C 
ATOM     38  O   UNL     1       3.060  -0.211  28.397  0.00  0.00    -0.248 OA
BRANCH  37  39
ATOM     39  O   UNL     1       3.451   0.482  26.284  0.00  0.00    -0.479 OA
ATOM     40  H   UNL     1       3.629   1.392  25.963  0.00  0.00    +0.295 HD
ENDBRANCH  37  39
ENDBRANCH  33  37
BRANCH  34  41
ATOM     41  O   UNL     1       5.885   2.968  28.714  0.00  0.00    -0.386 OA
ATOM     42  H   UNL     1       5.865   3.918  28.453  0.00  0.00    +0.210 HD
ENDBRANCH  34  41
BRANCH  35  43
ATOM     43  O   UNL     1       6.718   3.926  26.462  0.00  0.00    -0.386 OA
ATOM     44  H   UNL     1       6.375   4.338  25.639  0.00  0.00    +0.210 HD
ENDBRANCH  35  43
BRANCH  36  45
ATOM     45  O   UNL     1       8.507   2.026  25.558  0.00  0.00    -0.383 OA
ATOM     46  H   UNL     1       8.292   2.910  25.211  0.00  0.00    +0.210 HD
ENDBRANCH  36  45
ENDBRANCH  30  31
ENDBRANCH  11  30
TORSDOF 14
ENDMDL
MODEL 3
REMARK VINA RESULT:      -6.7      0.946      2.456
REMARK  Name = 
REMARK  14 active torsions:
REMARK  status: ('A' for Active; 'I' for Inactive)
REMARK    1  A    between atoms: C_3  and  O_41
REMARK    2  A    between atoms: C_4  and  O_36
REMARK    3  A    between atoms: C_6  and  C_7
REMARK    4  A    between atoms: C_8  and  O_20
REMARK    5  A    between atoms: C_12  and  O_19
REMARK    6  A    between atoms: C_14  and  O_18
REMARK    7  A    between atoms: O_20  and  C_21
REMARK    8  A    between atoms: C_23  and  O_35
REMARK    9  A    between atoms: C_24  and  O_34
REMARK   10  A    between atoms: C_25  and  O_33
REMARK   11  A    between atoms: C_27  and  C_30
REMARK   12  A    between atoms: C_30  and  O_32
REMARK   13  A    between atoms: O_36  and  S_37
REMARK   14  A    between atoms: S_37  and  O_40
REMARK                            x       y       z     vdW  Elec       q    Type
REMARK                         _______ _______ _______ _____ _____    ______ ____
ROOT
ATOM      1  C   UNL     1       5.944  -1.686  26.582  0.00  0.00    +0.181 A 
ATOM      2  O   UNL     1       5.089  -1.948  27.644  0.00  0.00    -0.451 OA
ATOM      3  C   UNL     1       4.119  -1.055  28.002  0.00  0.00    +0.147 A 
ATOM      4  C   UNL     1       4.034   0.206  27.445  0.00  0.00    +0.109 A 
ATOM      5  C   UNL     1       3.025   1.073  27.895  0.00  0.00    +0.135 A 
ATOM      6  C   UNL     1       2.105   0.657  28.869  0.00  0.00    +0.091 A 
ATOM      7  C   UNL     1       2.199  -0.626  29.396  0.00  0.00    +0.124 A 
ATOM      8  C   UNL     1       4.999   0.549  26.386  0.00  0.00    +0.238 A 
ATOM      9  O   UNL     1       4.944   1.656  25.848  0.00  0.00    -0.283 OA
ATOM     10  C   UNL     1       3.206  -1.482  28.969  0.00  0.00    +0.092 A 
ATOM     11  C   UNL     1       5.968  -0.508  25.908  0.00  0.00    +0.214 A 
ENDROOT
BRANCH   1  13
ATOM     12  C   UNL     1       7.985  -3.228  26.649  0.00  0.00    +0.015 A 
ATOM     13  C   UNL     1       6.693  -2.930  26.217  0.00  0.00    +0.025 A 
ATOM     14  C   UNL     1       6.123  -3.798  25.261  0.00  0.00    +0.064 A 
ATOM     15  C   UNL     1       6.881  -4.776  24.617  0.00  0.00    +0.201 A 
ATOM     16  C   UNL     1       8.235  -4.879  24.912  0.00  0.00    +0.161 A 
ATOM     17  C   UNL     1       8.777  -4.158  25.967  0.00  0.00    +0.050 A 
BRANCH  16  18
ATOM     18  O   UNL     1       9.025  -5.686  24.146  0.00  0.00    -0.503 OA
ATOM     19  H   UNL     1       9.895  -5.747  24.575  0.00  0.00    +0.292 HD
ENDBRANCH  16  18
BRANCH  15  20
ATOM     20  O   UNL     1       6.376  -5.559  23.614  0.00  0.00    -0.321 OA
BRANCH  20  21
ATOM     21  S   UNL     1       6.166  -4.945  22.120  0.00  0.00    +0.251 S 
ATOM     22  O   UNL     1       4.982  -4.117  22.103  0.00  0.00    -0.108 OA
ATOM     23  O   UNL     1       6.381  -5.987  21.141  0.00  0.00    -0.108 OA
BRANCH  21  24
ATOM     24  O   UNL     1       7.437  -3.966  21.964  0.00  0.00    -0.222 OA
ATOM     25  H   UNL     1       7.994  -4.081  22.758  0.00  0.00    +0.248 HD
ENDBRANCH  21  24
ENDBRANCH  20  21
ENDBRANCH  15  20
ENDBRANCH   1  13
BRANCH   5  26
ATOM     26  O   UNL     1       2.858   2.343  27.422  0.00  0.00    -0.506 OA
ATOM     27  H   UNL     1       1.939   2.416  27.064  0.00  0.00    +0.292 HD
ENDBRANCH   5  26
BRANCH   7  28
ATOM     28  O   UNL     1       1.327  -1.090  30.335  0.00  0.00    -0.507 OA
ATOM     29  H   UNL     1       1.361  -2.065  30.353  0.00  0.00    +0.292 HD
ENDBRANCH   7  28
BRANCH  11  30
ATOM     30  O   UNL     1       6.914  -0.164  24.942  0.00  0.00    -0.453 OA
BRANCH  30  31
ATOM     31  C   UNL     1       6.574  -0.310  23.545  0.00  0.00    +0.340 C 
ATOM     32  O   UNL     1       7.449  -1.251  22.884  0.00  0.00    -0.322 OA
ATOM     33  C   UNL     1       8.803  -0.843  22.621  0.00  0.00    +0.261 C 
ATOM     34  C   UNL     1       9.126   0.659  22.461  0.00  0.00    +0.185 C 
ATOM     35  C   UNL     1       8.067   1.592  23.044  0.00  0.00    +0.180 C 
ATOM     36  C   UNL     1       6.678   1.014  22.764  0.00  0.00    +0.214 C 
BRANCH  33  37
ATOM     37  C   UNL     1       9.757  -1.496  23.605  0.00  0.00    +0.337 C 
ATOM     38  O   UNL     1      10.400  -2.501  23.349  0.00  0.00    -0.248 OA
BRANCH  37  39
ATOM     39  O   UNL     1       9.888  -0.827  24.776  0.00  0.00    -0.479 OA
ATOM     40  H   UNL     1       9.246  -1.107  25.463  0.00  0.00    +0.295 HD
ENDBRANCH  37  39
ENDBRANCH  33  37
BRANCH  34  41
ATOM     41  O   UNL     1       9.233   0.954  21.047  0.00  0.00    -0.386 OA
ATOM     42  H   UNL     1       9.541   1.890  21.022  0.00  0.00    +0.210 HD
ENDBRANCH  34  41
BRANCH  35  43
ATOM     43  O   UNL     1       8.207   2.884  22.429  0.00  0.00    -0.386 OA
ATOM     44  H   UNL     1       7.937   3.519  23.127  0.00  0.00    +0.210 HD
ENDBRANCH  35  43
BRANCH  36  45
ATOM     45  O   UNL     1       5.670   1.983  23.037  0.00  0.00    -0.383 OA
ATOM     46  H   UNL     1       5.911   2.827  22.618  0.00  0.00    +0.210 HD
ENDBRANCH  36  45
ENDBRANCH  30  31
ENDBRANCH  11  30
TORSDOF 14
ENDMDL
MODEL 4
REMARK VINA RESULT:      -6.5      1.678      3.313
REMARK  Name = 
REMARK  14 active torsions:
REMARK  status: ('A' for Active; 'I' for Inactive)
REMARK    1  A    between atoms: C_3  and  O_41
REMARK    2  A    between atoms: C_4  and  O_36
REMARK    3  A    between atoms: C_6  and  C_7
REMARK    4  A    between atoms: C_8  and  O_20
REMARK    5  A    between atoms: C_12  and  O_19
REMARK    6  A    between atoms: C_14  and  O_18
REMARK    7  A    between atoms: O_20  and  C_21
REMARK    8  A    between atoms: C_23  and  O_35
REMARK    9  A    between atoms: C_24  and  O_34
REMARK   10  A    between atoms: C_25  and  O_33
REMARK   11  A    between atoms: C_27  and  C_30
REMARK   12  A    between atoms: C_30  and  O_32
REMARK   13  A    between atoms: O_36  and  S_37
REMARK   14  A    between atoms: S_37  and  O_40
REMARK                            x       y       z     vdW  Elec       q    Type
REMARK                         _______ _______ _______ _____ _____    ______ ____
ROOT
ATOM      1  C   UNL     1       5.712  -0.716  25.240  0.00  0.00    +0.181 A 
ATOM      2  O   UNL     1       4.644  -1.063  26.055  0.00  0.00    -0.451 OA
ATOM      3  C   UNL     1       3.938  -0.111  26.733  0.00  0.00    +0.147 A 
ATOM      4  C   UNL     1       4.334   1.212  26.775  0.00  0.00    +0.109 A 
ATOM      5  C   UNL     1       3.568   2.119  27.524  0.00  0.00    +0.135 A 
ATOM      6  C   UNL     1       2.408   1.699  28.192  0.00  0.00    +0.091 A 
ATOM      7  C   UNL     1       2.019   0.366  28.113  0.00  0.00    +0.124 A 
ATOM      8  C   UNL     1       5.530   1.589  26.002  0.00  0.00    +0.238 A 
ATOM      9  O   UNL     1       5.904   2.763  25.996  0.00  0.00    -0.283 OA
ATOM     10  C   UNL     1       2.783  -0.541  27.390  0.00  0.00    +0.092 A 
ATOM     11  C   UNL     1       6.206   0.545  25.144  0.00  0.00    +0.214 A 
ENDROOT
BRANCH   1  13
ATOM     12  C   UNL     1       5.611  -2.140  23.117  0.00  0.00    +0.015 A 
ATOM     13  C   UNL     1       6.107  -1.887  24.395  0.00  0.00    +0.025 A 
ATOM     14  C   UNL     1       6.925  -2.883  24.971  0.00  0.00    +0.064 A 
ATOM     15  C   UNL     1       7.057  -4.145  24.392  0.00  0.00    +0.201 A 
ATOM     16  C   UNL     1       6.347  -4.431  23.234  0.00  0.00    +0.161 A 
ATOM     17  C   UNL     1       5.677  -3.420  22.557  0.00  0.00    +0.050 A 
BRANCH  16  18
ATOM     18  O   UNL     1       6.307  -5.716  22.776  0.00  0.00    -0.503 OA
ATOM     19  H   UNL     1       5.408  -5.890  22.450  0.00  0.00    +0.292 HD
ENDBRANCH  16  18
BRANCH  15  20
ATOM     20  O   UNL     1       7.762  -5.158  24.987  0.00  0.00    -0.321 OA
BRANCH  20  21
ATOM     21  S   UNL     1       9.264  -4.889  25.556  0.00  0.00    +0.251 S 
ATOM     22  O   UNL     1       9.188  -4.516  26.950  0.00  0.00    -0.108 OA
ATOM     23  O   UNL     1      10.005  -4.104  24.596  0.00  0.00    -0.108 OA
BRANCH  21  24
ATOM     24  O   UNL     1       9.930  -6.356  25.490  0.00  0.00    -0.222 OA
ATOM     25  H   UNL     1      10.807  -6.260  25.072  0.00  0.00    +0.248 HD
ENDBRANCH  21  24
ENDBRANCH  20  21
ENDBRANCH  15  20
ENDBRANCH   1  13
BRANCH   5  26
ATOM     26  O   UNL     1       3.875   3.444  27.644  0.00  0.00    -0.506 OA
ATOM     27  H   UNL     1       3.932   3.657  28.608  0.00  0.00    +0.292 HD
ENDBRANCH   5  26
BRANCH   7  28
ATOM     28  O   UNL     1       0.896  -0.099  28.729  0.00  0.00    -0.507 OA
ATOM     29  H   UNL     1       0.111   0.175  28.219  0.00  0.00    +0.292 HD
ENDBRANCH   7  28
BRANCH  11  30
ATOM     30  O   UNL     1       7.368   0.893  24.453  0.00  0.00    -0.453 OA
BRANCH  30  31
ATOM     31  C   UNL     1       7.260   1.359  23.090  0.00  0.00    +0.340 C 
ATOM     32  O   UNL     1       7.910   0.455  22.170  0.00  0.00    -0.322 OA
ATOM     33  C   UNL     1       9.348   0.424  22.156  0.00  0.00    +0.261 C 
ATOM     34  C   UNL     1      10.138   1.676  22.599  0.00  0.00    +0.185 C 
ATOM     35  C   UNL     1       9.328   2.664  23.435  0.00  0.00    +0.180 C 
ATOM     36  C   UNL     1       7.904   2.744  22.880  0.00  0.00    +0.214 C 
BRANCH  33  37
ATOM     37  C   UNL     1       9.861  -0.815  22.868  0.00  0.00    +0.337 C 
ATOM     38  O   UNL     1      10.516  -1.682  22.314  0.00  0.00    -0.248 OA
BRANCH  37  39
ATOM     39  O   UNL     1       9.587  -0.844  24.195  0.00  0.00    -0.479 OA
ATOM     40  H   UNL     1      10.288  -1.271  24.732  0.00  0.00    +0.295 HD
ENDBRANCH  37  39
ENDBRANCH  33  37
BRANCH  34  41
ATOM     41  O   UNL     1      10.585   2.376  21.412  0.00  0.00    -0.386 OA
ATOM     42  H   UNL     1       9.949   2.093  20.716  0.00  0.00    +0.210 HD
ENDBRANCH  34  41
BRANCH  35  43
ATOM     43  O   UNL     1       9.966   3.951  23.367  0.00  0.00    -0.386 OA
ATOM     44  H   UNL     1      10.455   4.027  24.215  0.00  0.00    +0.210 HD
ENDBRANCH  35  43
BRANCH  36  45
ATOM     45  O   UNL     1       7.208   3.850  23.446  0.00  0.00    -0.383 OA
ATOM     46  H   UNL     1       7.648   4.677  23.184  0.00  0.00    +0.210 HD
ENDBRANCH  36  45
ENDBRANCH  30  31
ENDBRANCH  11  30
TORSDOF 14
ENDMDL
MODEL 5
REMARK VINA RESULT:      -6.5      2.567      7.559
REMARK  Name = 
REMARK  14 active torsions:
REMARK  status: ('A' for Active; 'I' for Inactive)
REMARK    1  A    between atoms: C_3  and  O_41
REMARK    2  A    between atoms: C_4  and  O_36
REMARK    3  A    between atoms: C_6  and  C_7
REMARK    4  A    between atoms: C_8  and  O_20
REMARK    5  A    between atoms: C_12  and  O_19
REMARK    6  A    between atoms: C_14  and  O_18
REMARK    7  A    between atoms: O_20  and  C_21
REMARK    8  A    between atoms: C_23  and  O_35
REMARK    9  A    between atoms: C_24  and  O_34
REMARK   10  A    between atoms: C_25  and  O_33
REMARK   11  A    between atoms: C_27  and  C_30
REMARK   12  A    between atoms: C_30  and  O_32
REMARK   13  A    between atoms: O_36  and  S_37
REMARK   14  A    between atoms: S_37  and  O_40
REMARK                            x       y       z     vdW  Elec       q    Type
REMARK                         _______ _______ _______ _____ _____    ______ ____
ROOT
ATOM      1  C   UNL     1       6.474  -0.984  25.168  0.00  0.00    +0.181 A 
ATOM      2  O   UNL     1       7.191   0.184  24.949  0.00  0.00    -0.451 OA
ATOM      3  C   UNL     1       8.082   0.279  23.917  0.00  0.00    +0.147 A 
ATOM      4  C   UNL     1       8.434  -0.810  23.143  0.00  0.00    +0.109 A 
ATOM      5  C   UNL     1       9.383  -0.630  22.124  0.00  0.00    +0.135 A 
ATOM      6  C   UNL     1       9.940   0.633  21.877  0.00  0.00    +0.091 A 
ATOM      7  C   UNL     1       9.550   1.717  22.656  0.00  0.00    +0.124 A 
ATOM      8  C   UNL     1       7.763  -2.090  23.425  0.00  0.00    +0.238 A 
ATOM      9  O   UNL     1       8.033  -3.081  22.743  0.00  0.00    -0.283 OA
ATOM     10  C   UNL     1       8.626   1.543  23.679  0.00  0.00    +0.092 A 
ATOM     11  C   UNL     1       6.677  -2.133  24.475  0.00  0.00    +0.214 A 
ENDROOT
BRANCH   1  13
ATOM     12  C   UNL     1       4.683   0.483  26.259  0.00  0.00    +0.015 A 
ATOM     13  C   UNL     1       5.372  -0.725  26.149  0.00  0.00    +0.025 A 
ATOM     14  C   UNL     1       5.098  -1.708  27.123  0.00  0.00    +0.064 A 
ATOM     15  C   UNL     1       4.346  -1.419  28.262  0.00  0.00    +0.201 A 
ATOM     16  C   UNL     1       3.876  -0.125  28.446  0.00  0.00    +0.161 A 
ATOM     17  C   UNL     1       3.983   0.809  27.425  0.00  0.00    +0.050 A 
BRANCH  16  18
ATOM     18  O   UNL     1       3.319   0.218  29.644  0.00  0.00    -0.503 OA
ATOM     19  H   UNL     1       3.754  -0.307  30.337  0.00  0.00    +0.292 HD
ENDBRANCH  16  18
BRANCH  15  20
ATOM     20  O   UNL     1       4.155  -2.327  29.269  0.00  0.00    -0.321 OA
BRANCH  20  21
ATOM     21  S   UNL     1       2.824  -3.266  29.286  0.00  0.00    +0.251 S 
ATOM     22  O   UNL     1       1.729  -2.535  29.881  0.00  0.00    -0.108 OA
ATOM     23  O   UNL     1       3.183  -4.595  29.727  0.00  0.00    -0.108 OA
BRANCH  21  24
ATOM     24  O   UNL     1       2.493  -3.429  27.717  0.00  0.00    -0.222 OA
ATOM     25  H   UNL     1       3.168  -4.023  27.335  0.00  0.00    +0.248 HD
ENDBRANCH  21  24
ENDBRANCH  20  21
ENDBRANCH  15  20
ENDBRANCH   1  13
BRANCH   5  26
ATOM     26  O   UNL     1       9.812  -1.639  21.309  0.00  0.00    -0.506 OA
ATOM     27  H   UNL     1      10.758  -1.826  21.529  0.00  0.00    +0.292 HD
ENDBRANCH   5  26
BRANCH   7  28
ATOM     28  O   UNL     1      10.047   2.970  22.456  0.00  0.00    -0.507 OA
ATOM     29  H   UNL     1      10.661   3.194  23.181  0.00  0.00    +0.292 HD
ENDBRANCH   7  28
BRANCH  11  30
ATOM     30  O   UNL     1       6.079  -3.358  24.774  0.00  0.00    -0.453 OA
BRANCH  30  31
ATOM     31  C   UNL     1       4.760  -3.640  24.256  0.00  0.00    +0.340 C 
ATOM     32  O   UNL     1       3.963  -4.372  25.213  0.00  0.00    -0.322 OA
ATOM     33  C   UNL     1       4.284  -5.755  25.440  0.00  0.00    +0.261 C 
ATOM     34  C   UNL     1       4.976  -6.568  24.324  0.00  0.00    +0.185 C 
ATOM     35  C   UNL     1       5.659  -5.712  23.259  0.00  0.00    +0.180 C 
ATOM     36  C   UNL     1       4.793  -4.485  22.968  0.00  0.00    +0.214 C 
BRANCH  33  37
ATOM     37  C   UNL     1       5.018  -5.922  26.760  0.00  0.00    +0.337 C 
ATOM     38  O   UNL     1       5.438  -6.995  27.162  0.00  0.00    -0.248 OA
BRANCH  37  39
ATOM     39  O   UNL     1       5.228  -4.762  27.426  0.00  0.00    -0.479 OA
ATOM     40  H   UNL     1       5.927  -4.821  28.111  0.00  0.00    +0.295 HD
ENDBRANCH  37  39
ENDBRANCH  33  37
BRANCH  34  41
ATOM     41  O   UNL     1       3.973  -7.372  23.656  0.00  0.00    -0.386 OA
ATOM     42  H   UNL     1       3.119  -6.996  23.973  0.00  0.00    +0.210 HD
ENDBRANCH  34  41
BRANCH  35  43
ATOM     43  O   UNL     1       5.822  -6.506  22.071  0.00  0.00    -0.386 OA
ATOM     44  H   UNL     1       6.739  -6.852  22.131  0.00  0.00    +0.210 HD
ENDBRANCH  35  43
BRANCH  36  45
ATOM     45  O   UNL     1       5.248  -3.819  21.794  0.00  0.00    -0.383 OA
ATOM     46  H   UNL     1       4.516  -3.751  21.157  0.00  0.00    +0.210 HD
ENDBRANCH  36  45
ENDBRANCH  30  31
ENDBRANCH  11  30
TORSDOF 14
ENDMDL
MODEL 6
REMARK VINA RESULT:      -6.5      2.481      6.775
REMARK  Name = 
REMARK  14 active torsions:
REMARK  status: ('A' for Active; 'I' for Inactive)
REMARK    1  A    between atoms: C_3  and  O_41
REMARK    2  A    between atoms: C_4  and  O_36
REMARK    3  A    between atoms: C_6  and  C_7
REMARK    4  A    between atoms: C_8  and  O_20
REMARK    5  A    between atoms: C_12  and  O_19
REMARK    6  A    between atoms: C_14  and  O_18
REMARK    7  A    between atoms: O_20  and  C_21
REMARK    8  A    between atoms: C_23  and  O_35
REMARK    9  A    between atoms: C_24  and  O_34
REMARK   10  A    between atoms: C_25  and  O_33
REMARK   11  A    between atoms: C_27  and  C_30
REMARK   12  A    between atoms: C_30  and  O_32
REMARK   13  A    between atoms: O_36  and  S_37
REMARK   14  A    between atoms: S_37  and  O_40
REMARK                            x       y       z     vdW  Elec       q    Type
REMARK                         _______ _______ _______ _____ _____    ______ ____
ROOT
ATOM      1  C   UNL     1       8.117  -1.498  24.436  0.00  0.00    +0.181 A 
ATOM      2  O   UNL     1       8.145  -2.601  23.594  0.00  0.00    -0.451 OA
ATOM      3  C   UNL     1       7.254  -3.625  23.748  0.00  0.00    +0.147 A 
ATOM      4  C   UNL     1       6.392  -3.700  24.825  0.00  0.00    +0.109 A 
ATOM      5  C   UNL     1       5.532  -4.805  24.921  0.00  0.00    +0.135 A 
ATOM      6  C   UNL     1       5.526  -5.798  23.930  0.00  0.00    +0.091 A 
ATOM      7  C   UNL     1       6.388  -5.687  22.844  0.00  0.00    +0.124 A 
ATOM      8  C   UNL     1       6.416  -2.590  25.793  0.00  0.00    +0.238 A 
ATOM      9  O   UNL     1       5.648  -2.608  26.756  0.00  0.00    -0.283 OA
ATOM     10  C   UNL     1       7.255  -4.606  22.752  0.00  0.00    +0.092 A 
ATOM     11  C   UNL     1       7.307  -1.401  25.521  0.00  0.00    +0.214 A 
ENDROOT
BRANCH   1  13
ATOM     12  C   UNL     1      10.297  -0.171  24.258  0.00  0.00    +0.015 A 
ATOM     13  C   UNL     1       8.978  -0.410  23.874  0.00  0.00    +0.025 A 
ATOM     14  C   UNL     1       8.387   0.529  23.002  0.00  0.00    +0.064 A 
ATOM     15  C   UNL     1       9.004   1.745  22.710  0.00  0.00    +0.201 A 
ATOM     16  C   UNL     1      10.220   2.043  23.310  0.00  0.00    +0.161 A 
ATOM     17  C   UNL     1      10.901   1.070  24.030  0.00  0.00    +0.050 A 
BRANCH  16  18
ATOM     18  O   UNL     1      10.731   3.303  23.195  0.00  0.00    -0.503 OA
ATOM     19  H   UNL     1      11.443   3.278  22.533  0.00  0.00    +0.292 HD
ENDBRANCH  16  18
BRANCH  15  20
ATOM     20  O   UNL     1       8.403   2.714  21.950  0.00  0.00    -0.321 OA
BRANCH  20  21
ATOM     21  S   UNL     1       7.236   3.652  22.590  0.00  0.00    +0.251 S 
ATOM     22  O   UNL     1       7.643   4.093  23.905  0.00  0.00    -0.108 OA
ATOM     23  O   UNL     1       5.948   3.040  22.357  0.00  0.00    -0.108 OA
BRANCH  21  24
ATOM     24  O   UNL     1       7.259   4.944  21.626  0.00  0.00    -0.222 OA
ATOM     25  H   UNL     1       6.351   5.302  21.595  0.00  0.00    +0.248 HD
ENDBRANCH  21  24
ENDBRANCH  20  21
ENDBRANCH  15  20
ENDBRANCH   1  13
BRANCH   5  26
ATOM     26  O   UNL     1       4.650  -4.985  25.948  0.00  0.00    -0.506 OA
ATOM     27  H   UNL     1       3.875  -5.490  25.598  0.00  0.00    +0.292 HD
ENDBRANCH   5  26
BRANCH   7  28
ATOM     28  O   UNL     1       6.419  -6.612  21.845  0.00  0.00    -0.507 OA
ATOM     29  H   UNL     1       6.698  -7.473  22.210  0.00  0.00    +0.292 HD
ENDBRANCH   7  28
BRANCH  11  30
ATOM     30  O   UNL     1       7.365  -0.375  26.466  0.00  0.00    -0.453 OA
BRANCH  30  31
ATOM     31  C   UNL     1       7.163   0.989  26.034  0.00  0.00    +0.340 C 
ATOM     32  O   UNL     1       7.504   1.929  27.077  0.00  0.00    -0.322 OA
ATOM     33  C   UNL     1       6.614   2.042  28.201  0.00  0.00    +0.261 C 
ATOM     34  C   UNL     1       5.120   1.688  28.025  0.00  0.00    +0.185 C 
ATOM     35  C   UNL     1       4.822   0.823  26.803  0.00  0.00    +0.180 C 
ATOM     36  C   UNL     1       5.703   1.279  25.636  0.00  0.00    +0.214 C 
BRANCH  33  37
ATOM     37  C   UNL     1       7.194   1.337  29.414  0.00  0.00    +0.337 C 
ATOM     38  O   UNL     1       6.614   1.259  30.484  0.00  0.00    -0.248 OA
BRANCH  37  39
ATOM     39  O   UNL     1       8.388   0.739  29.187  0.00  0.00    -0.479 OA
ATOM     40  H   UNL     1       9.128   1.130  29.698  0.00  0.00    +0.295 HD
ENDBRANCH  37  39
ENDBRANCH  33  37
BRANCH  34  41
ATOM     41  O   UNL     1       4.374   2.920  27.877  0.00  0.00    -0.386 OA
ATOM     42  H   UNL     1       4.848   3.557  28.461  0.00  0.00    +0.210 HD
ENDBRANCH  34  41
BRANCH  35  43
ATOM     43  O   UNL     1       3.431   0.968  26.468  0.00  0.00    -0.386 OA
ATOM     44  H   UNL     1       3.011   1.282  27.299  0.00  0.00    +0.210 HD
ENDBRANCH  35  43
BRANCH  36  45
ATOM     45  O   UNL     1       5.258   0.693  24.417  0.00  0.00    -0.383 OA
ATOM     46  H   UNL     1       5.144   1.390  23.747  0.00  0.00    +0.210 HD
ENDBRANCH  36  45
ENDBRANCH  30  31
ENDBRANCH  11  30
TORSDOF 14
ENDMDL
MODEL 7
REMARK VINA RESULT:      -6.5      2.515      7.510
REMARK  Name = 
REMARK  14 active torsions:
REMARK  status: ('A' for Active; 'I' for Inactive)
REMARK    1  A    between atoms: C_3  and  O_41
REMARK    2  A    between atoms: C_4  and  O_36
REMARK    3  A    between atoms: C_6  and  C_7
REMARK    4  A    between atoms: C_8  and  O_20
REMARK    5  A    between atoms: C_12  and  O_19
REMARK    6  A    between atoms: C_14  and  O_18
REMARK    7  A    between atoms: O_20  and  C_21
REMARK    8  A    between atoms: C_23  and  O_35
REMARK    9  A    between atoms: C_24  and  O_34
REMARK   10  A    between atoms: C_25  and  O_33
REMARK   11  A    between atoms: C_27  and  C_30
REMARK   12  A    between atoms: C_30  and  O_32
REMARK   13  A    between atoms: O_36  and  S_37
REMARK   14  A    between atoms: S_37  and  O_40
REMARK                            x       y       z     vdW  Elec       q    Type
REMARK                         _______ _______ _______ _____ _____    ______ ____
ROOT
ATOM      1  C   UNL     1       7.017  -1.244  25.339  0.00  0.00    +0.181 A 
ATOM      2  O   UNL     1       7.731  -0.056  25.274  0.00  0.00    -0.451 OA
ATOM      3  C   UNL     1       8.421   0.289  24.147  0.00  0.00    +0.147 A 
ATOM      4  C   UNL     1       8.578  -0.577  23.083  0.00  0.00    +0.109 A 
ATOM      5  C   UNL     1       9.331  -0.152  21.976  0.00  0.00    +0.135 A 
ATOM      6  C   UNL     1       9.887   1.135  21.938  0.00  0.00    +0.091 A 
ATOM      7  C   UNL     1       9.693   1.996  23.013  0.00  0.00    +0.124 A 
ATOM      8  C   UNL     1       7.916  -1.890  23.171  0.00  0.00    +0.238 A 
ATOM      9  O   UNL     1       8.014  -2.684  22.234  0.00  0.00    -0.283 OA
ATOM     10  C   UNL     1       8.966   1.575  24.120  0.00  0.00    +0.092 A 
ATOM     11  C   UNL     1       7.040  -2.189  24.365  0.00  0.00    +0.214 A 
ENDROOT
BRANCH   1  13
ATOM     12  C   UNL     1       5.801  -2.365  27.292  0.00  0.00    +0.015 A 
ATOM     13  C   UNL     1       6.125  -1.235  26.542  0.00  0.00    +0.025 A 
ATOM     14  C   UNL     1       5.451  -0.038  26.866  0.00  0.00    +0.064 A 
ATOM     15  C   UNL     1       4.362  -0.026  27.738  0.00  0.00    +0.201 A 
ATOM     16  C   UNL     1       3.923  -1.227  28.281  0.00  0.00    +0.161 A 
ATOM     17  C   UNL     1       4.672  -2.384  28.116  0.00  0.00    +0.050 A 
BRANCH  16  18
ATOM     18  O   UNL     1       2.743  -1.256  28.967  0.00  0.00    -0.503 OA
ATOM     19  H   UNL     1       2.950  -1.294  29.916  0.00  0.00    +0.292 HD
ENDBRANCH  16  18
BRANCH  15  20
ATOM     20  O   UNL     1       3.629   1.104  27.987  0.00  0.00    -0.321 OA
BRANCH  20  21
ATOM     21  S   UNL     1       2.471   1.577  26.943  0.00  0.00    +0.251 S 
ATOM     22  O   UNL     1       3.089   2.062  25.730  0.00  0.00    -0.108 OA
ATOM     23  O   UNL     1       1.475   2.347  27.652  0.00  0.00    -0.108 OA
BRANCH  21  24
ATOM     24  O   UNL     1       1.738   0.187  26.583  0.00  0.00    -0.222 OA
ATOM     25  H   UNL     1       2.315  -0.295  25.959  0.00  0.00    +0.248 HD
ENDBRANCH  21  24
ENDBRANCH  20  21
ENDBRANCH  15  20
ENDBRANCH   1  13
BRANCH   5  26
ATOM     26  O   UNL     1       9.559  -0.931  20.878  0.00  0.00    -0.506 OA
ATOM     27  H   UNL     1       8.962  -0.619  20.155  0.00  0.00    +0.292 HD
ENDBRANCH   5  26
BRANCH   7  28
ATOM     28  O   UNL     1      10.197   3.261  23.029  0.00  0.00    -0.507 OA
ATOM     29  H   UNL     1      11.072   3.255  23.461  0.00  0.00    +0.292 HD
ENDBRANCH   7  28
BRANCH  11  30
ATOM     30  O   UNL     1       6.456  -3.453  24.469  0.00  0.00    -0.453 OA
BRANCH  30  31
ATOM     31  C   UNL     1       5.088  -3.630  24.041  0.00  0.00    +0.340 C 
ATOM     32  O   UNL     1       4.300  -4.299  25.051  0.00  0.00    -0.322 OA
ATOM     33  C   UNL     1       4.526  -5.703  25.262  0.00  0.00    +0.261 C 
ATOM     34  C   UNL     1       5.078  -6.567  24.106  0.00  0.00    +0.185 C 
ATOM     35  C   UNL     1       5.754  -5.766  22.996  0.00  0.00    +0.180 C 
ATOM     36  C   UNL     1       4.969  -4.474  22.756  0.00  0.00    +0.214 C 
BRANCH  33  37
ATOM     37  C   UNL     1       5.330  -5.928  26.531  0.00  0.00    +0.337 C 
ATOM     38  O   UNL     1       4.821  -6.175  27.612  0.00  0.00    -0.248 OA
BRANCH  37  39
ATOM     39  O   UNL     1       6.672  -5.898  26.349  0.00  0.00    -0.479 OA
ATOM     40  H   UNL     1       7.185  -6.032  27.174  0.00  0.00    +0.295 HD
ENDBRANCH  37  39
ENDBRANCH  33  37
BRANCH  34  41
ATOM     41  O   UNL     1       3.973  -7.288  23.509  0.00  0.00    -0.386 OA
ATOM     42  H   UNL     1       3.622  -6.667  22.830  0.00  0.00    +0.210 HD
ENDBRANCH  34  41
BRANCH  35  43
ATOM     43  O   UNL     1       5.776  -6.568  21.803  0.00  0.00    -0.386 OA
ATOM     44  H   UNL     1       4.947  -7.093  21.844  0.00  0.00    +0.210 HD
ENDBRANCH  35  43
BRANCH  36  45
ATOM     45  O   UNL     1       5.397  -3.845  21.553  0.00  0.00    -0.383 OA
ATOM     46  H   UNL     1       6.367  -3.892  21.490  0.00  0.00    +0.210 HD
ENDBRANCH  36  45
ENDBRANCH  30  31
ENDBRANCH  11  30
TORSDOF 14
ENDMDL
MODEL 8
REMARK VINA RESULT:      -6.5      2.983      5.781
REMARK  Name = 
REMARK  14 active torsions:
REMARK  status: ('A' for Active; 'I' for Inactive)
REMARK    1  A    between atoms: C_3  and  O_41
REMARK    2  A    between atoms: C_4  and  O_36
REMARK    3  A    between atoms: C_6  and  C_7
REMARK    4  A    between atoms: C_8  and  O_20
REMARK    5  A    between atoms: C_12  and  O_19
REMARK    6  A    between atoms: C_14  and  O_18
REMARK    7  A    between atoms: O_20  and  C_21
REMARK    8  A    between atoms: C_23  and  O_35
REMARK    9  A    between atoms: C_24  and  O_34
REMARK   10  A    between atoms: C_25  and  O_33
REMARK   11  A    between atoms: C_27  and  C_30
REMARK   12  A    between atoms: C_30  and  O_32
REMARK   13  A    between atoms: O_36  and  S_37
REMARK   14  A    between atoms: S_37  and  O_40
REMARK                            x       y       z     vdW  Elec       q    Type
REMARK                         _______ _______ _______ _____ _____    ______ ____
ROOT
ATOM      1  C   UNL     1       5.740  -3.568  24.375  0.00  0.00    +0.181 A 
ATOM      2  O   UNL     1       5.234  -4.692  23.736  0.00  0.00    -0.451 OA
ATOM      3  C   UNL     1       3.903  -4.995  23.796  0.00  0.00    +0.147 A 
ATOM      4  C   UNL     1       3.024  -4.306  24.610  0.00  0.00    +0.109 A 
ATOM      5  C   UNL     1       1.679  -4.706  24.635  0.00  0.00    +0.135 A 
ATOM      6  C   UNL     1       1.229  -5.762  23.829  0.00  0.00    +0.091 A 
ATOM      7  C   UNL     1       2.130  -6.423  23.002  0.00  0.00    +0.124 A 
ATOM      8  C   UNL     1       3.559  -3.172  25.382  0.00  0.00    +0.238 A 
ATOM      9  O   UNL     1       2.805  -2.518  26.104  0.00  0.00    -0.283 OA
ATOM     10  C   UNL     1       3.467  -6.046  22.986  0.00  0.00    +0.092 A 
ATOM     11  C   UNL     1       5.002  -2.768  25.186  0.00  0.00    +0.214 A 
ENDROOT
BRANCH   1  13
ATOM     12  C   UNL     1       8.278  -3.878  24.473  0.00  0.00    +0.015 A 
ATOM     13  C   UNL     1       7.138  -3.307  23.908  0.00  0.00    +0.025 A 
ATOM     14  C   UNL     1       7.342  -2.313  22.927  0.00  0.00    +0.064 A 
ATOM     15  C   UNL     1       8.604  -1.771  22.686  0.00  0.00    +0.201 A 
ATOM     16  C   UNL     1       9.679  -2.208  23.448  0.00  0.00    +0.161 A 
ATOM     17  C   UNL     1       9.539  -3.301  24.293  0.00  0.00    +0.050 A 
BRANCH  16  18
ATOM     18  O   UNL     1      10.870  -1.545  23.364  0.00  0.00    -0.503 OA
ATOM     19  H   UNL     1      11.545  -2.086  23.807  0.00  0.00    +0.292 HD
ENDBRANCH  16  18
BRANCH  15  20
ATOM     20  O   UNL     1       8.807  -0.735  21.813  0.00  0.00    -0.321 OA
BRANCH  20  21
ATOM     21  S   UNL     1       8.473   0.794  22.263  0.00  0.00    +0.251 S 
ATOM     22  O   UNL     1       9.309   1.157  23.385  0.00  0.00    -0.108 OA
ATOM     23  O   UNL     1       7.041   0.983  22.287  0.00  0.00    -0.108 OA
BRANCH  21  24
ATOM     24  O   UNL     1       8.980   1.649  20.994  0.00  0.00    -0.222 OA
ATOM     25  H   UNL     1       8.395   1.432  20.242  0.00  0.00    +0.248 HD
ENDBRANCH  21  24
ENDBRANCH  20  21
ENDBRANCH  15  20
ENDBRANCH   1  13
BRANCH   5  26
ATOM     26  O   UNL     1       0.730  -4.104  25.412  0.00  0.00    -0.506 OA
ATOM     27  H   UNL     1       1.185  -3.442  25.989  0.00  0.00    +0.292 HD
ENDBRANCH   5  26
BRANCH   7  28
ATOM     28  O   UNL     1       1.750  -7.447  22.188  0.00  0.00    -0.507 OA
ATOM     29  H   UNL     1       2.215  -7.371  21.334  0.00  0.00    +0.292 HD
ENDBRANCH   7  28
BRANCH  11  30
ATOM     30  O   UNL     1       5.519  -1.725  25.957  0.00  0.00    -0.453 OA
BRANCH  30  31
ATOM     31  C   UNL     1       5.357  -0.366  25.496  0.00  0.00    +0.340 C 
ATOM     32  O   UNL     1       6.633   0.252  25.217  0.00  0.00    -0.322 OA
ATOM     33  C   UNL     1       7.464   0.618  26.332  0.00  0.00    +0.261 C 
ATOM     34  C   UNL     1       6.810   0.926  27.698  0.00  0.00    +0.185 C 
ATOM     35  C   UNL     1       5.394   0.375  27.851  0.00  0.00    +0.180 C 
ATOM     36  C   UNL     1       4.646   0.533  26.526  0.00  0.00    +0.214 C 
BRANCH  33  37
ATOM     37  C   UNL     1       8.605  -0.371  26.494  0.00  0.00    +0.337 C 
ATOM     38  O   UNL     1       8.477  -1.459  27.031  0.00  0.00    -0.248 OA
BRANCH  37  39
ATOM     39  O   UNL     1       9.769   0.029  25.928  0.00  0.00    -0.479 OA
ATOM     40  H   UNL     1      10.540  -0.521  26.180  0.00  0.00    +0.295 HD
ENDBRANCH  37  39
ENDBRANCH  33  37
BRANCH  34  41
ATOM     41  O   UNL     1       6.736   2.364  27.853  0.00  0.00    -0.386 OA
ATOM     42  H   UNL     1       6.855   2.708  26.938  0.00  0.00    +0.210 HD
ENDBRANCH  34  41
BRANCH  35  43
ATOM     43  O   UNL     1       4.730   1.108  28.894  0.00  0.00    -0.386 OA
ATOM     44  H   UNL     1       5.435   1.291  29.553  0.00  0.00    +0.210 HD
ENDBRANCH  35  43
BRANCH  36  45
ATOM     45  O   UNL     1       3.253   0.296  26.707  0.00  0.00    -0.383 OA
ATOM     46  H   UNL     1       3.129  -0.440  27.331  0.00  0.00    +0.210 HD
ENDBRANCH  36  45
ENDBRANCH  30  31
ENDBRANCH  11  30
TORSDOF 14
ENDMDL
MODEL 9
REMARK VINA RESULT:      -6.5      3.049      6.894
REMARK  Name = 
REMARK  14 active torsions:
REMARK  status: ('A' for Active; 'I' for Inactive)
REMARK    1  A    between atoms: C_3  and  O_41
REMARK    2  A    between atoms: C_4  and  O_36
REMARK    3  A    between atoms: C_6  and  C_7
REMARK    4  A    between atoms: C_8  and  O_20
REMARK    5  A    between atoms: C_12  and  O_19
REMARK    6  A    between atoms: C_14  and  O_18
REMARK    7  A    between atoms: O_20  and  C_21
REMARK    8  A    between atoms: C_23  and  O_35
REMARK    9  A    between atoms: C_24  and  O_34
REMARK   10  A    between atoms: C_25  and  O_33
REMARK   11  A    between atoms: C_27  and  C_30
REMARK   12  A    between atoms: C_30  and  O_32
REMARK   13  A    between atoms: O_36  and  S_37
REMARK   14  A    between atoms: S_37  and  O_40
REMARK                            x       y       z     vdW  Elec       q    Type
REMARK                         _______ _______ _______ _____ _____    ______ ____
ROOT
ATOM      1  C   UNL     1       9.637   2.141  23.583  0.00  0.00    +0.181 A 
ATOM      2  O   UNL     1      10.744   2.700  22.959  0.00  0.00    -0.451 OA
ATOM      3  C   UNL     1      11.199   3.938  23.312  0.00  0.00    +0.147 A 
ATOM      4  C   UNL     1      10.508   4.761  24.180  0.00  0.00    +0.109 A 
ATOM      5  C   UNL     1      11.032   6.032  24.462  0.00  0.00    +0.135 A 
ATOM      6  C   UNL     1      12.247   6.448  23.898  0.00  0.00    +0.091 A 
ATOM      7  C   UNL     1      12.935   5.592  23.046  0.00  0.00    +0.124 A 
ATOM      8  C   UNL     1       9.270   4.231  24.777  0.00  0.00    +0.238 A 
ATOM      9  O   UNL     1       8.634   4.924  25.573  0.00  0.00    -0.283 OA
ATOM     10  C   UNL     1      12.412   4.339  22.747  0.00  0.00    +0.092 A 
ATOM     11  C   UNL     1       8.866   2.805  24.483  0.00  0.00    +0.214 A 
ENDROOT
BRANCH   1  13
ATOM     12  C   UNL     1       9.699   0.175  21.947  0.00  0.00    +0.015 A 
ATOM     13  C   UNL     1       9.537   0.689  23.234  0.00  0.00    +0.025 A 
ATOM     14  C   UNL     1       9.114  -0.213  24.233  0.00  0.00    +0.064 A 
ATOM     15  C   UNL     1       8.669  -1.497  23.918  0.00  0.00    +0.201 A 
ATOM     16  C   UNL     1       8.624  -1.884  22.586  0.00  0.00    +0.161 A 
ATOM     17  C   UNL     1       9.194  -1.084  21.605  0.00  0.00    +0.050 A 
BRANCH  16  18
ATOM     18  O   UNL     1       8.003  -3.053  22.252  0.00  0.00    -0.503 OA
ATOM     19  H   UNL     1       8.684  -3.743  22.176  0.00  0.00    +0.292 HD
ENDBRANCH  16  18
BRANCH  15  20
ATOM     20  O   UNL     1       8.158  -2.351  24.859  0.00  0.00    -0.321 OA
BRANCH  20  21
ATOM     21  S   UNL     1       8.912  -3.756  25.188  0.00  0.00    +0.251 S 
ATOM     22  O   UNL     1       8.919  -3.974  26.617  0.00  0.00    -0.108 OA
ATOM     23  O   UNL     1      10.118  -3.847  24.398  0.00  0.00    -0.108 OA
BRANCH  21  24
ATOM     24  O   UNL     1       7.915  -4.847  24.544  0.00  0.00    -0.222 OA
ATOM     25  H   UNL     1       8.465  -5.511  24.085  0.00  0.00    +0.248 HD
ENDBRANCH  21  24
ENDBRANCH  20  21
ENDBRANCH  15  20
ENDBRANCH   1  13
BRANCH   5  26
ATOM     26  O   UNL     1      10.424   6.929  25.294  0.00  0.00    -0.506 OA
ATOM     27  H   UNL     1      10.955   7.763  25.281  0.00  0.00    +0.292 HD
ENDBRANCH   5  26
BRANCH   7  28
ATOM     28  O   UNL     1      14.125   5.935  22.478  0.00  0.00    -0.507 OA
ATOM     29  H   UNL     1      14.690   6.364  23.148  0.00  0.00    +0.292 HD
ENDBRANCH   7  28
BRANCH  11  30
ATOM     30  O   UNL     1       7.666   2.324  25.009  0.00  0.00    -0.453 OA
BRANCH  30  31
ATOM     31  C   UNL     1       6.434   2.596  24.307  0.00  0.00    +0.340 C 
ATOM     32  O   UNL     1       5.657   3.614  24.977  0.00  0.00    -0.322 OA
ATOM     33  C   UNL     1       5.001   3.261  26.207  0.00  0.00    +0.261 C 
ATOM     34  C   UNL     1       4.615   1.788  26.467  0.00  0.00    +0.185 C 
ATOM     35  C   UNL     1       5.367   0.782  25.599  0.00  0.00    +0.180 C 
ATOM     36  C   UNL     1       5.528   1.354  24.189  0.00  0.00    +0.214 C 
BRANCH  33  37
ATOM     37  C   UNL     1       5.752   3.837  27.395  0.00  0.00    +0.337 C 
ATOM     38  O   UNL     1       5.285   4.687  28.134  0.00  0.00    -0.248 OA
BRANCH  37  39
ATOM     39  O   UNL     1       6.966   3.275  27.608  0.00  0.00    -0.479 OA
ATOM     40  H   UNL     1       7.716   3.833  27.309  0.00  0.00    +0.295 HD
ENDBRANCH  37  39
ENDBRANCH  33  37
BRANCH  34  41
ATOM     41  O   UNL     1       3.202   1.631  26.187  0.00  0.00    -0.386 OA
ATOM     42  H   UNL     1       3.179   1.015  25.419  0.00  0.00    +0.210 HD
ENDBRANCH  34  41
BRANCH  35  43
ATOM     43  O   UNL     1       4.614  -0.442  25.561  0.00  0.00    -0.386 OA
ATOM     44  H   UNL     1       5.291  -1.144  25.444  0.00  0.00    +0.210 HD
ENDBRANCH  35  43
BRANCH  36  45
ATOM     45  O   UNL     1       5.967   0.343  23.286  0.00  0.00    -0.383 OA
ATOM     46  H   UNL     1       6.674  -0.179  23.704  0.00  0.00    +0.210 HD
ENDBRANCH  36  45
ENDBRANCH  30  31
ENDBRANCH  11  30
TORSDOF 14
ENDMDL
