MODEL 1
REMARK VINA RESULT:      -7.8      0.000      0.000
REMARK  Name = 
REMARK  15 active torsions:
REMARK  status: ('A' for Active; 'I' for Inactive)
REMARK    1  A    between atoms: C_1  and  C_2
REMARK    2  A    between atoms: C_4  and  O_52
REMARK    3  A    between atoms: C_6  and  O_51
REMARK    4  A    between atoms: C_8  and  O_50
REMARK    5  A    between atoms: C_10  and  O_13
REMARK    6  A    between atoms: O_13  and  C_14
REMARK    7  A    between atoms: C_16  and  O_49
REMARK    8  A    between atoms: C_21  and  C_41
REMARK    9  A    between atoms: C_22  and  O_25
REMARK   10  A    between atoms: O_25  and  C_26
REMARK   11  A    between atoms: C_28  and  O_40
REMARK   12  A    between atoms: C_30  and  O_39
REMARK   13  A    between atoms: C_32  and  O_38
REMARK   14  A    between atoms: C_34  and  C_37
REMARK   15  A    between atoms: C_43  and  O_48
REMARK                            x       y       z     vdW  Elec       q    Type
REMARK                         _______ _______ _______ _____ _____    ______ ____
ROOT
ATOM      1  C   UNL     1       7.007  -2.556  24.179  0.00  0.00    +0.131 A 
ATOM      2  C   UNL     1       6.429  -1.279  24.175  0.00  0.00    +0.093 A 
ATOM      3  C   UNL     1       7.132  -0.173  23.670  0.00  0.00    +0.147 A 
ATOM      4  O   UNL     1       6.486   1.029  23.682  0.00  0.00    -0.451 OA
ATOM      5  C   UNL     1       7.184   2.192  23.341  0.00  0.00    +0.181 A 
ATOM      6  C   UNL     1       8.447   2.202  22.836  0.00  0.00    +0.214 A 
ATOM      7  C   UNL     1       9.078   0.864  22.600  0.00  0.00    +0.238 A 
ATOM      8  O   UNL     1      10.100   0.775  21.928  0.00  0.00    -0.283 OA
ATOM      9  C   UNL     1       8.412  -0.326  23.159  0.00  0.00    +0.109 A 
ATOM     10  C   UNL     1       8.995  -1.596  23.170  0.00  0.00    +0.135 A 
ATOM     11  C   UNL     1       8.307  -2.698  23.692  0.00  0.00    +0.092 A 
ENDROOT
BRANCH   5  12
ATOM     12  C   UNL     1       6.343   3.361  23.652  0.00  0.00    +0.024 A 
ATOM     13  C   UNL     1       6.108   3.733  24.983  0.00  0.00    +0.011 A 
ATOM     14  C   UNL     1       5.424   4.924  25.286  0.00  0.00    -0.004 A 
ATOM     15  C   UNL     1       4.935   5.790  24.298  0.00  0.00    -0.066 A 
ATOM     16  O   UNL     1       4.297   6.868  24.553  0.00  0.00    -0.871 OA
ATOM     17  C   UNL     1       5.198   5.360  22.978  0.00  0.00    +0.110 A 
ATOM     18  C   UNL     1       5.890   4.198  22.637  0.00  0.00    +0.056 A 
BRANCH  17  19
ATOM     19  O   UNL     1       4.704   6.153  21.967  0.00  0.00    -0.507 OA
ATOM     20  H   UNL     1       3.844   5.685  21.827  0.00  0.00    +0.292 HD
ENDBRANCH  17  19
ENDBRANCH   5  12
BRANCH  10  21
ATOM     21  O   UNL     1      10.254  -1.795  22.680  0.00  0.00    -0.506 OA
ATOM     22  H   UNL     1      10.447  -2.741  22.595  0.00  0.00    +0.292 HD
ENDBRANCH  10  21
BRANCH   1  23
ATOM     23  O   UNL     1       6.216  -3.569  24.661  0.00  0.00    -0.461 OA
BRANCH  23  27
ATOM     24  C   UNL     1       4.926  -5.235  26.855  0.00  0.00    +0.041 C 
ATOM     25  C   UNL     1       5.158  -6.205  25.701  0.00  0.00    +0.150 C 
ATOM     26  O   UNL     1       6.368  -5.934  24.971  0.00  0.00    -0.334 OA
ATOM     27  C   UNL     1       6.315  -4.856  24.025  0.00  0.00    +0.339 C 
ATOM     28  C   UNL     1       5.165  -5.055  23.015  0.00  0.00    +0.214 C 
ATOM     29  C   UNL     1       3.827  -5.247  23.731  0.00  0.00    +0.180 C 
ATOM     30  C   UNL     1       3.944  -6.375  24.764  0.00  0.00    +0.174 C 
BRANCH  28  31
ATOM     31  O   UNL     1       5.096  -3.977  22.077  0.00  0.00    -0.383 OA
ATOM     32  H   UNL     1       4.195  -3.983  21.703  0.00  0.00    +0.210 HD
ENDBRANCH  28  31
BRANCH  29  33
ATOM     33  O   UNL     1       3.372  -4.018  24.310  0.00  0.00    -0.386 OA
ATOM     34  H   UNL     1       3.831  -3.869  25.158  0.00  0.00    +0.210 HD
ENDBRANCH  29  33
BRANCH  30  35
ATOM     35  O   UNL     1       4.084  -7.624  24.059  0.00  0.00    -0.387 OA
ATOM     36  H   UNL     1       3.803  -7.489  23.135  0.00  0.00    +0.210 HD
ENDBRANCH  30  35
ENDBRANCH  23  27
ENDBRANCH   1  23
BRANCH   6  37
ATOM     37  O   UNL     1       9.273   3.238  22.466  0.00  0.00    -0.453 OA
BRANCH  37  38
ATOM     38  C   UNL     1      10.129   3.908  23.376  0.00  0.00    +0.339 C 
ATOM     39  O   UNL     1      11.325   4.318  22.715  0.00  0.00    -0.334 OA
ATOM     40  C   UNL     1      12.272   4.868  23.641  0.00  0.00    +0.150 C 
ATOM     41  C   UNL     1      13.572   5.112  22.892  0.00  0.00    +0.041 C 
ATOM     42  C   UNL     1      11.725   6.164  24.281  0.00  0.00    +0.174 C 
ATOM     43  C   UNL     1      10.336   5.886  24.895  0.00  0.00    +0.180 C 
ATOM     44  C   UNL     1       9.418   5.199  23.865  0.00  0.00    +0.214 C 
BRANCH  42  45
ATOM     45  O   UNL     1      12.628   6.665  25.275  0.00  0.00    -0.387 OA
ATOM     46  H   UNL     1      13.520   6.347  25.061  0.00  0.00    +0.210 HD
ENDBRANCH  42  45
BRANCH  43  47
ATOM     47  O   UNL     1       9.762   7.101  25.400  0.00  0.00    -0.386 OA
ATOM     48  H   UNL     1       9.825   7.081  26.369  0.00  0.00    +0.210 HD
ENDBRANCH  43  47
BRANCH  44  49
ATOM     49  O   UNL     1       9.156   6.106  22.773  0.00  0.00    -0.383 OA
ATOM     50  H   UNL     1       9.974   6.628  22.647  0.00  0.00    +0.210 HD
ENDBRANCH  44  49
ENDBRANCH  37  38
ENDBRANCH   6  37
TORSDOF 13
ENDMDL
MODEL 2
REMARK VINA RESULT:      -7.6      2.207      9.883
REMARK  Name = 
REMARK  15 active torsions:
REMARK  status: ('A' for Active; 'I' for Inactive)
REMARK    1  A    between atoms: C_1  and  C_2
REMARK    2  A    between atoms: C_4  and  O_52
REMARK    3  A    between atoms: C_6  and  O_51
REMARK    4  A    between atoms: C_8  and  O_50
REMARK    5  A    between atoms: C_10  and  O_13
REMARK    6  A    between atoms: O_13  and  C_14
REMARK    7  A    between atoms: C_16  and  O_49
REMARK    8  A    between atoms: C_21  and  C_41
REMARK    9  A    between atoms: C_22  and  O_25
REMARK   10  A    between atoms: O_25  and  C_26
REMARK   11  A    between atoms: C_28  and  O_40
REMARK   12  A    between atoms: C_30  and  O_39
REMARK   13  A    between atoms: C_32  and  O_38
REMARK   14  A    between atoms: C_34  and  C_37
REMARK   15  A    between atoms: C_43  and  O_48
REMARK                            x       y       z     vdW  Elec       q    Type
REMARK                         _______ _______ _______ _____ _____    ______ ____
ROOT
ATOM      1  C   UNL     1       8.854   1.962  24.465  0.00  0.00    +0.131 A 
ATOM      2  C   UNL     1       8.344   0.974  25.317  0.00  0.00    +0.093 A 
ATOM      3  C   UNL     1       8.523  -0.388  25.026  0.00  0.00    +0.147 A 
ATOM      4  O   UNL     1       8.017  -1.284  25.922  0.00  0.00    -0.451 OA
ATOM      5  C   UNL     1       8.023  -2.648  25.614  0.00  0.00    +0.181 A 
ATOM      6  C   UNL     1       8.651  -3.182  24.532  0.00  0.00    +0.214 A 
ATOM      7  C   UNL     1       9.411  -2.224  23.667  0.00  0.00    +0.238 A 
ATOM      8  O   UNL     1      10.197  -2.646  22.825  0.00  0.00    -0.283 OA
ATOM      9  C   UNL     1       9.215  -0.781  23.891  0.00  0.00    +0.109 A 
ATOM     10  C   UNL     1       9.717   0.202  23.033  0.00  0.00    +0.135 A 
ATOM     11  C   UNL     1       9.522   1.561  23.307  0.00  0.00    +0.092 A 
ENDROOT
BRANCH   5  12
ATOM     12  C   UNL     1       7.223  -3.368  26.621  0.00  0.00    +0.024 A 
ATOM     13  C   UNL     1       5.981  -2.865  27.034  0.00  0.00    +0.011 A 
ATOM     14  C   UNL     1       5.151  -3.614  27.888  0.00  0.00    -0.004 A 
ATOM     15  C   UNL     1       5.510  -4.877  28.378  0.00  0.00    -0.066 A 
ATOM     16  O   UNL     1       4.777  -5.566  29.167  0.00  0.00    -0.871 OA
ATOM     17  C   UNL     1       6.772  -5.328  27.931  0.00  0.00    +0.110 A 
ATOM     18  C   UNL     1       7.615  -4.626  27.069  0.00  0.00    +0.056 A 
BRANCH  17  19
ATOM     19  O   UNL     1       7.193  -6.546  28.415  0.00  0.00    -0.507 OA
ATOM     20  H   UNL     1       6.635  -7.128  27.842  0.00  0.00    +0.292 HD
ENDBRANCH  17  19
ENDBRANCH   5  12
BRANCH  10  21
ATOM     21  O   UNL     1      10.403  -0.136  21.902  0.00  0.00    -0.506 OA
ATOM     22  H   UNL     1      11.129  -0.744  22.107  0.00  0.00    +0.292 HD
ENDBRANCH  10  21
BRANCH   1  23
ATOM     23  O   UNL     1       8.653   3.260  24.865  0.00  0.00    -0.461 OA
BRANCH  23  27
ATOM     24  C   UNL     1       6.874   4.159  27.162  0.00  0.00    +0.041 C 
ATOM     25  C   UNL     1       6.362   4.916  25.941  0.00  0.00    +0.150 C 
ATOM     26  O   UNL     1       6.438   4.146  24.728  0.00  0.00    -0.334 OA
ATOM     27  C   UNL     1       7.728   4.060  24.107  0.00  0.00    +0.339 C 
ATOM     28  C   UNL     1       8.314   5.462  23.837  0.00  0.00    +0.214 C 
ATOM     29  C   UNL     1       8.357   6.299  25.117  0.00  0.00    +0.180 C 
ATOM     30  C   UNL     1       6.968   6.324  25.771  0.00  0.00    +0.174 C 
BRANCH  28  31
ATOM     31  O   UNL     1       9.608   5.385  23.231  0.00  0.00    -0.383 OA
ATOM     32  H   UNL     1      10.123   4.735  23.744  0.00  0.00    +0.210 HD
ENDBRANCH  28  31
BRANCH  29  33
ATOM     33  O   UNL     1       9.374   5.827  26.008  0.00  0.00    -0.386 OA
ATOM     34  H   UNL     1      10.131   5.495  25.490  0.00  0.00    +0.210 HD
ENDBRANCH  29  33
BRANCH  30  35
ATOM     35  O   UNL     1       6.087   7.102  24.938  0.00  0.00    -0.387 OA
ATOM     36  H   UNL     1       6.476   7.156  24.045  0.00  0.00    +0.210 HD
ENDBRANCH  30  35
ENDBRANCH  23  27
ENDBRANCH   1  23
BRANCH   6  37
ATOM     37  O   UNL     1       8.743  -4.477  24.079  0.00  0.00    -0.453 OA
BRANCH  37  38
ATOM     38  C   UNL     1       7.628  -5.215  23.610  0.00  0.00    +0.339 C 
ATOM     39  O   UNL     1       6.433  -4.757  24.241  0.00  0.00    -0.334 OA
ATOM     40  C   UNL     1       5.310  -5.579  23.896  0.00  0.00    +0.150 C 
ATOM     41  C   UNL     1       4.128  -5.136  24.742  0.00  0.00    +0.041 C 
ATOM     42  C   UNL     1       5.004  -5.484  22.385  0.00  0.00    +0.174 C 
ATOM     43  C   UNL     1       6.284  -5.800  21.581  0.00  0.00    +0.180 C 
ATOM     44  C   UNL     1       7.464  -4.949  22.089  0.00  0.00    +0.214 C 
BRANCH  42  45
ATOM     45  O   UNL     1       3.943  -6.376  22.019  0.00  0.00    -0.387 OA
ATOM     46  H   UNL     1       4.213  -6.854  21.218  0.00  0.00    +0.210 HD
ENDBRANCH  42  45
BRANCH  43  47
ATOM     47  O   UNL     1       6.051  -5.613  20.177  0.00  0.00    -0.386 OA
ATOM     48  H   UNL     1       6.799  -6.001  19.695  0.00  0.00    +0.210 HD
ENDBRANCH  43  47
BRANCH  44  49
ATOM     49  O   UNL     1       7.203  -3.555  21.819  0.00  0.00    -0.383 OA
ATOM     50  H   UNL     1       6.337  -3.520  21.366  0.00  0.00    +0.210 HD
ENDBRANCH  44  49
ENDBRANCH  37  38
ENDBRANCH   6  37
TORSDOF 13
ENDMDL
MODEL 3
REMARK VINA RESULT:      -7.6      1.484      2.184
REMARK  Name = 
REMARK  15 active torsions:
REMARK  status: ('A' for Active; 'I' for Inactive)
REMARK    1  A    between atoms: C_1  and  C_2
REMARK    2  A    between atoms: C_4  and  O_52
REMARK    3  A    between atoms: C_6  and  O_51
REMARK    4  A    between atoms: C_8  and  O_50
REMARK    5  A    between atoms: C_10  and  O_13
REMARK    6  A    between atoms: O_13  and  C_14
REMARK    7  A    between atoms: C_16  and  O_49
REMARK    8  A    between atoms: C_21  and  C_41
REMARK    9  A    between atoms: C_22  and  O_25
REMARK   10  A    between atoms: O_25  and  C_26
REMARK   11  A    between atoms: C_28  and  O_40
REMARK   12  A    between atoms: C_30  and  O_39
REMARK   13  A    between atoms: C_32  and  O_38
REMARK   14  A    between atoms: C_34  and  C_37
REMARK   15  A    between atoms: C_43  and  O_48
REMARK                            x       y       z     vdW  Elec       q    Type
REMARK                         _______ _______ _______ _____ _____    ______ ____
ROOT
ATOM      1  C   UNL     1       7.287  -3.097  25.134  0.00  0.00    +0.131 A 
ATOM      2  C   UNL     1       6.620  -1.874  24.983  0.00  0.00    +0.093 A 
ATOM      3  C   UNL     1       7.241  -0.790  24.341  0.00  0.00    +0.147 A 
ATOM      4  O   UNL     1       6.510   0.355  24.214  0.00  0.00    -0.451 OA
ATOM      5  C   UNL     1       7.123   1.515  23.728  0.00  0.00    +0.181 A 
ATOM      6  C   UNL     1       8.381   1.553  23.212  0.00  0.00    +0.214 A 
ATOM      7  C   UNL     1       9.105   0.245  23.132  0.00  0.00    +0.238 A 
ATOM      8  O   UNL     1      10.130   0.147  22.465  0.00  0.00    -0.283 OA
ATOM      9  C   UNL     1       8.527  -0.913  23.838  0.00  0.00    +0.109 A 
ATOM     10  C   UNL     1       9.199  -2.128  23.995  0.00  0.00    +0.135 A 
ATOM     11  C   UNL     1       8.593  -3.205  24.653  0.00  0.00    +0.092 A 
ENDROOT
BRANCH   5  12
ATOM     12  C   UNL     1       6.201   2.651  23.906  0.00  0.00    +0.024 A 
ATOM     13  C   UNL     1       6.016   3.225  25.171  0.00  0.00    +0.011 A 
ATOM     14  C   UNL     1       5.248   4.393  25.325  0.00  0.00    -0.004 A 
ATOM     15  C   UNL     1       4.623   5.037  24.248  0.00  0.00    -0.066 A 
ATOM     16  O   UNL     1       3.908   6.090  24.369  0.00  0.00    -0.871 OA
ATOM     17  C   UNL     1       4.843   4.411  23.001  0.00  0.00    +0.110 A 
ATOM     18  C   UNL     1       5.613   3.265  22.804  0.00  0.00    +0.056 A 
BRANCH  17  19
ATOM     19  O   UNL     1       4.218   4.979  21.913  0.00  0.00    -0.507 OA
ATOM     20  H   UNL     1       4.658   4.450  21.203  0.00  0.00    +0.292 HD
ENDBRANCH  17  19
ENDBRANCH   5  12
BRANCH  10  21
ATOM     21  O   UNL     1      10.468  -2.295  23.518  0.00  0.00    -0.506 OA
ATOM     22  H   UNL     1      10.721  -1.559  22.941  0.00  0.00    +0.292 HD
ENDBRANCH  10  21
BRANCH   1  23
ATOM     23  O   UNL     1       6.572  -4.098  25.743  0.00  0.00    -0.461 OA
BRANCH  23  27
ATOM     24  C   UNL     1       3.534  -4.224  25.663  0.00  0.00    +0.041 C 
ATOM     25  C   UNL     1       3.894  -4.220  27.145  0.00  0.00    +0.150 C 
ATOM     26  O   UNL     1       5.042  -3.405  27.444  0.00  0.00    -0.334 OA
ATOM     27  C   UNL     1       6.325  -3.980  27.156  0.00  0.00    +0.339 C 
ATOM     28  C   UNL     1       6.495  -5.346  27.855  0.00  0.00    +0.214 C 
ATOM     29  C   UNL     1       5.354  -6.298  27.493  0.00  0.00    +0.180 C 
ATOM     30  C   UNL     1       4.004  -5.625  27.773  0.00  0.00    +0.174 C 
BRANCH  28  31
ATOM     31  O   UNL     1       7.767  -5.933  27.561  0.00  0.00    -0.383 OA
ATOM     32  H   UNL     1       8.443  -5.380  27.995  0.00  0.00    +0.210 HD
ENDBRANCH  28  31
BRANCH  29  33
ATOM     33  O   UNL     1       5.471  -6.752  26.140  0.00  0.00    -0.386 OA
ATOM     34  H   UNL     1       6.414  -6.844  25.908  0.00  0.00    +0.210 HD
ENDBRANCH  29  33
BRANCH  30  35
ATOM     35  O   UNL     1       3.845  -5.500  29.200  0.00  0.00    -0.387 OA
ATOM     36  H   UNL     1       4.399  -4.759  29.507  0.00  0.00    +0.210 HD
ENDBRANCH  30  35
ENDBRANCH  23  27
ENDBRANCH   1  23
BRANCH   6  37
ATOM     37  O   UNL     1       9.129   2.593  22.711  0.00  0.00    -0.453 OA
BRANCH  37  38
ATOM     38  C   UNL     1       9.826   3.512  23.535  0.00  0.00    +0.339 C 
ATOM     39  O   UNL     1      11.008   3.964  22.878  0.00  0.00    -0.334 OA
ATOM     40  C   UNL     1      11.809   4.781  23.743  0.00  0.00    +0.150 C 
ATOM     41  C   UNL     1      13.122   5.069  23.034  0.00  0.00    +0.041 C 
ATOM     42  C   UNL     1      11.060   6.079  24.118  0.00  0.00    +0.174 C 
ATOM     43  C   UNL     1       9.673   5.725  24.695  0.00  0.00    +0.180 C 
ATOM     44  C   UNL     1       8.927   4.759  23.753  0.00  0.00    +0.214 C 
BRANCH  42  45
ATOM     45  O   UNL     1      11.817   6.855  25.057  0.00  0.00    -0.387 OA
ATOM     46  H   UNL     1      12.038   7.703  24.639  0.00  0.00    +0.210 HD
ENDBRANCH  42  45
BRANCH  43  47
ATOM     47  O   UNL     1       8.918   6.918  24.950  0.00  0.00    -0.386 OA
ATOM     48  H   UNL     1       9.156   7.573  24.275  0.00  0.00    +0.210 HD
ENDBRANCH  43  47
BRANCH  44  49
ATOM     49  O   UNL     1       8.639   5.430  22.507  0.00  0.00    -0.383 OA
ATOM     50  H   UNL     1       7.953   4.896  22.059  0.00  0.00    +0.210 HD
ENDBRANCH  44  49
ENDBRANCH  37  38
ENDBRANCH   6  37
TORSDOF 13
ENDMDL
MODEL 4
REMARK VINA RESULT:      -7.1      2.657      4.767
REMARK  Name = 
REMARK  15 active torsions:
REMARK  status: ('A' for Active; 'I' for Inactive)
REMARK    1  A    between atoms: C_1  and  C_2
REMARK    2  A    between atoms: C_4  and  O_52
REMARK    3  A    between atoms: C_6  and  O_51
REMARK    4  A    between atoms: C_8  and  O_50
REMARK    5  A    between atoms: C_10  and  O_13
REMARK    6  A    between atoms: O_13  and  C_14
REMARK    7  A    between atoms: C_16  and  O_49
REMARK    8  A    between atoms: C_21  and  C_41
REMARK    9  A    between atoms: C_22  and  O_25
REMARK   10  A    between atoms: O_25  and  C_26
REMARK   11  A    between atoms: C_28  and  O_40
REMARK   12  A    between atoms: C_30  and  O_39
REMARK   13  A    between atoms: C_32  and  O_38
REMARK   14  A    between atoms: C_34  and  C_37
REMARK   15  A    between atoms: C_43  and  O_48
REMARK                            x       y       z     vdW  Elec       q    Type
REMARK                         _______ _______ _______ _____ _____    ______ ____
ROOT
ATOM      1  C   UNL     1       4.215  -5.216  24.036  0.00  0.00    +0.131 A 
ATOM      2  C   UNL     1       4.384  -4.038  24.776  0.00  0.00    +0.093 A 
ATOM      3  C   UNL     1       5.395  -3.121  24.446  0.00  0.00    +0.147 A 
ATOM      4  O   UNL     1       5.474  -1.988  25.203  0.00  0.00    -0.451 OA
ATOM      5  C   UNL     1       6.551  -1.114  25.028  0.00  0.00    +0.181 A 
ATOM      6  C   UNL     1       7.469  -1.226  24.030  0.00  0.00    +0.214 A 
ATOM      7  C   UNL     1       7.251  -2.338  23.051  0.00  0.00    +0.238 A 
ATOM      8  O   UNL     1       7.878  -2.362  21.996  0.00  0.00    -0.283 OA
ATOM      9  C   UNL     1       6.242  -3.362  23.375  0.00  0.00    +0.109 A 
ATOM     10  C   UNL     1       6.082  -4.540  22.641  0.00  0.00    +0.135 A 
ATOM     11  C   UNL     1       5.090  -5.468  22.979  0.00  0.00    +0.092 A 
ENDROOT
BRANCH   5  12
ATOM     12  C   UNL     1       6.530  -0.109  26.105  0.00  0.00    +0.024 A 
ATOM     13  C   UNL     1       5.473   0.807  26.202  0.00  0.00    +0.011 A 
ATOM     14  C   UNL     1       5.374   1.676  27.303  0.00  0.00    -0.004 A 
ATOM     15  C   UNL     1       6.310   1.688  28.346  0.00  0.00    -0.066 A 
ATOM     16  O   UNL     1       6.246   2.481  29.347  0.00  0.00    -0.871 OA
ATOM     17  C   UNL     1       7.352   0.747  28.192  0.00  0.00    +0.110 A 
ATOM     18  C   UNL     1       7.475  -0.145  27.126  0.00  0.00    +0.056 A 
BRANCH  17  19
ATOM     19  O   UNL     1       8.323   0.744  29.168  0.00  0.00    -0.507 OA
ATOM     20  H   UNL     1       8.119  -0.136  29.569  0.00  0.00    +0.292 HD
ENDBRANCH  17  19
ENDBRANCH   5  12
BRANCH  10  21
ATOM     21  O   UNL     1       6.895  -4.821  21.579  0.00  0.00    -0.506 OA
ATOM     22  H   UNL     1       7.619  -5.407  21.844  0.00  0.00    +0.292 HD
ENDBRANCH  10  21
BRANCH   1  23
ATOM     23  O   UNL     1       3.172  -6.022  24.423  0.00  0.00    -0.461 OA
BRANCH  23  27
ATOM     24  C   UNL     1       1.856  -5.071  26.994  0.00  0.00    +0.041 C 
ATOM     25  C   UNL     1       2.311  -6.499  27.283  0.00  0.00    +0.150 C 
ATOM     26  O   UNL     1       3.552  -6.836  26.637  0.00  0.00    -0.334 OA
ATOM     27  C   UNL     1       3.477  -7.164  25.243  0.00  0.00    +0.339 C 
ATOM     28  C   UNL     1       2.466  -8.302  24.990  0.00  0.00    +0.214 C 
ATOM     29  C   UNL     1       1.091  -7.959  25.564  0.00  0.00    +0.180 C 
ATOM     30  C   UNL     1       1.226  -7.568  27.043  0.00  0.00    +0.174 C 
BRANCH  28  31
ATOM     31  O   UNL     1       2.375  -8.626  23.599  0.00  0.00    -0.383 OA
ATOM     32  H   UNL     1       1.720  -9.345  23.517  0.00  0.00    +0.210 HD
ENDBRANCH  28  31
BRANCH  29  33
ATOM     33  O   UNL     1       0.446  -6.944  24.786  0.00  0.00    -0.386 OA
ATOM     34  H   UNL     1      -0.350  -7.316  24.361  0.00  0.00    +0.210 HD
ENDBRANCH  29  33
BRANCH  30  35
ATOM     35  O   UNL     1       1.574  -8.748  27.794  0.00  0.00    -0.387 OA
ATOM     36  H   UNL     1       1.767  -8.481  28.712  0.00  0.00    +0.210 HD
ENDBRANCH  30  35
ENDBRANCH  23  27
ENDBRANCH   1  23
BRANCH   6  37
ATOM     37  O   UNL     1       8.580  -0.474  23.725  0.00  0.00    -0.453 OA
BRANCH  37  38
ATOM     38  C   UNL     1       8.513   0.760  23.032  0.00  0.00    +0.339 C 
ATOM     39  O   UNL     1       7.221   1.344  23.190  0.00  0.00    -0.334 OA
ATOM     40  C   UNL     1       7.075   2.520  22.382  0.00  0.00    +0.150 C 
ATOM     41  C   UNL     1       5.627   2.973  22.470  0.00  0.00    +0.041 C 
ATOM     42  C   UNL     1       8.053   3.625  22.842  0.00  0.00    +0.174 C 
ATOM     43  C   UNL     1       9.488   3.060  22.874  0.00  0.00    +0.180 C 
ATOM     44  C   UNL     1       9.532   1.742  23.672  0.00  0.00    +0.214 C 
BRANCH  42  45
ATOM     45  O   UNL     1       7.977   4.767  21.979  0.00  0.00    -0.387 OA
ATOM     46  H   UNL     1       8.839   5.214  21.993  0.00  0.00    +0.210 HD
ENDBRANCH  42  45
BRANCH  43  47
ATOM     47  O   UNL     1      10.399   4.037  23.401  0.00  0.00    -0.386 OA
ATOM     48  H   UNL     1      11.040   3.575  23.964  0.00  0.00    +0.210 HD
ENDBRANCH  43  47
BRANCH  44  49
ATOM     49  O   UNL     1       9.216   2.007  25.056  0.00  0.00    -0.383 OA
ATOM     50  H   UNL     1       9.853   2.685  25.358  0.00  0.00    +0.210 HD
ENDBRANCH  44  49
ENDBRANCH  37  38
ENDBRANCH   6  37
TORSDOF 13
ENDMDL
MODEL 5
REMARK VINA RESULT:      -6.9      2.526      3.734
REMARK  Name = 
REMARK  15 active torsions:
REMARK  status: ('A' for Active; 'I' for Inactive)
REMARK    1  A    between atoms: C_1  and  C_2
REMARK    2  A    between atoms: C_4  and  O_52
REMARK    3  A    between atoms: C_6  and  O_51
REMARK    4  A    between atoms: C_8  and  O_50
REMARK    5  A    between atoms: C_10  and  O_13
REMARK    6  A    between atoms: O_13  and  C_14
REMARK    7  A    between atoms: C_16  and  O_49
REMARK    8  A    between atoms: C_21  and  C_41
REMARK    9  A    between atoms: C_22  and  O_25
REMARK   10  A    between atoms: O_25  and  C_26
REMARK   11  A    between atoms: C_28  and  O_40
REMARK   12  A    between atoms: C_30  and  O_39
REMARK   13  A    between atoms: C_32  and  O_38
REMARK   14  A    between atoms: C_34  and  C_37
REMARK   15  A    between atoms: C_43  and  O_48
REMARK                            x       y       z     vdW  Elec       q    Type
REMARK                         _______ _______ _______ _____ _____    ______ ____
ROOT
ATOM      1  C   UNL     1       4.914  -3.759  23.949  0.00  0.00    +0.131 A 
ATOM      2  C   UNL     1       4.834  -2.638  24.787  0.00  0.00    +0.093 A 
ATOM      3  C   UNL     1       5.713  -1.555  24.624  0.00  0.00    +0.147 A 
ATOM      4  O   UNL     1       5.549  -0.494  25.467  0.00  0.00    -0.451 OA
ATOM      5  C   UNL     1       6.487   0.543  25.461  0.00  0.00    +0.181 A 
ATOM      6  C   UNL     1       7.492   0.657  24.552  0.00  0.00    +0.214 A 
ATOM      7  C   UNL     1       7.535  -0.385  23.477  0.00  0.00    +0.238 A 
ATOM      8  O   UNL     1       8.244  -0.223  22.489  0.00  0.00    -0.283 OA
ATOM      9  C   UNL     1       6.675  -1.572  23.626  0.00  0.00    +0.109 A 
ATOM     10  C   UNL     1       6.764  -2.692  22.795  0.00  0.00    +0.135 A 
ATOM     11  C   UNL     1       5.904  -3.784  22.966  0.00  0.00    +0.092 A 
ENDROOT
BRANCH   5  12
ATOM     12  C   UNL     1       6.218   1.435  26.602  0.00  0.00    +0.024 A 
ATOM     13  C   UNL     1       4.947   2.002  26.777  0.00  0.00    +0.011 A 
ATOM     14  C   UNL     1       4.644   2.740  27.935  0.00  0.00    -0.004 A 
ATOM     15  C   UNL     1       5.574   2.962  28.960  0.00  0.00    -0.066 A 
ATOM     16  O   UNL     1       5.322   3.643  30.012  0.00  0.00    -0.871 OA
ATOM     17  C   UNL     1       6.835   2.370  28.726  0.00  0.00    +0.110 A 
ATOM     18  C   UNL     1       7.170   1.614  27.602  0.00  0.00    +0.056 A 
BRANCH  17  19
ATOM     19  O   UNL     1       7.801   2.590  29.682  0.00  0.00    -0.507 OA
ATOM     20  H   UNL     1       7.894   3.568  29.568  0.00  0.00    +0.292 HD
ENDBRANCH  17  19
ENDBRANCH   5  12
BRANCH  10  21
ATOM     21  O   UNL     1       7.697  -2.756  21.799  0.00  0.00    -0.506 OA
ATOM     22  H   UNL     1       8.265  -3.533  21.907  0.00  0.00    +0.292 HD
ENDBRANCH  10  21
BRANCH   1  23
ATOM     23  O   UNL     1       3.981  -4.742  24.173  0.00  0.00    -0.461 OA
BRANCH  23  27
ATOM     24  C   UNL     1       1.225  -4.646  25.455  0.00  0.00    +0.041 C 
ATOM     25  C   UNL     1       1.986  -5.722  26.224  0.00  0.00    +0.150 C 
ATOM     26  O   UNL     1       3.383  -5.417  26.386  0.00  0.00    -0.334 OA
ATOM     27  C   UNL     1       4.225  -5.663  25.250  0.00  0.00    +0.339 C 
ATOM     28  C   UNL     1       4.093  -7.121  24.762  0.00  0.00    +0.214 C 
ATOM     29  C   UNL     1       2.634  -7.477  24.471  0.00  0.00    +0.180 C 
ATOM     30  C   UNL     1       1.764  -7.153  25.694  0.00  0.00    +0.174 C 
BRANCH  28  31
ATOM     31  O   UNL     1       4.918  -7.371  23.620  0.00  0.00    -0.383 OA
ATOM     32  H   UNL     1       5.357  -8.230  23.769  0.00  0.00    +0.210 HD
ENDBRANCH  28  31
BRANCH  29  33
ATOM     33  O   UNL     1       2.171  -6.826  23.282  0.00  0.00    -0.386 OA
ATOM     34  H   UNL     1       2.130  -7.473  22.552  0.00  0.00    +0.210 HD
ENDBRANCH  29  33
BRANCH  30  35
ATOM     35  O   UNL     1       2.092  -8.084  26.744  0.00  0.00    -0.387 OA
ATOM     36  H   UNL     1       1.965  -7.637  27.602  0.00  0.00    +0.210 HD
ENDBRANCH  30  35
ENDBRANCH  23  27
ENDBRANCH   1  23
BRANCH   6  37
ATOM     37  O   UNL     1       8.494   1.589  24.412  0.00  0.00    -0.453 OA
BRANCH  37  38
ATOM     38  C   UNL     1       8.247   2.982  24.320  0.00  0.00    +0.339 C 
ATOM     39  O   UNL     1       9.473   3.688  24.141  0.00  0.00    -0.334 OA
ATOM     40  C   UNL     1       9.272   5.107  24.190  0.00  0.00    +0.150 C 
ATOM     41  C   UNL     1      10.638   5.775  24.171  0.00  0.00    +0.041 C 
ATOM     42  C   UNL     1       8.385   5.577  23.016  0.00  0.00    +0.174 C 
ATOM     43  C   UNL     1       7.077   4.758  23.001  0.00  0.00    +0.180 C 
ATOM     44  C   UNL     1       7.384   3.249  23.057  0.00  0.00    +0.214 C 
BRANCH  42  45
ATOM     45  O   UNL     1       8.104   6.979  23.115  0.00  0.00    -0.387 OA
ATOM     46  H   UNL     1       7.793   7.163  24.017  0.00  0.00    +0.210 HD
ENDBRANCH  42  45
BRANCH  43  47
ATOM     47  O   UNL     1       6.284   5.103  21.855  0.00  0.00    -0.386 OA
ATOM     48  H   UNL     1       5.997   6.025  21.956  0.00  0.00    +0.210 HD
ENDBRANCH  43  47
BRANCH  44  49
ATOM     49  O   UNL     1       8.072   2.853  21.851  0.00  0.00    -0.383 OA
ATOM     50  H   UNL     1       8.106   3.647  21.281  0.00  0.00    +0.210 HD
ENDBRANCH  44  49
ENDBRANCH  37  38
ENDBRANCH   6  37
TORSDOF 13
ENDMDL
MODEL 6
REMARK VINA RESULT:      -6.9      2.120      9.787
REMARK  Name = 
REMARK  15 active torsions:
REMARK  status: ('A' for Active; 'I' for Inactive)
REMARK    1  A    between atoms: C_1  and  C_2
REMARK    2  A    between atoms: C_4  and  O_52
REMARK    3  A    between atoms: C_6  and  O_51
REMARK    4  A    between atoms: C_8  and  O_50
REMARK    5  A    between atoms: C_10  and  O_13
REMARK    6  A    between atoms: O_13  and  C_14
REMARK    7  A    between atoms: C_16  and  O_49
REMARK    8  A    between atoms: C_21  and  C_41
REMARK    9  A    between atoms: C_22  and  O_25
REMARK   10  A    between atoms: O_25  and  C_26
REMARK   11  A    between atoms: C_28  and  O_40
REMARK   12  A    between atoms: C_30  and  O_39
REMARK   13  A    between atoms: C_32  and  O_38
REMARK   14  A    between atoms: C_34  and  C_37
REMARK   15  A    between atoms: C_43  and  O_48
REMARK                            x       y       z     vdW  Elec       q    Type
REMARK                         _______ _______ _______ _____ _____    ______ ____
ROOT
ATOM      1  C   UNL     1       8.970   1.543  24.447  0.00  0.00    +0.131 A 
ATOM      2  C   UNL     1       8.130   0.844  25.325  0.00  0.00    +0.093 A 
ATOM      3  C   UNL     1       8.120  -0.560  25.346  0.00  0.00    +0.147 A 
ATOM      4  O   UNL     1       7.291  -1.159  26.249  0.00  0.00    -0.451 OA
ATOM      5  C   UNL     1       7.118  -2.547  26.212  0.00  0.00    +0.181 A 
ATOM      6  C   UNL     1       7.849  -3.386  25.429  0.00  0.00    +0.214 A 
ATOM      7  C   UNL     1       8.926  -2.752  24.605  0.00  0.00    +0.238 A 
ATOM      8  O   UNL     1       9.781  -3.449  24.067  0.00  0.00    -0.283 OA
ATOM      9  C   UNL     1       8.948  -1.282  24.501  0.00  0.00    +0.109 A 
ATOM     10  C   UNL     1       9.780  -0.589  23.617  0.00  0.00    +0.135 A 
ATOM     11  C   UNL     1       9.778   0.810  23.578  0.00  0.00    +0.092 A 
ENDROOT
BRANCH   5  12
ATOM     12  C   UNL     1       6.015  -2.914  27.118  0.00  0.00    +0.024 A 
ATOM     13  C   UNL     1       4.832  -2.161  27.139  0.00  0.00    +0.011 A 
ATOM     14  C   UNL     1       3.726  -2.584  27.896  0.00  0.00    -0.004 A 
ATOM     15  C   UNL     1       3.738  -3.752  28.671  0.00  0.00    -0.066 A 
ATOM     16  O   UNL     1       2.748  -4.145  29.378  0.00  0.00    -0.871 OA
ATOM     17  C   UNL     1       4.956  -4.465  28.613  0.00  0.00    +0.110 A 
ATOM     18  C   UNL     1       6.069  -4.090  27.859  0.00  0.00    +0.056 A 
BRANCH  17  19
ATOM     19  O   UNL     1       5.038  -5.600  29.387  0.00  0.00    -0.507 OA
ATOM     20  H   UNL     1       5.847  -5.995  28.977  0.00  0.00    +0.292 HD
ENDBRANCH  17  19
ENDBRANCH   5  12
BRANCH  10  21
ATOM     21  O   UNL     1      10.611  -1.258  22.764  0.00  0.00    -0.506 OA
ATOM     22  H   UNL     1      10.107  -1.836  22.172  0.00  0.00    +0.292 HD
ENDBRANCH  10  21
BRANCH   1  23
ATOM     23  O   UNL     1       8.925   2.912  24.538  0.00  0.00    -0.461 OA
BRANCH  23  27
ATOM     24  C   UNL     1       6.260   2.942  23.073  0.00  0.00    +0.041 C 
ATOM     25  C   UNL     1       7.178   3.840  22.250  0.00  0.00    +0.150 C 
ATOM     26  O   UNL     1       8.542   3.382  22.226  0.00  0.00    -0.334 OA
ATOM     27  C   UNL     1       9.332   3.674  23.388  0.00  0.00    +0.339 C 
ATOM     28  C   UNL     1       9.326   5.185  23.704  0.00  0.00    +0.214 C 
ATOM     29  C   UNL     1       7.898   5.714  23.845  0.00  0.00    +0.180 C 
ATOM     30  C   UNL     1       7.077   5.338  22.603  0.00  0.00    +0.174 C 
BRANCH  28  31
ATOM     31  O   UNL     1      10.101   5.482  24.869  0.00  0.00    -0.383 OA
ATOM     32  H   UNL     1      11.036   5.502  24.592  0.00  0.00    +0.210 HD
ENDBRANCH  28  31
BRANCH  29  33
ATOM     33  O   UNL     1       7.295   5.255  25.060  0.00  0.00    -0.386 OA
ATOM     34  H   UNL     1       7.576   5.826  25.799  0.00  0.00    +0.210 HD
ENDBRANCH  29  33
BRANCH  30  35
ATOM     35  O   UNL     1       7.568   6.104  21.485  0.00  0.00    -0.387 OA
ATOM     36  H   UNL     1       6.811   6.335  20.915  0.00  0.00    +0.210 HD
ENDBRANCH  30  35
ENDBRANCH  23  27
ENDBRANCH   1  23
BRANCH   6  37
ATOM     37  O   UNL     1       7.800  -4.750  25.263  0.00  0.00    -0.453 OA
BRANCH  37  38
ATOM     38  C   UNL     1       6.724  -5.414  24.623  0.00  0.00    +0.339 C 
ATOM     39  O   UNL     1       5.524  -4.656  24.764  0.00  0.00    -0.334 OA
ATOM     40  C   UNL     1       4.390  -5.371  24.255  0.00  0.00    +0.150 C 
ATOM     41  C   UNL     1       3.141  -4.578  24.603  0.00  0.00    +0.041 C 
ATOM     42  C   UNL     1       4.523  -5.597  22.732  0.00  0.00    +0.174 C 
ATOM     43  C   UNL     1       5.878  -6.271  22.429  0.00  0.00    +0.180 C 
ATOM     44  C   UNL     1       7.028  -5.497  23.103  0.00  0.00    +0.214 C 
BRANCH  42  45
ATOM     45  O   UNL     1       3.439  -6.392  22.235  0.00  0.00    -0.387 OA
ATOM     46  H   UNL     1       3.752  -7.307  22.143  0.00  0.00    +0.210 HD
ENDBRANCH  42  45
BRANCH  43  47
ATOM     47  O   UNL     1       6.070  -6.393  21.011  0.00  0.00    -0.386 OA
ATOM     48  H   UNL     1       5.308  -6.871  20.646  0.00  0.00    +0.210 HD
ENDBRANCH  43  47
BRANCH  44  49
ATOM     49  O   UNL     1       7.137  -4.185  22.511  0.00  0.00    -0.383 OA
ATOM     50  H   UNL     1       6.333  -4.061  21.968  0.00  0.00    +0.210 HD
ENDBRANCH  44  49
ENDBRANCH  37  38
ENDBRANCH   6  37
TORSDOF 13
ENDMDL
MODEL 7
REMARK VINA RESULT:      -6.9      2.614     10.326
REMARK  Name = 
REMARK  15 active torsions:
REMARK  status: ('A' for Active; 'I' for Inactive)
REMARK    1  A    between atoms: C_1  and  C_2
REMARK    2  A    between atoms: C_4  and  O_52
REMARK    3  A    between atoms: C_6  and  O_51
REMARK    4  A    between atoms: C_8  and  O_50
REMARK    5  A    between atoms: C_10  and  O_13
REMARK    6  A    between atoms: O_13  and  C_14
REMARK    7  A    between atoms: C_16  and  O_49
REMARK    8  A    between atoms: C_21  and  C_41
REMARK    9  A    between atoms: C_22  and  O_25
REMARK   10  A    between atoms: O_25  and  C_26
REMARK   11  A    between atoms: C_28  and  O_40
REMARK   12  A    between atoms: C_30  and  O_39
REMARK   13  A    between atoms: C_32  and  O_38
REMARK   14  A    between atoms: C_34  and  C_37
REMARK   15  A    between atoms: C_43  and  O_48
REMARK                            x       y       z     vdW  Elec       q    Type
REMARK                         _______ _______ _______ _____ _____    ______ ____
ROOT
ATOM      1  C   UNL     1       7.092   3.013  25.198  0.00  0.00    +0.131 A 
ATOM      2  C   UNL     1       7.044   1.805  24.488  0.00  0.00    +0.093 A 
ATOM      3  C   UNL     1       6.909   0.580  25.163  0.00  0.00    +0.147 A 
ATOM      4  O   UNL     1       6.845  -0.545  24.394  0.00  0.00    -0.451 OA
ATOM      5  C   UNL     1       6.869  -1.802  25.007  0.00  0.00    +0.181 A 
ATOM      6  C   UNL     1       6.794  -1.996  26.351  0.00  0.00    +0.214 A 
ATOM      7  C   UNL     1       6.626  -0.767  27.190  0.00  0.00    +0.238 A 
ATOM      8  O   UNL     1       6.306  -0.866  28.371  0.00  0.00    -0.283 OA
ATOM      9  C   UNL     1       6.815   0.545  26.546  0.00  0.00    +0.109 A 
ATOM     10  C   UNL     1       6.873   1.746  27.257  0.00  0.00    +0.135 A 
ATOM     11  C   UNL     1       7.028   2.968  26.591  0.00  0.00    +0.092 A 
ENDROOT
BRANCH   5  12
ATOM     12  C   UNL     1       7.024  -2.836  23.969  0.00  0.00    +0.024 A 
ATOM     13  C   UNL     1       7.828  -3.961  24.199  0.00  0.00    +0.011 A 
ATOM     14  C   UNL     1       7.870  -5.016  23.270  0.00  0.00    -0.004 A 
ATOM     15  C   UNL     1       7.136  -5.005  22.076  0.00  0.00    -0.066 A 
ATOM     16  O   UNL     1       7.173  -5.947  21.212  0.00  0.00    -0.871 OA
ATOM     17  C   UNL     1       6.348  -3.846  21.898  0.00  0.00    +0.110 A 
ATOM     18  C   UNL     1       6.264  -2.788  22.804  0.00  0.00    +0.056 A 
BRANCH  17  19
ATOM     19  O   UNL     1       5.637  -3.764  20.722  0.00  0.00    -0.507 OA
ATOM     20  H   UNL     1       6.078  -2.964  20.344  0.00  0.00    +0.292 HD
ENDBRANCH  17  19
ENDBRANCH   5  12
BRANCH  10  21
ATOM     21  O   UNL     1       6.786   1.761  28.620  0.00  0.00    -0.506 OA
ATOM     22  H   UNL     1       5.862   1.814  28.907  0.00  0.00    +0.292 HD
ENDBRANCH  10  21
BRANCH   1  23
ATOM     23  O   UNL     1       7.188   4.151  24.435  0.00  0.00    -0.461 OA
BRANCH  23  27
ATOM     24  C   UNL     1       6.521   7.080  24.909  0.00  0.00    +0.041 C 
ATOM     25  C   UNL     1       5.788   6.707  23.624  0.00  0.00    +0.150 C 
ATOM     26  O   UNL     1       5.288   5.357  23.632  0.00  0.00    -0.334 OA
ATOM     27  C   UNL     1       6.243   4.321  23.364  0.00  0.00    +0.339 C 
ATOM     28  C   UNL     1       6.973   4.567  22.027  0.00  0.00    +0.214 C 
ATOM     29  C   UNL     1       7.619   5.953  21.995  0.00  0.00    +0.180 C 
ATOM     30  C   UNL     1       6.573   7.024  22.335  0.00  0.00    +0.174 C 
BRANCH  28  31
ATOM     31  O   UNL     1       7.939   3.545  21.758  0.00  0.00    -0.383 OA
ATOM     32  H   UNL     1       8.001   2.995  22.562  0.00  0.00    +0.210 HD
ENDBRANCH  28  31
BRANCH  29  33
ATOM     33  O   UNL     1       8.761   6.009  22.858  0.00  0.00    -0.386 OA
ATOM     34  H   UNL     1       9.567   5.819  22.343  0.00  0.00    +0.210 HD
ENDBRANCH  29  33
BRANCH  30  35
ATOM     35  O   UNL     1       5.638   7.108  21.241  0.00  0.00    -0.387 OA
ATOM     36  H   UNL     1       5.124   6.280  21.212  0.00  0.00    +0.210 HD
ENDBRANCH  30  35
ENDBRANCH  23  27
ENDBRANCH   1  23
BRANCH   6  37
ATOM     37  O   UNL     1       6.817  -3.144  27.109  0.00  0.00    -0.453 OA
BRANCH  37  38
ATOM     38  C   UNL     1       5.692  -3.990  27.268  0.00  0.00    +0.339 C 
ATOM     39  O   UNL     1       5.106  -4.274  25.999  0.00  0.00    -0.334 OA
ATOM     40  C   UNL     1       3.881  -5.007  26.140  0.00  0.00    +0.150 C 
ATOM     41  C   UNL     1       3.236  -5.111  24.767  0.00  0.00    +0.041 C 
ATOM     42  C   UNL     1       4.143  -6.398  26.760  0.00  0.00    +0.174 C 
ATOM     43  C   UNL     1       4.931  -6.233  28.077  0.00  0.00    +0.180 C 
ATOM     44  C   UNL     1       6.171  -5.345  27.856  0.00  0.00    +0.214 C 
BRANCH  42  45
ATOM     45  O   UNL     1       2.913  -7.097  26.989  0.00  0.00    -0.387 OA
ATOM     46  H   UNL     1       2.299  -6.872  26.271  0.00  0.00    +0.210 HD
ENDBRANCH  42  45
BRANCH  43  47
ATOM     47  O   UNL     1       5.279  -7.518  28.615  0.00  0.00    -0.386 OA
ATOM     48  H   UNL     1       6.246  -7.562  28.682  0.00  0.00    +0.210 HD
ENDBRANCH  43  47
BRANCH  44  49
ATOM     49  O   UNL     1       7.090  -6.014  26.967  0.00  0.00    -0.383 OA
ATOM     50  H   UNL     1       7.482  -5.318  26.402  0.00  0.00    +0.210 HD
ENDBRANCH  44  49
ENDBRANCH  37  38
ENDBRANCH   6  37
TORSDOF 13
ENDMDL
MODEL 8
REMARK VINA RESULT:      -6.8      1.626      2.645
REMARK  Name = 
REMARK  15 active torsions:
REMARK  status: ('A' for Active; 'I' for Inactive)
REMARK    1  A    between atoms: C_1  and  C_2
REMARK    2  A    between atoms: C_4  and  O_52
REMARK    3  A    between atoms: C_6  and  O_51
REMARK    4  A    between atoms: C_8  and  O_50
REMARK    5  A    between atoms: C_10  and  O_13
REMARK    6  A    between atoms: O_13  and  C_14
REMARK    7  A    between atoms: C_16  and  O_49
REMARK    8  A    between atoms: C_21  and  C_41
REMARK    9  A    between atoms: C_22  and  O_25
REMARK   10  A    between atoms: O_25  and  C_26
REMARK   11  A    between atoms: C_28  and  O_40
REMARK   12  A    between atoms: C_30  and  O_39
REMARK   13  A    between atoms: C_32  and  O_38
REMARK   14  A    between atoms: C_34  and  C_37
REMARK   15  A    between atoms: C_43  and  O_48
REMARK                            x       y       z     vdW  Elec       q    Type
REMARK                         _______ _______ _______ _____ _____    ______ ____
ROOT
ATOM      1  C   UNL     1       7.372  -2.070  23.361  0.00  0.00    +0.131 A 
ATOM      2  C   UNL     1       6.430  -1.033  23.317  0.00  0.00    +0.093 A 
ATOM      3  C   UNL     1       6.825   0.286  23.038  0.00  0.00    +0.147 A 
ATOM      4  O   UNL     1       5.840   1.229  22.989  0.00  0.00    -0.451 OA
ATOM      5  C   UNL     1       6.183   2.580  22.874  0.00  0.00    +0.181 A 
ATOM      6  C   UNL     1       7.447   3.028  22.644  0.00  0.00    +0.214 A 
ATOM      7  C   UNL     1       8.499   1.979  22.462  0.00  0.00    +0.238 A 
ATOM      8  O   UNL     1       9.600   2.282  22.014  0.00  0.00    -0.283 OA
ATOM      9  C   UNL     1       8.156   0.585  22.796  0.00  0.00    +0.109 A 
ATOM     10  C   UNL     1       9.100  -0.444  22.849  0.00  0.00    +0.135 A 
ATOM     11  C   UNL     1       8.714  -1.757  23.147  0.00  0.00    +0.092 A 
ENDROOT
BRANCH   5  12
ATOM     12  C   UNL     1       4.974   3.397  23.076  0.00  0.00    +0.024 A 
ATOM     13  C   UNL     1       4.444   3.578  24.361  0.00  0.00    +0.011 A 
ATOM     14  C   UNL     1       3.376   4.466  24.580  0.00  0.00    -0.004 A 
ATOM     15  C   UNL     1       2.779   5.203  23.548  0.00  0.00    -0.066 A 
ATOM     16  O   UNL     1       1.797   6.003  23.724  0.00  0.00    -0.871 OA
ATOM     17  C   UNL     1       3.352   4.976  22.277  0.00  0.00    +0.110 A 
ATOM     18  C   UNL     1       4.424   4.120  22.022  0.00  0.00    +0.056 A 
BRANCH  17  19
ATOM     19  O   UNL     1       2.777   5.644  21.219  0.00  0.00    -0.507 OA
ATOM     20  H   UNL     1       3.198   6.527  21.362  0.00  0.00    +0.292 HD
ENDBRANCH  17  19
ENDBRANCH   5  12
BRANCH  10  21
ATOM     21  O   UNL     1      10.423  -0.197  22.619  0.00  0.00    -0.506 OA
ATOM     22  H   UNL     1      10.969  -0.946  22.901  0.00  0.00    +0.292 HD
ENDBRANCH  10  21
BRANCH   1  23
ATOM     23  O   UNL     1       6.870  -3.325  23.604  0.00  0.00    -0.461 OA
BRANCH  23  27
ATOM     24  C   UNL     1       7.207  -5.942  22.093  0.00  0.00    +0.041 C 
ATOM     25  C   UNL     1       5.699  -5.736  22.202  0.00  0.00    +0.150 C 
ATOM     26  O   UNL     1       5.312  -4.353  22.112  0.00  0.00    -0.334 OA
ATOM     27  C   UNL     1       5.485  -3.564  23.298  0.00  0.00    +0.339 C 
ATOM     28  C   UNL     1       4.761  -4.199  24.503  0.00  0.00    +0.214 C 
ATOM     29  C   UNL     1       5.209  -5.646  24.717  0.00  0.00    +0.180 C 
ATOM     30  C   UNL     1       5.052  -6.440  23.413  0.00  0.00    +0.174 C 
BRANCH  28  31
ATOM     31  O   UNL     1       4.941  -3.426  25.694  0.00  0.00    -0.383 OA
ATOM     32  H   UNL     1       4.839  -4.036  26.448  0.00  0.00    +0.210 HD
ENDBRANCH  28  31
BRANCH  29  33
ATOM     33  O   UNL     1       6.543  -5.702  25.235  0.00  0.00    -0.386 OA
ATOM     34  H   UNL     1       6.960  -6.543  24.970  0.00  0.00    +0.210 HD
ENDBRANCH  29  33
BRANCH  30  35
ATOM     35  O   UNL     1       3.644  -6.601  23.146  0.00  0.00    -0.387 OA
ATOM     36  H   UNL     1       3.210  -6.906  23.965  0.00  0.00    +0.210 HD
ENDBRANCH  30  35
ENDBRANCH  23  27
ENDBRANCH   1  23
BRANCH   6  37
ATOM     37  O   UNL     1       7.953   4.301  22.520  0.00  0.00    -0.453 OA
BRANCH  37  38
ATOM     38  C   UNL     1       8.092   5.190  23.615  0.00  0.00    +0.339 C 
ATOM     39  O   UNL     1       7.752   4.528  24.832  0.00  0.00    -0.334 OA
ATOM     40  C   UNL     1       7.742   5.440  25.939  0.00  0.00    +0.150 C 
ATOM     41  C   UNL     1       7.201   4.700  27.151  0.00  0.00    +0.041 C 
ATOM     42  C   UNL     1       9.156   6.007  26.194  0.00  0.00    +0.174 C 
ATOM     43  C   UNL     1       9.711   6.612  24.887  0.00  0.00    +0.180 C 
ATOM     44  C   UNL     1       9.584   5.603  23.729  0.00  0.00    +0.214 C 
BRANCH  42  45
ATOM     45  O   UNL     1       9.134   6.989  27.238  0.00  0.00    -0.387 OA
ATOM     46  H   UNL     1       9.506   6.587  28.040  0.00  0.00    +0.210 HD
ENDBRANCH  42  45
BRANCH  43  47
ATOM     47  O   UNL     1      11.066   7.049  25.074  0.00  0.00    -0.386 OA
ATOM     48  H   UNL     1      11.383   7.410  24.231  0.00  0.00    +0.210 HD
ENDBRANCH  43  47
BRANCH  44  49
ATOM     49  O   UNL     1      10.433   4.465  23.988  0.00  0.00    -0.383 OA
ATOM     50  H   UNL     1      10.375   4.292  24.949  0.00  0.00    +0.210 HD
ENDBRANCH  44  49
ENDBRANCH  37  38
ENDBRANCH   6  37
TORSDOF 13
ENDMDL
MODEL 9
REMARK VINA RESULT:      -6.8      2.572     10.509
REMARK  Name = 
REMARK  15 active torsions:
REMARK  status: ('A' for Active; 'I' for Inactive)
REMARK    1  A    between atoms: C_1  and  C_2
REMARK    2  A    between atoms: C_4  and  O_52
REMARK    3  A    between atoms: C_6  and  O_51
REMARK    4  A    between atoms: C_8  and  O_50
REMARK    5  A    between atoms: C_10  and  O_13
REMARK    6  A    between atoms: O_13  and  C_14
REMARK    7  A    between atoms: C_16  and  O_49
REMARK    8  A    between atoms: C_21  and  C_41
REMARK    9  A    between atoms: C_22  and  O_25
REMARK   10  A    between atoms: O_25  and  C_26
REMARK   11  A    between atoms: C_28  and  O_40
REMARK   12  A    between atoms: C_30  and  O_39
REMARK   13  A    between atoms: C_32  and  O_38
REMARK   14  A    between atoms: C_34  and  C_37
REMARK   15  A    between atoms: C_43  and  O_48
REMARK                            x       y       z     vdW  Elec       q    Type
REMARK                         _______ _______ _______ _____ _____    ______ ____
ROOT
ATOM      1  C   UNL     1       6.177   2.678  25.438  0.00  0.00    +0.131 A 
ATOM      2  C   UNL     1       6.274   1.470  24.734  0.00  0.00    +0.093 A 
ATOM      3  C   UNL     1       5.628   0.313  25.199  0.00  0.00    +0.147 A 
ATOM      4  O   UNL     1       5.753  -0.813  24.438  0.00  0.00    -0.451 OA
ATOM      5  C   UNL     1       5.268  -2.032  24.924  0.00  0.00    +0.181 A 
ATOM      6  C   UNL     1       4.524  -2.160  26.056  0.00  0.00    +0.214 A 
ATOM      7  C   UNL     1       4.184  -0.889  26.771  0.00  0.00    +0.238 A 
ATOM      8  O   UNL     1       3.324  -0.887  27.647  0.00  0.00    -0.283 OA
ATOM      9  C   UNL     1       4.876   0.346  26.363  0.00  0.00    +0.109 A 
ATOM     10  C   UNL     1       4.786   1.546  27.074  0.00  0.00    +0.135 A 
ATOM     11  C   UNL     1       5.445   2.697  26.626  0.00  0.00    +0.092 A 
ENDROOT
BRANCH   5  12
ATOM     12  C   UNL     1       5.727  -3.115  24.036  0.00  0.00    +0.024 A 
ATOM     13  C   UNL     1       7.096  -3.331  23.826  0.00  0.00    +0.011 A 
ATOM     14  C   UNL     1       7.544  -4.445  23.094  0.00  0.00    -0.004 A 
ATOM     15  C   UNL     1       6.669  -5.383  22.530  0.00  0.00    -0.066 A 
ATOM     16  O   UNL     1       7.056  -6.393  21.848  0.00  0.00    -0.871 OA
ATOM     17  C   UNL     1       5.304  -5.111  22.771  0.00  0.00    +0.110 A 
ATOM     18  C   UNL     1       4.821  -4.030  23.509  0.00  0.00    +0.056 A 
BRANCH  17  19
ATOM     19  O   UNL     1       4.398  -5.979  22.205  0.00  0.00    -0.507 OA
ATOM     20  H   UNL     1       3.714  -5.957  22.919  0.00  0.00    +0.292 HD
ENDBRANCH  17  19
ENDBRANCH   5  12
BRANCH  10  21
ATOM     21  O   UNL     1       4.059   1.626  28.227  0.00  0.00    -0.506 OA
ATOM     22  H   UNL     1       3.375   0.939  28.253  0.00  0.00    +0.292 HD
ENDBRANCH  10  21
BRANCH   1  23
ATOM     23  O   UNL     1       6.817   3.753  24.873  0.00  0.00    -0.461 OA
BRANCH  23  27
ATOM     24  C   UNL     1       5.217   6.229  24.127  0.00  0.00    +0.041 C 
ATOM     25  C   UNL     1       5.892   5.785  22.833  0.00  0.00    +0.150 C 
ATOM     26  O   UNL     1       5.993   4.355  22.712  0.00  0.00    -0.334 OA
ATOM     27  C   UNL     1       7.048   3.725  23.453  0.00  0.00    +0.339 C 
ATOM     28  C   UNL     1       8.419   4.346  23.112  0.00  0.00    +0.214 C 
ATOM     29  C   UNL     1       8.408   5.861  23.320  0.00  0.00    +0.180 C 
ATOM     30  C   UNL     1       7.236   6.486  22.549  0.00  0.00    +0.174 C 
BRANCH  28  31
ATOM     31  O   UNL     1       9.475   3.734  23.858  0.00  0.00    -0.383 OA
ATOM     32  H   UNL     1      10.300   4.195  23.615  0.00  0.00    +0.210 HD
ENDBRANCH  28  31
BRANCH  29  33
ATOM     33  O   UNL     1       8.383   6.190  24.714  0.00  0.00    -0.386 OA
ATOM     34  H   UNL     1       9.054   5.661  25.185  0.00  0.00    +0.210 HD
ENDBRANCH  29  33
BRANCH  30  35
ATOM     35  O   UNL     1       7.515   6.383  21.138  0.00  0.00    -0.387 OA
ATOM     36  H   UNL     1       7.840   5.482  20.954  0.00  0.00    +0.210 HD
ENDBRANCH  30  35
ENDBRANCH  23  27
ENDBRANCH   1  23
BRANCH   6  37
ATOM     37  O   UNL     1       3.988  -3.265  26.674  0.00  0.00    -0.453 OA
BRANCH  37  38
ATOM     38  C   UNL     1       4.608  -3.916  27.769  0.00  0.00    +0.339 C 
ATOM     39  O   UNL     1       3.679  -4.785  28.415  0.00  0.00    -0.334 OA
ATOM     40  C   UNL     1       4.233  -5.347  29.613  0.00  0.00    +0.150 C 
ATOM     41  C   UNL     1       3.130  -6.109  30.328  0.00  0.00    +0.041 C 
ATOM     42  C   UNL     1       5.441  -6.254  29.285  0.00  0.00    +0.174 C 
ATOM     43  C   UNL     1       6.458  -5.466  28.432  0.00  0.00    +0.180 C 
ATOM     44  C   UNL     1       5.757  -4.809  27.227  0.00  0.00    +0.214 C 
BRANCH  42  45
ATOM     45  O   UNL     1       6.055  -6.741  30.485  0.00  0.00    -0.387 OA
ATOM     46  H   UNL     1       6.696  -6.077  30.788  0.00  0.00    +0.210 HD
ENDBRANCH  42  45
BRANCH  43  47
ATOM     47  O   UNL     1       7.537  -6.321  28.026  0.00  0.00    -0.386 OA
ATOM     48  H   UNL     1       8.136  -5.801  27.467  0.00  0.00    +0.210 HD
ENDBRANCH  43  47
BRANCH  44  49
ATOM     49  O   UNL     1       5.260  -5.835  26.341  0.00  0.00    -0.383 OA
ATOM     50  H   UNL     1       4.479  -5.455  25.891  0.00  0.00    +0.210 HD
ENDBRANCH  44  49
ENDBRANCH  37  38
ENDBRANCH   6  37
TORSDOF 13
ENDMDL
