MODEL 1
REMARK VINA RESULT:      -8.1      0.000      0.000
REMARK  Name = 
REMARK  11 active torsions:
REMARK  status: ('A' for Active; 'I' for Inactive)
REMARK    1  A    between atoms: C_1  and  C_2
REMARK    2  A    between atoms: C_3  and  O_32
REMARK    3  A    between atoms: C_4  and  O_31
REMARK    4  A    between atoms: C_5  and  O_30
REMARK    5  A    between atoms: C_6  and  O_8
REMARK    6  A    between atoms: O_8  and  C_9
REMARK    7  A    between atoms: C_10  and  C_22
REMARK    8  A    between atoms: C_14  and  O_21
REMARK    9  A    between atoms: C_16  and  O_20
REMARK   10  A    between atoms: C_24  and  O_29
REMARK   11  A    between atoms: C_25  and  O_28
REMARK                            x       y       z     vdW  Elec       q    Type
REMARK                         _______ _______ _______ _____ _____    ______ ____
ROOT
ATOM      1  C   UNL     1       8.120  -2.670  25.065  0.00  0.00    +0.214 A 
ATOM      2  C   UNL     1       8.915  -1.439  25.393  0.00  0.00    +0.238 A 
ATOM      3  O   UNL     1       9.186  -1.129  26.548  0.00  0.00    -0.283 OA
ATOM      4  C   UNL     1       9.226  -0.514  24.301  0.00  0.00    +0.109 A 
ATOM      5  C   UNL     1       8.462  -0.618  23.146  0.00  0.00    +0.147 A 
ATOM      6  C   UNL     1       8.568   0.354  22.149  0.00  0.00    +0.092 A 
ATOM      7  C   UNL     1       9.454   1.417  22.319  0.00  0.00    +0.124 A 
ATOM      8  C   UNL     1      10.260   1.505  23.448  0.00  0.00    +0.091 A 
ATOM      9  O   UNL     1       7.561  -1.632  22.946  0.00  0.00    -0.451 OA
ATOM     10  C   UNL     1      10.152   0.532  24.436  0.00  0.00    +0.135 A 
ATOM     11  C   UNL     1       7.463  -2.667  23.879  0.00  0.00    +0.181 A 
ENDROOT
BRANCH  11  12
ATOM     12  C   UNL     1       6.481  -3.719  23.448  0.00  0.00    +0.025 A 
ATOM     13  C   UNL     1       5.099  -3.494  23.646  0.00  0.00    +0.015 A 
ATOM     14  C   UNL     1       4.135  -4.440  23.270  0.00  0.00    +0.050 A 
ATOM     15  C   UNL     1       4.543  -5.629  22.697  0.00  0.00    +0.158 A 
ATOM     16  C   UNL     1       5.895  -5.881  22.489  0.00  0.00    +0.159 A 
ATOM     17  C   UNL     1       6.857  -4.934  22.843  0.00  0.00    +0.060 A 
BRANCH  15  18
ATOM     18  O   UNL     1       3.614  -6.554  22.335  0.00  0.00    -0.503 OA
ATOM     19  H   UNL     1       3.924  -6.897  21.473  0.00  0.00    +0.292 HD
ENDBRANCH  15  18
BRANCH  16  20
ATOM     20  O   UNL     1       6.234  -7.084  21.932  0.00  0.00    -0.503 OA
ATOM     21  H   UNL     1       7.138  -7.012  21.578  0.00  0.00    +0.292 HD
ENDBRANCH  16  20
ENDBRANCH  11  12
BRANCH   7  22
ATOM     22  O   UNL     1       9.567   2.415  21.398  0.00  0.00    -0.507 OA
ATOM     23  H   UNL     1      10.507   2.606  21.249  0.00  0.00    +0.292 HD
ENDBRANCH   7  22
BRANCH  10  24
ATOM     24  O   UNL     1      10.966   0.612  25.533  0.00  0.00    -0.506 OA
ATOM     25  H   UNL     1      11.424   1.467  25.547  0.00  0.00    +0.292 HD
ENDBRANCH  10  24
BRANCH   1  26
ATOM     26  O   UNL     1       7.965  -3.707  25.981  0.00  0.00    -0.453 OA
BRANCH  26  30
ATOM     27  C   UNL     1       3.857  -3.011  27.086  0.00  0.00    +0.041 C 
ATOM     28  C   UNL     1       4.915  -3.592  28.030  0.00  0.00    +0.150 C 
ATOM     29  O   UNL     1       6.260  -3.337  27.588  0.00  0.00    -0.334 OA
ATOM     30  C   UNL     1       6.638  -4.055  26.403  0.00  0.00    +0.339 C 
ATOM     31  C   UNL     1       6.614  -5.561  26.729  0.00  0.00    +0.214 C 
ATOM     32  C   UNL     1       5.183  -5.944  27.134  0.00  0.00    +0.180 C 
ATOM     33  C   UNL     1       4.706  -5.088  28.322  0.00  0.00    +0.174 C 
BRANCH  31  34
ATOM     34  O   UNL     1       7.506  -5.883  27.822  0.00  0.00    -0.383 OA
ATOM     35  H   UNL     1       7.052  -6.574  28.346  0.00  0.00    +0.210 HD
ENDBRANCH  31  34
BRANCH  32  36
ATOM     36  O   UNL     1       5.120  -7.329  27.483  0.00  0.00    -0.386 OA
ATOM     37  H   UNL     1       5.683  -7.797  26.836  0.00  0.00    +0.210 HD
ENDBRANCH  32  36
BRANCH  33  38
ATOM     38  O   UNL     1       3.342  -5.349  28.663  0.00  0.00    -0.387 OA
ATOM     39  H   UNL     1       2.786  -5.106  27.901  0.00  0.00    +0.210 HD
ENDBRANCH  33  38
ENDBRANCH  26  30
ENDBRANCH   1  26
TORSDOF 10
ENDMDL
MODEL 2
REMARK VINA RESULT:      -7.3      1.936      4.048
REMARK  Name = 
REMARK  11 active torsions:
REMARK  status: ('A' for Active; 'I' for Inactive)
REMARK    1  A    between atoms: C_1  and  C_2
REMARK    2  A    between atoms: C_3  and  O_32
REMARK    3  A    between atoms: C_4  and  O_31
REMARK    4  A    between atoms: C_5  and  O_30
REMARK    5  A    between atoms: C_6  and  O_8
REMARK    6  A    between atoms: O_8  and  C_9
REMARK    7  A    between atoms: C_10  and  C_22
REMARK    8  A    between atoms: C_14  and  O_21
REMARK    9  A    between atoms: C_16  and  O_20
REMARK   10  A    between atoms: C_24  and  O_29
REMARK   11  A    between atoms: C_25  and  O_28
REMARK                            x       y       z     vdW  Elec       q    Type
REMARK                         _______ _______ _______ _____ _____    ______ ____
ROOT
ATOM      1  C   UNL     1       7.463  -2.612  24.867  0.00  0.00    +0.214 A 
ATOM      2  C   UNL     1       8.667  -2.303  24.024  0.00  0.00    +0.238 A 
ATOM      3  O   UNL     1       9.686  -2.984  24.074  0.00  0.00    -0.283 OA
ATOM      4  C   UNL     1       8.662  -1.060  23.251  0.00  0.00    +0.109 A 
ATOM      5  C   UNL     1       7.753  -0.082  23.632  0.00  0.00    +0.147 A 
ATOM      6  C   UNL     1       7.827   1.196  23.073  0.00  0.00    +0.092 A 
ATOM      7  C   UNL     1       8.810   1.473  22.124  0.00  0.00    +0.124 A 
ATOM      8  C   UNL     1       9.693   0.488  21.698  0.00  0.00    +0.091 A 
ATOM      9  O   UNL     1       6.786  -0.301  24.578  0.00  0.00    -0.451 OA
ATOM     10  C   UNL     1       9.613  -0.784  22.256  0.00  0.00    +0.135 A 
ATOM     11  C   UNL     1       6.622  -1.578  25.120  0.00  0.00    +0.181 A 
ENDROOT
BRANCH  11  12
ATOM     12  C   UNL     1       5.467  -1.637  26.078  0.00  0.00    +0.025 A 
ATOM     13  C   UNL     1       5.630  -1.129  27.388  0.00  0.00    +0.015 A 
ATOM     14  C   UNL     1       4.591  -1.160  28.328  0.00  0.00    +0.050 A 
ATOM     15  C   UNL     1       3.374  -1.710  27.971  0.00  0.00    +0.158 A 
ATOM     16  C   UNL     1       3.181  -2.218  26.692  0.00  0.00    +0.159 A 
ATOM     17  C   UNL     1       4.206  -2.171  25.745  0.00  0.00    +0.060 A 
BRANCH  15  18
ATOM     18  O   UNL     1       2.362  -1.749  28.880  0.00  0.00    -0.503 OA
ATOM     19  H   UNL     1       2.685  -2.342  29.588  0.00  0.00    +0.292 HD
ENDBRANCH  15  18
BRANCH  16  20
ATOM     20  O   UNL     1       1.959  -2.763  26.407  0.00  0.00    -0.503 OA
ATOM     21  H   UNL     1       1.731  -3.389  27.118  0.00  0.00    +0.292 HD
ENDBRANCH  16  20
ENDBRANCH  11  12
BRANCH   7  22
ATOM     22  O   UNL     1       8.955   2.713  21.576  0.00  0.00    -0.507 OA
ATOM     23  H   UNL     1       9.349   2.627  20.693  0.00  0.00    +0.292 HD
ENDBRANCH   7  22
BRANCH  10  24
ATOM     24  O   UNL     1      10.470  -1.754  21.815  0.00  0.00    -0.506 OA
ATOM     25  H   UNL     1      10.162  -2.112  20.967  0.00  0.00    +0.292 HD
ENDBRANCH  10  24
BRANCH   1  26
ATOM     26  O   UNL     1       7.282  -3.859  25.458  0.00  0.00    -0.453 OA
BRANCH  26  30
ATOM     27  C   UNL     1       3.601  -5.988  26.168  0.00  0.00    +0.041 C 
ATOM     28  C   UNL     1       4.868  -6.630  25.591  0.00  0.00    +0.150 C 
ATOM     29  O   UNL     1       6.052  -5.851  25.841  0.00  0.00    -0.334 OA
ATOM     30  C   UNL     1       6.109  -4.614  25.115  0.00  0.00    +0.339 C 
ATOM     31  C   UNL     1       6.172  -4.945  23.611  0.00  0.00    +0.214 C 
ATOM     32  C   UNL     1       4.895  -5.711  23.233  0.00  0.00    +0.180 C 
ATOM     33  C   UNL     1       4.743  -6.977  24.097  0.00  0.00    +0.174 C 
BRANCH  31  34
ATOM     34  O   UNL     1       7.317  -5.772  23.295  0.00  0.00    -0.383 OA
ATOM     35  H   UNL     1       6.974  -6.517  22.762  0.00  0.00    +0.210 HD
ENDBRANCH  31  34
BRANCH  32  36
ATOM     36  O   UNL     1       4.925  -6.074  21.850  0.00  0.00    -0.386 OA
ATOM     37  H   UNL     1       5.031  -5.239  21.354  0.00  0.00    +0.210 HD
ENDBRANCH  32  36
BRANCH  33  38
ATOM     38  O   UNL     1       3.514  -7.662  23.841  0.00  0.00    -0.387 OA
ATOM     39  H   UNL     1       3.424  -7.775  22.877  0.00  0.00    +0.210 HD
ENDBRANCH  33  38
ENDBRANCH  26  30
ENDBRANCH   1  26
TORSDOF 10
ENDMDL
MODEL 3
REMARK VINA RESULT:      -7.2      2.419      6.609
REMARK  Name = 
REMARK  11 active torsions:
REMARK  status: ('A' for Active; 'I' for Inactive)
REMARK    1  A    between atoms: C_1  and  C_2
REMARK    2  A    between atoms: C_3  and  O_32
REMARK    3  A    between atoms: C_4  and  O_31
REMARK    4  A    between atoms: C_5  and  O_30
REMARK    5  A    between atoms: C_6  and  O_8
REMARK    6  A    between atoms: O_8  and  C_9
REMARK    7  A    between atoms: C_10  and  C_22
REMARK    8  A    between atoms: C_14  and  O_21
REMARK    9  A    between atoms: C_16  and  O_20
REMARK   10  A    between atoms: C_24  and  O_29
REMARK   11  A    between atoms: C_25  and  O_28
REMARK                            x       y       z     vdW  Elec       q    Type
REMARK                         _______ _______ _______ _____ _____    ______ ____
ROOT
ATOM      1  C   UNL     1       7.855  -2.089  25.300  0.00  0.00    +0.214 A 
ATOM      2  C   UNL     1       7.309  -3.478  25.456  0.00  0.00    +0.238 A 
ATOM      3  O   UNL     1       7.412  -4.103  26.506  0.00  0.00    -0.283 OA
ATOM      4  C   UNL     1       6.786  -4.147  24.263  0.00  0.00    +0.109 A 
ATOM      5  C   UNL     1       7.173  -3.636  23.031  0.00  0.00    +0.147 A 
ATOM      6  C   UNL     1       6.877  -4.338  21.860  0.00  0.00    +0.092 A 
ATOM      7  C   UNL     1       6.183  -5.544  21.941  0.00  0.00    +0.124 A 
ATOM      8  C   UNL     1       5.748  -6.040  23.163  0.00  0.00    +0.091 A 
ATOM      9  O   UNL     1       7.877  -2.467  22.905  0.00  0.00    -0.451 OA
ATOM     10  C   UNL     1       6.042  -5.335  24.326  0.00  0.00    +0.135 A 
ATOM     11  C   UNL     1       8.140  -1.690  24.035  0.00  0.00    +0.181 A 
ENDROOT
BRANCH  11  12
ATOM     12  C   UNL     1       8.852  -0.414  23.686  0.00  0.00    +0.025 A 
ATOM     13  C   UNL     1      10.033  -0.070  24.384  0.00  0.00    +0.015 A 
ATOM     14  C   UNL     1      10.739   1.108  24.108  0.00  0.00    +0.050 A 
ATOM     15  C   UNL     1      10.267   1.965  23.131  0.00  0.00    +0.158 A 
ATOM     16  C   UNL     1       9.108   1.656  22.427  0.00  0.00    +0.159 A 
ATOM     17  C   UNL     1       8.413   0.474  22.685  0.00  0.00    +0.060 A 
BRANCH  15  18
ATOM     18  O   UNL     1      10.943   3.114  22.861  0.00  0.00    -0.503 OA
ATOM     19  H   UNL     1      11.060   3.546  23.731  0.00  0.00    +0.292 HD
ENDBRANCH  15  18
BRANCH  16  20
ATOM     20  O   UNL     1       8.685   2.554  21.485  0.00  0.00    -0.503 OA
ATOM     21  H   UNL     1       8.680   3.440  21.888  0.00  0.00    +0.292 HD
ENDBRANCH  16  20
ENDBRANCH  11  12
BRANCH   7  22
ATOM     22  O   UNL     1       5.905  -6.291  20.834  0.00  0.00    -0.507 OA
ATOM     23  H   UNL     1       5.317  -7.023  21.084  0.00  0.00    +0.292 HD
ENDBRANCH   7  22
BRANCH  10  24
ATOM     24  O   UNL     1       5.589  -5.817  25.523  0.00  0.00    -0.506 OA
ATOM     25  H   UNL     1       6.037  -6.651  25.738  0.00  0.00    +0.292 HD
ENDBRANCH  10  24
BRANCH   1  26
ATOM     26  O   UNL     1       8.167  -1.296  26.401  0.00  0.00    -0.453 OA
BRANCH  26  30
ATOM     27  C   UNL     1       4.161  -0.820  27.920  0.00  0.00    +0.041 C 
ATOM     28  C   UNL     1       4.822   0.138  26.923  0.00  0.00    +0.150 C 
ATOM     29  O   UNL     1       5.958  -0.443  26.259  0.00  0.00    -0.334 OA
ATOM     30  C   UNL     1       7.094  -0.657  27.110  0.00  0.00    +0.339 C 
ATOM     31  C   UNL     1       7.591   0.718  27.598  0.00  0.00    +0.214 C 
ATOM     32  C   UNL     1       6.460   1.382  28.398  0.00  0.00    +0.180 C 
ATOM     33  C   UNL     1       5.184   1.499  27.543  0.00  0.00    +0.174 C 
BRANCH  31  34
ATOM     34  O   UNL     1       7.943   1.581  26.491  0.00  0.00    -0.383 OA
ATOM     35  H   UNL     1       8.118   0.988  25.732  0.00  0.00    +0.210 HD
ENDBRANCH  31  34
BRANCH  32  36
ATOM     36  O   UNL     1       6.862   2.681  28.841  0.00  0.00    -0.386 OA
ATOM     37  H   UNL     1       6.956   3.225  28.035  0.00  0.00    +0.210 HD
ENDBRANCH  32  36
BRANCH  33  38
ATOM     38  O   UNL     1       4.081   2.023  28.287  0.00  0.00    -0.387 OA
ATOM     39  H   UNL     1       4.329   2.905  28.620  0.00  0.00    +0.210 HD
ENDBRANCH  33  38
ENDBRANCH  26  30
ENDBRANCH   1  26
TORSDOF 10
ENDMDL
MODEL 4
REMARK VINA RESULT:      -7.1      2.381      7.657
REMARK  Name = 
REMARK  11 active torsions:
REMARK  status: ('A' for Active; 'I' for Inactive)
REMARK    1  A    between atoms: C_1  and  C_2
REMARK    2  A    between atoms: C_3  and  O_32
REMARK    3  A    between atoms: C_4  and  O_31
REMARK    4  A    between atoms: C_5  and  O_30
REMARK    5  A    between atoms: C_6  and  O_8
REMARK    6  A    between atoms: O_8  and  C_9
REMARK    7  A    between atoms: C_10  and  C_22
REMARK    8  A    between atoms: C_14  and  O_21
REMARK    9  A    between atoms: C_16  and  O_20
REMARK   10  A    between atoms: C_24  and  O_29
REMARK   11  A    between atoms: C_25  and  O_28
REMARK                            x       y       z     vdW  Elec       q    Type
REMARK                         _______ _______ _______ _____ _____    ______ ____
ROOT
ATOM      1  C   UNL     1       7.714  -2.075  24.290  0.00  0.00    +0.214 A 
ATOM      2  C   UNL     1       7.574  -3.070  23.174  0.00  0.00    +0.238 A 
ATOM      3  O   UNL     1       8.164  -2.936  22.107  0.00  0.00    -0.283 OA
ATOM      4  C   UNL     1       6.577  -4.132  23.323  0.00  0.00    +0.109 A 
ATOM      5  C   UNL     1       5.582  -3.937  24.272  0.00  0.00    +0.147 A 
ATOM      6  C   UNL     1       4.493  -4.808  24.330  0.00  0.00    +0.092 A 
ATOM      7  C   UNL     1       4.422  -5.878  23.439  0.00  0.00    +0.124 A 
ATOM      8  C   UNL     1       5.436  -6.112  22.518  0.00  0.00    +0.091 A 
ATOM      9  O   UNL     1       5.597  -2.885  25.152  0.00  0.00    -0.451 OA
ATOM     10  C   UNL     1       6.521  -5.242  22.467  0.00  0.00    +0.135 A 
ATOM     11  C   UNL     1       6.695  -2.023  25.184  0.00  0.00    +0.181 A 
ENDROOT
BRANCH  11  12
ATOM     12  C   UNL     1       6.562  -0.986  26.262  0.00  0.00    +0.025 A 
ATOM     13  C   UNL     1       5.356  -0.256  26.372  0.00  0.00    +0.015 A 
ATOM     14  C   UNL     1       5.174   0.728  27.354  0.00  0.00    +0.050 A 
ATOM     15  C   UNL     1       6.203   1.000  28.236  0.00  0.00    +0.158 A 
ATOM     16  C   UNL     1       7.401   0.301  28.154  0.00  0.00    +0.159 A 
ATOM     17  C   UNL     1       7.580  -0.694  27.191  0.00  0.00    +0.060 A 
BRANCH  15  18
ATOM     18  O   UNL     1       6.035   1.958  29.187  0.00  0.00    -0.503 OA
ATOM     19  H   UNL     1       6.398   2.774  28.788  0.00  0.00    +0.292 HD
ENDBRANCH  15  18
BRANCH  16  20
ATOM     20  O   UNL     1       8.385   0.630  29.046  0.00  0.00    -0.503 OA
ATOM     21  H   UNL     1       9.126   0.009  28.926  0.00  0.00    +0.292 HD
ENDBRANCH  16  20
ENDBRANCH  11  12
BRANCH   7  22
ATOM     22  O   UNL     1       3.362  -6.735  23.423  0.00  0.00    -0.507 OA
ATOM     23  H   UNL     1       2.795  -6.554  24.190  0.00  0.00    +0.292 HD
ENDBRANCH   7  22
BRANCH  10  24
ATOM     24  O   UNL     1       7.527  -5.493  21.575  0.00  0.00    -0.506 OA
ATOM     25  H   UNL     1       8.372  -5.171  21.926  0.00  0.00    +0.292 HD
ENDBRANCH  10  24
BRANCH   1  26
ATOM     26  O   UNL     1       8.772  -1.172  24.338  0.00  0.00    -0.453 OA
BRANCH  26  30
ATOM     27  C   UNL     1       6.638   2.558  23.990  0.00  0.00    +0.041 C 
ATOM     28  C   UNL     1       6.962   1.639  22.807  0.00  0.00    +0.150 C 
ATOM     29  O   UNL     1       7.287   0.297  23.214  0.00  0.00    -0.334 OA
ATOM     30  C   UNL     1       8.539   0.178  23.906  0.00  0.00    +0.339 C 
ATOM     31  C   UNL     1       9.665   0.571  22.929  0.00  0.00    +0.214 C 
ATOM     32  C   UNL     1       9.444   2.030  22.502  0.00  0.00    +0.180 C 
ATOM     33  C   UNL     1       8.048   2.210  21.878  0.00  0.00    +0.174 C 
BRANCH  31  34
ATOM     34  O   UNL     1       9.658  -0.263  21.746  0.00  0.00    -0.383 OA
ATOM     35  H   UNL     1       8.805  -0.088  21.297  0.00  0.00    +0.210 HD
ENDBRANCH  31  34
BRANCH  32  36
ATOM     36  O   UNL     1      10.446   2.429  21.563  0.00  0.00    -0.386 OA
ATOM     37  H   UNL     1      10.825   3.261  21.910  0.00  0.00    +0.210 HD
ENDBRANCH  32  36
BRANCH  33  38
ATOM     38  O   UNL     1       7.770   3.576  21.560  0.00  0.00    -0.387 OA
ATOM     39  H   UNL     1       7.010   3.865  22.096  0.00  0.00    +0.210 HD
ENDBRANCH  33  38
ENDBRANCH  26  30
ENDBRANCH   1  26
TORSDOF 10
ENDMDL
MODEL 5
REMARK VINA RESULT:      -7.0      3.637      5.910
REMARK  Name = 
REMARK  11 active torsions:
REMARK  status: ('A' for Active; 'I' for Inactive)
REMARK    1  A    between atoms: C_1  and  C_2
REMARK    2  A    between atoms: C_3  and  O_32
REMARK    3  A    between atoms: C_4  and  O_31
REMARK    4  A    between atoms: C_5  and  O_30
REMARK    5  A    between atoms: C_6  and  O_8
REMARK    6  A    between atoms: O_8  and  C_9
REMARK    7  A    between atoms: C_10  and  C_22
REMARK    8  A    between atoms: C_14  and  O_21
REMARK    9  A    between atoms: C_16  and  O_20
REMARK   10  A    between atoms: C_24  and  O_29
REMARK   11  A    between atoms: C_25  and  O_28
REMARK                            x       y       z     vdW  Elec       q    Type
REMARK                         _______ _______ _______ _____ _____    ______ ____
ROOT
ATOM      1  C   UNL     1       8.130   2.627  23.748  0.00  0.00    +0.214 A 
ATOM      2  C   UNL     1       8.534   4.063  23.578  0.00  0.00    +0.238 A 
ATOM      3  O   UNL     1       7.730   4.930  23.253  0.00  0.00    -0.283 OA
ATOM      4  C   UNL     1       9.960   4.386  23.650  0.00  0.00    +0.109 A 
ATOM      5  C   UNL     1      10.856   3.338  23.480  0.00  0.00    +0.147 A 
ATOM      6  C   UNL     1      12.220   3.601  23.337  0.00  0.00    +0.092 A 
ATOM      7  C   UNL     1      12.672   4.919  23.380  0.00  0.00    +0.124 A 
ATOM      8  C   UNL     1      11.792   5.972  23.599  0.00  0.00    +0.091 A 
ATOM      9  O   UNL     1      10.455   2.028  23.408  0.00  0.00    -0.451 OA
ATOM     10  C   UNL     1      10.434   5.703  23.744  0.00  0.00    +0.135 A 
ATOM     11  C   UNL     1       9.113   1.702  23.613  0.00  0.00    +0.181 A 
ENDROOT
BRANCH  11  12
ATOM     12  C   UNL     1       8.884   0.218  23.572  0.00  0.00    +0.025 A 
ATOM     13  C   UNL     1       8.637  -0.408  22.328  0.00  0.00    +0.015 A 
ATOM     14  C   UNL     1       8.411  -1.787  22.225  0.00  0.00    +0.050 A 
ATOM     15  C   UNL     1       8.422  -2.560  23.372  0.00  0.00    +0.158 A 
ATOM     16  C   UNL     1       8.661  -1.975  24.610  0.00  0.00    +0.159 A 
ATOM     17  C   UNL     1       8.907  -0.605  24.715  0.00  0.00    +0.060 A 
BRANCH  15  18
ATOM     18  O   UNL     1       8.198  -3.899  23.281  0.00  0.00    -0.503 OA
ATOM     19  H   UNL     1       9.085  -4.305  23.336  0.00  0.00    +0.292 HD
ENDBRANCH  15  18
BRANCH  16  20
ATOM     20  O   UNL     1       8.643  -2.793  25.707  0.00  0.00    -0.503 OA
ATOM     21  H   UNL     1       9.553  -3.097  25.876  0.00  0.00    +0.292 HD
ENDBRANCH  16  20
ENDBRANCH  11  12
BRANCH   7  22
ATOM     22  O   UNL     1      13.986   5.237  23.204  0.00  0.00    -0.507 OA
ATOM     23  H   UNL     1      14.442   4.486  22.791  0.00  0.00    +0.292 HD
ENDBRANCH   7  22
BRANCH  10  24
ATOM     24  O   UNL     1       9.577   6.742  23.983  0.00  0.00    -0.506 OA
ATOM     25  H   UNL     1       8.710   6.404  24.256  0.00  0.00    +0.292 HD
ENDBRANCH  10  24
BRANCH   1  26
ATOM     26  O   UNL     1       6.798   2.255  23.915  0.00  0.00    -0.453 OA
BRANCH  26  30
ATOM     27  C   UNL     1       6.527   3.528  28.025  0.00  0.00    +0.041 C 
ATOM     28  C   UNL     1       6.605   2.063  27.582  0.00  0.00    +0.150 C 
ATOM     29  O   UNL     1       7.106   1.910  26.242  0.00  0.00    -0.334 OA
ATOM     30  C   UNL     1       6.212   2.378  25.220  0.00  0.00    +0.339 C 
ATOM     31  C   UNL     1       4.941   1.507  25.262  0.00  0.00    +0.214 C 
ATOM     32  C   UNL     1       4.288   1.675  26.641  0.00  0.00    +0.180 C 
ATOM     33  C   UNL     1       5.277   1.306  27.762  0.00  0.00    +0.174 C 
BRANCH  31  34
ATOM     34  O   UNL     1       5.249   0.107  25.063  0.00  0.00    -0.383 OA
ATOM     35  H   UNL     1       5.870   0.071  24.307  0.00  0.00    +0.210 HD
ENDBRANCH  31  34
BRANCH  32  36
ATOM     36  O   UNL     1       3.121   0.854  26.741  0.00  0.00    -0.386 OA
ATOM     37  H   UNL     1       2.360   1.444  26.573  0.00  0.00    +0.210 HD
ENDBRANCH  32  36
BRANCH  33  38
ATOM     38  O   UNL     1       4.734   1.546  29.063  0.00  0.00    -0.387 OA
ATOM     39  H   UNL     1       5.350   2.124  29.549  0.00  0.00    +0.210 HD
ENDBRANCH  33  38
ENDBRANCH  26  30
ENDBRANCH   1  26
TORSDOF 10
ENDMDL
MODEL 6
REMARK VINA RESULT:      -7.0      2.200      4.233
REMARK  Name = 
REMARK  11 active torsions:
REMARK  status: ('A' for Active; 'I' for Inactive)
REMARK    1  A    between atoms: C_1  and  C_2
REMARK    2  A    between atoms: C_3  and  O_32
REMARK    3  A    between atoms: C_4  and  O_31
REMARK    4  A    between atoms: C_5  and  O_30
REMARK    5  A    between atoms: C_6  and  O_8
REMARK    6  A    between atoms: O_8  and  C_9
REMARK    7  A    between atoms: C_10  and  C_22
REMARK    8  A    between atoms: C_14  and  O_21
REMARK    9  A    between atoms: C_16  and  O_20
REMARK   10  A    between atoms: C_24  and  O_29
REMARK   11  A    between atoms: C_25  and  O_28
REMARK                            x       y       z     vdW  Elec       q    Type
REMARK                         _______ _______ _______ _____ _____    ______ ____
ROOT
ATOM      1  C   UNL     1       7.433  -2.284  25.411  0.00  0.00    +0.214 A 
ATOM      2  C   UNL     1       8.669  -2.240  24.559  0.00  0.00    +0.238 A 
ATOM      3  O   UNL     1       9.599  -3.022  24.723  0.00  0.00    -0.283 OA
ATOM      4  C   UNL     1       8.815  -1.125  23.621  0.00  0.00    +0.109 A 
ATOM      5  C   UNL     1       8.027  -0.003  23.844  0.00  0.00    +0.147 A 
ATOM      6  C   UNL     1       8.255   1.166  23.115  0.00  0.00    +0.092 A 
ATOM      7  C   UNL     1       9.268   1.190  22.157  0.00  0.00    +0.124 A 
ATOM      8  C   UNL     1      10.029   0.059  21.890  0.00  0.00    +0.091 A 
ATOM      9  O   UNL     1       7.037   0.027  24.792  0.00  0.00    -0.451 OA
ATOM     10  C   UNL     1       9.795  -1.104  22.617  0.00  0.00    +0.135 A 
ATOM     11  C   UNL     1       6.721  -1.134  25.502  0.00  0.00    +0.181 A 
ENDROOT
BRANCH  11  12
ATOM     12  C   UNL     1       5.563  -0.922  26.435  0.00  0.00    +0.025 A 
ATOM     13  C   UNL     1       5.785  -0.279  27.675  0.00  0.00    +0.015 A 
ATOM     14  C   UNL     1       4.746  -0.058  28.590  0.00  0.00    +0.050 A 
ATOM     15  C   UNL     1       3.469  -0.486  28.278  0.00  0.00    +0.158 A 
ATOM     16  C   UNL     1       3.218  -1.121  27.067  0.00  0.00    +0.159 A 
ATOM     17  C   UNL     1       4.245  -1.326  26.144  0.00  0.00    +0.060 A 
BRANCH  15  18
ATOM     18  O   UNL     1       2.457  -0.280  29.163  0.00  0.00    -0.503 OA
ATOM     19  H   UNL     1       2.360   0.692  29.211  0.00  0.00    +0.292 HD
ENDBRANCH  15  18
BRANCH  16  20
ATOM     20  O   UNL     1       1.936  -1.535  26.826  0.00  0.00    -0.503 OA
ATOM     21  H   UNL     1       1.330  -0.822  27.098  0.00  0.00    +0.292 HD
ENDBRANCH  16  20
ENDBRANCH  11  12
BRANCH   7  22
ATOM     22  O   UNL     1       9.561   2.316  21.446  0.00  0.00    -0.507 OA
ATOM     23  H   UNL     1       9.388   3.095  21.999  0.00  0.00    +0.292 HD
ENDBRANCH   7  22
BRANCH  10  24
ATOM     24  O   UNL     1      10.532  -2.221  22.332  0.00  0.00    -0.506 OA
ATOM     25  H   UNL     1      10.104  -3.008  22.704  0.00  0.00    +0.292 HD
ENDBRANCH  10  24
BRANCH   1  26
ATOM     26  O   UNL     1       7.103  -3.407  26.165  0.00  0.00    -0.453 OA
BRANCH  26  30
ATOM     27  C   UNL     1       6.217  -5.964  22.809  0.00  0.00    +0.041 C 
ATOM     28  C   UNL     1       5.153  -5.255  23.655  0.00  0.00    +0.150 C 
ATOM     29  O   UNL     1       5.685  -4.157  24.417  0.00  0.00    -0.334 OA
ATOM     30  C   UNL     1       6.558  -4.550  25.487  0.00  0.00    +0.339 C 
ATOM     31  C   UNL     1       5.733  -5.364  26.502  0.00  0.00    +0.214 C 
ATOM     32  C   UNL     1       5.189  -6.612  25.791  0.00  0.00    +0.180 C 
ATOM     33  C   UNL     1       4.358  -6.216  24.556  0.00  0.00    +0.174 C 
BRANCH  31  34
ATOM     34  O   UNL     1       4.615  -4.600  27.015  0.00  0.00    -0.383 OA
ATOM     35  H   UNL     1       4.280  -5.098  27.788  0.00  0.00    +0.210 HD
ENDBRANCH  31  34
BRANCH  32  36
ATOM     36  O   UNL     1       4.383  -7.382  26.686  0.00  0.00    -0.386 OA
ATOM     37  H   UNL     1       3.610  -6.824  26.902  0.00  0.00    +0.210 HD
ENDBRANCH  32  36
BRANCH  33  38
ATOM     38  O   UNL     1       3.919  -7.356  23.812  0.00  0.00    -0.387 OA
ATOM     39  H   UNL     1       4.164  -7.223  22.879  0.00  0.00    +0.210 HD
ENDBRANCH  33  38
ENDBRANCH  26  30
ENDBRANCH   1  26
TORSDOF 10
ENDMDL
MODEL 7
REMARK VINA RESULT:      -6.9      2.548      6.558
REMARK  Name = 
REMARK  11 active torsions:
REMARK  status: ('A' for Active; 'I' for Inactive)
REMARK    1  A    between atoms: C_1  and  C_2
REMARK    2  A    between atoms: C_3  and  O_32
REMARK    3  A    between atoms: C_4  and  O_31
REMARK    4  A    between atoms: C_5  and  O_30
REMARK    5  A    between atoms: C_6  and  O_8
REMARK    6  A    between atoms: O_8  and  C_9
REMARK    7  A    between atoms: C_10  and  C_22
REMARK    8  A    between atoms: C_14  and  O_21
REMARK    9  A    between atoms: C_16  and  O_20
REMARK   10  A    between atoms: C_24  and  O_29
REMARK   11  A    between atoms: C_25  and  O_28
REMARK                            x       y       z     vdW  Elec       q    Type
REMARK                         _______ _______ _______ _____ _____    ______ ____
ROOT
ATOM      1  C   UNL     1       7.675  -1.990  25.323  0.00  0.00    +0.214 A 
ATOM      2  C   UNL     1       7.114  -3.370  25.510  0.00  0.00    +0.238 A 
ATOM      3  O   UNL     1       7.160  -3.949  26.590  0.00  0.00    -0.283 OA
ATOM      4  C   UNL     1       6.648  -4.087  24.322  0.00  0.00    +0.109 A 
ATOM      5  C   UNL     1       7.100  -3.630  23.090  0.00  0.00    +0.147 A 
ATOM      6  C   UNL     1       6.860  -4.381  21.937  0.00  0.00    +0.092 A 
ATOM      7  C   UNL     1       6.156  -5.580  22.034  0.00  0.00    +0.124 A 
ATOM      8  C   UNL     1       5.657  -6.022  23.253  0.00  0.00    +0.091 A 
ATOM      9  O   UNL     1       7.817  -2.470  22.951  0.00  0.00    -0.451 OA
ATOM     10  C   UNL     1       5.895  -5.269  24.398  0.00  0.00    +0.135 A 
ATOM     11  C   UNL     1       8.026  -1.647  24.059  0.00  0.00    +0.181 A 
ENDROOT
BRANCH  11  12
ATOM     12  C   UNL     1       8.762  -0.389  23.692  0.00  0.00    +0.025 A 
ATOM     13  C   UNL     1       9.980  -0.088  24.345  0.00  0.00    +0.015 A 
ATOM     14  C   UNL     1      10.710   1.072  24.051  0.00  0.00    +0.050 A 
ATOM     15  C   UNL     1      10.225   1.952  23.101  0.00  0.00    +0.158 A 
ATOM     16  C   UNL     1       9.030   1.685  22.442  0.00  0.00    +0.159 A 
ATOM     17  C   UNL     1       8.310   0.521  22.717  0.00  0.00    +0.060 A 
BRANCH  15  18
ATOM     18  O   UNL     1      10.924   3.083  22.814  0.00  0.00    -0.503 OA
ATOM     19  H   UNL     1      11.102   3.494  23.683  0.00  0.00    +0.292 HD
ENDBRANCH  15  18
BRANCH  16  20
ATOM     20  O   UNL     1       8.598   2.604  21.525  0.00  0.00    -0.503 OA
ATOM     21  H   UNL     1       9.161   2.534  20.734  0.00  0.00    +0.292 HD
ENDBRANCH  16  20
ENDBRANCH  11  12
BRANCH   7  22
ATOM     22  O   UNL     1       5.930  -6.373  20.947  0.00  0.00    -0.507 OA
ATOM     23  H   UNL     1       5.109  -6.874  21.084  0.00  0.00    +0.292 HD
ENDBRANCH   7  22
BRANCH  10  24
ATOM     24  O   UNL     1       5.380  -5.698  25.590  0.00  0.00    -0.506 OA
ATOM     25  H   UNL     1       4.785  -5.026  25.958  0.00  0.00    +0.292 HD
ENDBRANCH  10  24
BRANCH   1  26
ATOM     26  O   UNL     1       7.936  -1.151  26.404  0.00  0.00    -0.453 OA
BRANCH  26  30
ATOM     27  C   UNL     1       6.983   2.966  27.255  0.00  0.00    +0.041 C 
ATOM     28  C   UNL     1       6.543   1.784  28.126  0.00  0.00    +0.150 C 
ATOM     29  O   UNL     1       7.317   0.595  27.886  0.00  0.00    -0.334 OA
ATOM     30  C   UNL     1       7.089  -0.009  26.604  0.00  0.00    +0.339 C 
ATOM     31  C   UNL     1       5.623  -0.482  26.552  0.00  0.00    +0.214 C 
ATOM     32  C   UNL     1       4.715   0.746  26.717  0.00  0.00    +0.180 C 
ATOM     33  C   UNL     1       5.036   1.489  28.027  0.00  0.00    +0.174 C 
BRANCH  31  34
ATOM     34  O   UNL     1       5.328  -1.421  27.613  0.00  0.00    -0.383 OA
ATOM     35  H   UNL     1       4.352  -1.478  27.660  0.00  0.00    +0.210 HD
ENDBRANCH  31  34
BRANCH  32  36
ATOM     36  O   UNL     1       3.341   0.351  26.713  0.00  0.00    -0.386 OA
ATOM     37  H   UNL     1       3.021   0.476  27.628  0.00  0.00    +0.210 HD
ENDBRANCH  32  36
BRANCH  33  38
ATOM     38  O   UNL     1       4.278   2.693  28.165  0.00  0.00    -0.387 OA
ATOM     39  H   UNL     1       4.896   3.446  28.150  0.00  0.00    +0.210 HD
ENDBRANCH  33  38
ENDBRANCH  26  30
ENDBRANCH   1  26
TORSDOF 10
ENDMDL
MODEL 8
REMARK VINA RESULT:      -6.9      2.404      3.451
REMARK  Name = 
REMARK  11 active torsions:
REMARK  status: ('A' for Active; 'I' for Inactive)
REMARK    1  A    between atoms: C_1  and  C_2
REMARK    2  A    between atoms: C_3  and  O_32
REMARK    3  A    between atoms: C_4  and  O_31
REMARK    4  A    between atoms: C_5  and  O_30
REMARK    5  A    between atoms: C_6  and  O_8
REMARK    6  A    between atoms: O_8  and  C_9
REMARK    7  A    between atoms: C_10  and  C_22
REMARK    8  A    between atoms: C_14  and  O_21
REMARK    9  A    between atoms: C_16  and  O_20
REMARK   10  A    between atoms: C_24  and  O_29
REMARK   11  A    between atoms: C_25  and  O_28
REMARK                            x       y       z     vdW  Elec       q    Type
REMARK                         _______ _______ _______ _____ _____    ______ ____
ROOT
ATOM      1  C   UNL     1       6.411  -0.021  24.393  0.00  0.00    +0.214 A 
ATOM      2  C   UNL     1       6.545   1.470  24.512  0.00  0.00    +0.238 A 
ATOM      3  O   UNL     1       5.571   2.199  24.661  0.00  0.00    -0.283 OA
ATOM      4  C   UNL     1       7.865   2.060  24.279  0.00  0.00    +0.109 A 
ATOM      5  C   UNL     1       8.794   1.283  23.599  0.00  0.00    +0.147 A 
ATOM      6  C   UNL     1       9.996   1.849  23.169  0.00  0.00    +0.092 A 
ATOM      7  C   UNL     1      10.257   3.191  23.440  0.00  0.00    +0.124 A 
ATOM      8  C   UNL     1       9.357   3.965  24.163  0.00  0.00    +0.091 A 
ATOM      9  O   UNL     1       8.570  -0.034  23.289  0.00  0.00    -0.451 OA
ATOM     10  C   UNL     1       8.163   3.395  24.591  0.00  0.00    +0.135 A 
ATOM     11  C   UNL     1       7.417  -0.669  23.753  0.00  0.00    +0.181 A 
ENDROOT
BRANCH  11  12
ATOM     12  C   UNL     1       7.388  -2.123  23.379  0.00  0.00    +0.025 A 
ATOM     13  C   UNL     1       6.498  -2.559  22.370  0.00  0.00    +0.015 A 
ATOM     14  C   UNL     1       6.421  -3.903  21.980  0.00  0.00    +0.050 A 
ATOM     15  C   UNL     1       7.231  -4.833  22.603  0.00  0.00    +0.158 A 
ATOM     16  C   UNL     1       8.117  -4.438  23.599  0.00  0.00    +0.159 A 
ATOM     17  C   UNL     1       8.212  -3.098  23.977  0.00  0.00    +0.060 A 
BRANCH  15  18
ATOM     18  O   UNL     1       7.158  -6.141  22.235  0.00  0.00    -0.503 OA
ATOM     19  H   UNL     1       6.932  -6.620  23.056  0.00  0.00    +0.292 HD
ENDBRANCH  15  18
BRANCH  16  20
ATOM     20  O   UNL     1       8.879  -5.411  24.187  0.00  0.00    -0.503 OA
ATOM     21  H   UNL     1       8.327  -5.879  24.839  0.00  0.00    +0.292 HD
ENDBRANCH  16  20
ENDBRANCH  11  12
BRANCH   7  22
ATOM     22  O   UNL     1      11.395   3.806  23.007  0.00  0.00    -0.507 OA
ATOM     23  H   UNL     1      11.941   4.040  23.775  0.00  0.00    +0.292 HD
ENDBRANCH   7  22
BRANCH  10  24
ATOM     24  O   UNL     1       7.293   4.155  25.323  0.00  0.00    -0.506 OA
ATOM     25  H   UNL     1       6.442   4.227  24.862  0.00  0.00    +0.292 HD
ENDBRANCH  10  24
BRANCH   1  26
ATOM     26  O   UNL     1       5.262  -0.689  24.808  0.00  0.00    -0.453 OA
BRANCH  26  30
ATOM     27  C   UNL     1       6.526  -4.067  27.169  0.00  0.00    +0.041 C 
ATOM     28  C   UNL     1       5.071  -3.788  26.777  0.00  0.00    +0.150 C 
ATOM     29  O   UNL     1       4.955  -2.878  25.669  0.00  0.00    -0.334 OA
ATOM     30  C   UNL     1       5.340  -1.528  25.970  0.00  0.00    +0.339 C 
ATOM     31  C   UNL     1       4.365  -0.978  27.028  0.00  0.00    +0.214 C 
ATOM     32  C   UNL     1       4.483  -1.846  28.290  0.00  0.00    +0.180 C 
ATOM     33  C   UNL     1       4.205  -3.325  27.962  0.00  0.00    +0.174 C 
BRANCH  31  34
ATOM     34  O   UNL     1       2.995  -1.022  26.563  0.00  0.00    -0.383 OA
ATOM     35  H   UNL     1       2.489  -1.490  27.258  0.00  0.00    +0.210 HD
ENDBRANCH  31  34
BRANCH  32  36
ATOM     36  O   UNL     1       3.566  -1.395  29.290  0.00  0.00    -0.386 OA
ATOM     37  H   UNL     1       4.109  -1.152  30.065  0.00  0.00    +0.210 HD
ENDBRANCH  32  36
BRANCH  33  38
ATOM     38  O   UNL     1       4.403  -4.176  29.094  0.00  0.00    -0.387 OA
ATOM     39  H   UNL     1       4.634  -5.065  28.769  0.00  0.00    +0.210 HD
ENDBRANCH  33  38
ENDBRANCH  26  30
ENDBRANCH   1  26
TORSDOF 10
ENDMDL
MODEL 9
REMARK VINA RESULT:      -6.9      3.223      7.735
REMARK  Name = 
REMARK  11 active torsions:
REMARK  status: ('A' for Active; 'I' for Inactive)
REMARK    1  A    between atoms: C_1  and  C_2
REMARK    2  A    between atoms: C_3  and  O_32
REMARK    3  A    between atoms: C_4  and  O_31
REMARK    4  A    between atoms: C_5  and  O_30
REMARK    5  A    between atoms: C_6  and  O_8
REMARK    6  A    between atoms: O_8  and  C_9
REMARK    7  A    between atoms: C_10  and  C_22
REMARK    8  A    between atoms: C_14  and  O_21
REMARK    9  A    between atoms: C_16  and  O_20
REMARK   10  A    between atoms: C_24  and  O_29
REMARK   11  A    between atoms: C_25  and  O_28
REMARK                            x       y       z     vdW  Elec       q    Type
REMARK                         _______ _______ _______ _____ _____    ______ ____
ROOT
ATOM      1  C   UNL     1       6.186  -0.934  24.503  0.00  0.00    +0.214 A 
ATOM      2  C   UNL     1       5.248  -2.100  24.636  0.00  0.00    +0.238 A 
ATOM      3  O   UNL     1       4.443  -2.183  25.556  0.00  0.00    -0.283 OA
ATOM      4  C   UNL     1       5.427  -3.231  23.723  0.00  0.00    +0.109 A 
ATOM      5  C   UNL     1       6.652  -3.334  23.077  0.00  0.00    +0.147 A 
ATOM      6  C   UNL     1       6.963  -4.486  22.352  0.00  0.00    +0.092 A 
ATOM      7  C   UNL     1       6.031  -5.520  22.275  0.00  0.00    +0.124 A 
ATOM      8  C   UNL     1       4.784  -5.408  22.876  0.00  0.00    +0.091 A 
ATOM      9  O   UNL     1       7.608  -2.354  23.145  0.00  0.00    -0.451 OA
ATOM     10  C   UNL     1       4.477  -4.256  23.594  0.00  0.00    +0.135 A 
ATOM     11  C   UNL     1       7.324  -1.153  23.797  0.00  0.00    +0.181 A 
ENDROOT
BRANCH  11  12
ATOM     12  C   UNL     1       8.462  -0.178  23.699  0.00  0.00    +0.025 A 
ATOM     13  C   UNL     1       9.304   0.015  24.819  0.00  0.00    +0.015 A 
ATOM     14  C   UNL     1      10.379   0.914  24.791  0.00  0.00    +0.050 A 
ATOM     15  C   UNL     1      10.622   1.639  23.639  0.00  0.00    +0.158 A 
ATOM     16  C   UNL     1       9.813   1.473  22.521  0.00  0.00    +0.159 A 
ATOM     17  C   UNL     1       8.754   0.565  22.538  0.00  0.00    +0.060 A 
BRANCH  15  18
ATOM     18  O   UNL     1      11.660   2.518  23.606  0.00  0.00    -0.503 OA
ATOM     19  H   UNL     1      11.292   3.325  23.194  0.00  0.00    +0.292 HD
ENDBRANCH  15  18
BRANCH  16  20
ATOM     20  O   UNL     1      10.097   2.233  21.419  0.00  0.00    -0.503 OA
ATOM     21  H   UNL     1       9.506   1.956  20.697  0.00  0.00    +0.292 HD
ENDBRANCH  16  20
ENDBRANCH  11  12
BRANCH   7  22
ATOM     22  O   UNL     1       6.298  -6.684  21.616  0.00  0.00    -0.507 OA
ATOM     23  H   UNL     1       5.921  -7.426  22.116  0.00  0.00    +0.292 HD
ENDBRANCH   7  22
BRANCH  10  24
ATOM     24  O   UNL     1       3.239  -4.141  24.162  0.00  0.00    -0.506 OA
ATOM     25  H   UNL     1       2.935  -3.221  24.119  0.00  0.00    +0.292 HD
ENDBRANCH  10  24
BRANCH   1  26
ATOM     26  O   UNL     1       5.961   0.268  25.169  0.00  0.00    -0.453 OA
BRANCH  26  30
ATOM     27  C   UNL     1       6.401   3.305  22.142  0.00  0.00    +0.041 C 
ATOM     28  C   UNL     1       6.325   3.594  23.645  0.00  0.00    +0.150 C 
ATOM     29  O   UNL     1       6.604   2.435  24.451  0.00  0.00    -0.334 OA
ATOM     30  C   UNL     1       5.591   1.419  24.395  0.00  0.00    +0.339 C 
ATOM     31  C   UNL     1       4.295   2.003  24.988  0.00  0.00    +0.214 C 
ATOM     32  C   UNL     1       3.872   3.206  24.132  0.00  0.00    +0.180 C 
ATOM     33  C   UNL     1       5.000   4.252  24.068  0.00  0.00    +0.174 C 
BRANCH  31  34
ATOM     34  O   UNL     1       4.487   2.450  26.351  0.00  0.00    -0.383 OA
ATOM     35  H   UNL     1       3.621   2.345  26.795  0.00  0.00    +0.210 HD
ENDBRANCH  31  34
BRANCH  32  36
ATOM     36  O   UNL     1       2.690   3.806  24.668  0.00  0.00    -0.386 OA
ATOM     37  H   UNL     1       2.592   3.449  25.572  0.00  0.00    +0.210 HD
ENDBRANCH  32  36
BRANCH  33  38
ATOM     38  O   UNL     1       4.679   5.341  23.198  0.00  0.00    -0.387 OA
ATOM     39  H   UNL     1       4.661   6.159  23.727  0.00  0.00    +0.210 HD
ENDBRANCH  33  38
ENDBRANCH  26  30
ENDBRANCH   1  26
TORSDOF 10
ENDMDL
