MODEL 1
REMARK VINA RESULT:      -7.1      0.000      0.000
REMARK  Name = 
REMARK  28 active torsions:
REMARK  status: ('A' for Active; 'I' for Inactive)
REMARK    1  A    between atoms: C_3  and  O_66
REMARK    2  A    between atoms: C_6  and  C_7
REMARK    3  A    between atoms: C_8  and  C_9
REMARK    4  A    between atoms: C_9  and  O_11
REMARK    5  A    between atoms: O_11  and  C_12
REMARK    6  A    between atoms: C_12  and  C_13
REMARK    7  A    between atoms: C_14  and  O_65
REMARK    8  A    between atoms: C_15  and  O_64
REMARK    9  A    between atoms: C_16  and  O_63
REMARK   10  A    between atoms: C_17  and  O_19
REMARK   11  A    between atoms: O_19  and  C_20
REMARK   12  A    between atoms: C_21  and  O_62
REMARK   13  A    between atoms: C_22  and  O_61
REMARK   14  A    between atoms: C_23  and  C_59
REMARK   15  A    between atoms: C_25  and  O_26
REMARK   16  A    between atoms: O_26  and  C_27
REMARK   17  A    between atoms: C_28  and  O_58
REMARK   18  A    between atoms: C_29  and  O_57
REMARK   19  A    between atoms: C_30  and  C_55
REMARK   20  A    between atoms: C_32  and  O_33
REMARK   21  A    between atoms: O_33  and  C_34
REMARK   22  A    between atoms: C_35  and  C_47
REMARK   23  A    between atoms: C_39  and  O_46
REMARK   24  A    between atoms: C_41  and  O_45
REMARK   25  A    between atoms: C_49  and  O_54
REMARK   26  A    between atoms: C_50  and  O_53
REMARK   27  A    between atoms: C_55  and  O_56
REMARK   28  A    between atoms: C_59  and  O_60
REMARK                            x       y       z     vdW  Elec       q    Type
REMARK                         _______ _______ _______ _____ _____    ______ ____
ROOT
ATOM      1  C   UNL     1       6.562  -3.255  24.682  0.00  0.00    +0.208 C 
ATOM      2  C   UNL     1       6.815  -4.792  24.865  0.00  0.00    +0.283 C 
ATOM      3  O   UNL     1       7.820  -5.301  23.988  0.00  0.00    -0.341 OA
ATOM      4  C   UNL     1       7.641  -5.031  22.599  0.00  0.00    +0.178 C 
ATOM      5  C   UNL     1       7.474  -3.532  22.339  0.00  0.00    +0.177 C 
ATOM      6  C   UNL     1       6.332  -2.968  23.184  0.00  0.00    +0.179 C 
ENDROOT
BRANCH   6   7
ATOM      7  O   UNL     1       6.126  -1.577  22.891  0.00  0.00    -0.386 OA
ATOM      8  H   UNL     1       5.307  -1.500  22.356  0.00  0.00    +0.210 HD
ENDBRANCH   6   7
BRANCH   5   9
ATOM      9  O   UNL     1       7.267  -3.234  20.958  0.00  0.00    -0.386 OA
ATOM     10  H   UNL     1       7.634  -2.351  20.765  0.00  0.00    +0.210 HD
ENDBRANCH   5   9
BRANCH   4  11
ATOM     11  C   UNL     1       6.520  -5.883  21.981  0.00  0.00    +0.190 C 
BRANCH  11  12
ATOM     12  O   UNL     1       5.994  -5.318  20.779  0.00  0.00    -0.392 OA
ATOM     13  H   UNL     1       6.395  -4.439  20.666  0.00  0.00    +0.210 HD
ENDBRANCH  11  12
ENDBRANCH   4  11
BRANCH   2  14
ATOM     14  O   UNL     1       5.588  -5.538  24.789  0.00  0.00    -0.337 OA
BRANCH  14  15
ATOM     15  C   UNL     1       4.336  -4.789  24.999  0.00  0.00    +0.221 C 
ATOM     16  C   UNL     1       3.688  -5.267  26.381  0.00  0.00    +0.340 C 
ATOM     17  O   UNL     1       3.324  -6.663  26.290  0.00  0.00    -0.331 OA
ATOM     18  C   UNL     1       2.651  -7.141  25.106  0.00  0.00    +0.179 C 
ATOM     19  C   UNL     1       3.138  -6.564  23.764  0.00  0.00    +0.177 C 
ATOM     20  C   UNL     1       3.323  -5.054  23.871  0.00  0.00    +0.180 C 
BRANCH  20  21
ATOM     21  O   UNL     1       3.712  -4.501  22.601  0.00  0.00    -0.386 OA
ATOM     22  H   UNL     1       4.475  -3.912  22.739  0.00  0.00    +0.210 HD
ENDBRANCH  20  21
BRANCH  19  23
ATOM     23  O   UNL     1       2.300  -6.888  22.647  0.00  0.00    -0.386 OA
ATOM     24  H   UNL     1       2.586  -6.338  21.891  0.00  0.00    +0.210 HD
ENDBRANCH  19  23
BRANCH  18  25
ATOM     25  C   UNL     1       1.129  -7.074  25.274  0.00  0.00    +0.190 C 
BRANCH  25  26
ATOM     26  O   UNL     1       0.592  -5.815  24.891  0.00  0.00    -0.392 OA
ATOM     27  H   UNL     1      -0.076  -5.984  24.203  0.00  0.00    +0.210 HD
ENDBRANCH  25  26
ENDBRANCH  18  25
BRANCH  16  28
ATOM     28  O   UNL     1       2.584  -4.425  26.829  0.00  0.00    -0.453 OA
BRANCH  28  29
ATOM     29  C   UNL     1       2.759  -3.249  27.588  0.00  0.00    +0.214 A 
ATOM     30  C   UNL     1       1.812  -2.098  27.605  0.00  0.00    +0.238 A 
ATOM     31  O   UNL     1       0.596  -2.257  27.545  0.00  0.00    -0.283 OA
ATOM     32  C   UNL     1       2.408  -0.779  27.907  0.00  0.00    +0.109 A 
ATOM     33  C   UNL     1       3.478  -0.760  28.783  0.00  0.00    +0.147 A 
ATOM     34  C   UNL     1       4.049   0.457  29.193  0.00  0.00    +0.092 A 
ATOM     35  C   UNL     1       3.566   1.660  28.664  0.00  0.00    +0.124 A 
ATOM     36  C   UNL     1       2.524   1.642  27.738  0.00  0.00    +0.091 A 
ATOM     37  O   UNL     1       3.998  -1.938  29.262  0.00  0.00    -0.451 OA
ATOM     38  C   UNL     1       1.937   0.423  27.364  0.00  0.00    +0.135 A 
ATOM     39  C   UNL     1       3.735  -3.113  28.536  0.00  0.00    +0.181 A 
BRANCH  39  40
ATOM     40  C   UNL     1       4.641  -4.221  28.923  0.00  0.00    +0.025 A 
ATOM     41  C   UNL     1       4.341  -5.022  30.041  0.00  0.00    +0.015 A 
ATOM     42  C   UNL     1       5.100  -6.146  30.351  0.00  0.00    +0.050 A 
ATOM     43  C   UNL     1       6.199  -6.449  29.569  0.00  0.00    +0.158 A 
ATOM     44  C   UNL     1       6.583  -5.610  28.527  0.00  0.00    +0.159 A 
ATOM     45  C   UNL     1       5.825  -4.484  28.211  0.00  0.00    +0.060 A 
BRANCH  44  46
ATOM     46  O   UNL     1       7.703  -5.957  27.821  0.00  0.00    -0.503 OA
ATOM     47  H   UNL     1       8.396  -5.296  27.994  0.00  0.00    +0.292 HD
ENDBRANCH  44  46
BRANCH  43  48
ATOM     48  O   UNL     1       6.901  -7.590  29.828  0.00  0.00    -0.503 OA
ATOM     49  H   UNL     1       6.272  -8.313  29.634  0.00  0.00    +0.292 HD
ENDBRANCH  43  48
ENDBRANCH  39  40
BRANCH  38  50
ATOM     50  O   UNL     1       0.959   0.411  26.430  0.00  0.00    -0.506 OA
ATOM     51  H   UNL     1       0.223  -0.149  26.732  0.00  0.00    +0.292 HD
ENDBRANCH  38  50
BRANCH  35  52
ATOM     52  O   UNL     1       4.079   2.877  28.990  0.00  0.00    -0.507 OA
ATOM     53  H   UNL     1       3.815   3.129  29.892  0.00  0.00    +0.292 HD
ENDBRANCH  35  52
ENDBRANCH  28  29
ENDBRANCH  16  28
ENDBRANCH  14  15
ENDBRANCH   2  14
BRANCH   1  54
ATOM     54  O   UNL     1       7.678  -2.533  25.293  0.00  0.00    -0.338 OA
BRANCH  54  57
ATOM     55  C   UNL     1       7.303   1.090  25.028  0.00  0.00    +0.190 C 
ATOM     56  O   UNL     1       8.015  -0.200  24.924  0.00  0.00    -0.339 OA
ATOM     57  C   UNL     1       7.385  -1.213  25.749  0.00  0.00    +0.282 C 
ATOM     58  C   UNL     1       7.773  -0.929  27.209  0.00  0.00    +0.201 C 
ATOM     59  C   UNL     1       7.100   0.388  27.581  0.00  0.00    +0.179 C 
ATOM     60  C   UNL     1       7.341   1.507  26.536  0.00  0.00    +0.178 C 
BRANCH  60  61
ATOM     61  O   UNL     1       6.524   2.627  26.862  0.00  0.00    -0.386 OA
ATOM     62  H   UNL     1       6.533   3.182  26.047  0.00  0.00    +0.210 HD
ENDBRANCH  60  61
BRANCH  59  63
ATOM     63  O   UNL     1       7.587   0.834  28.864  0.00  0.00    -0.386 OA
ATOM     64  H   UNL     1       6.938   1.505  29.178  0.00  0.00    +0.210 HD
ENDBRANCH  59  63
BRANCH  58  65
ATOM     65  O   UNL     1       9.197  -0.801  27.402  0.00  0.00    -0.384 OA
ATOM     66  H   UNL     1       9.375   0.138  27.610  0.00  0.00    +0.210 HD
ENDBRANCH  58  65
BRANCH  55  67
ATOM     67  C   UNL     1       6.018   1.009  24.102  0.00  0.00    +0.266 C 
BRANCH  67  68
ATOM     68  O   UNL     1       5.927   1.667  22.792  0.00  0.00    -0.459 OA
BRANCH  68  69
ATOM     69  C   UNL     1       6.186   3.014  22.809  0.00  0.00    +0.332 C 
ATOM     70  O   UNL     1       5.303   3.868  22.742  0.00  0.00    -0.246 OA
BRANCH  69  72
ATOM     71  C   UNL     1       8.279   4.313  23.734  0.00  0.00    +0.015 C 
ATOM     72  C   UNL     1       7.615   3.494  22.894  0.00  0.00    +0.092 C 
BRANCH  71  74
ATOM     73  C   UNL     1      10.360   5.844  23.965  0.00  0.00    +0.011 A 
ATOM     74  C   UNL     1       9.766   4.585  23.728  0.00  0.00    -0.025 A 
ATOM     75  C   UNL     1      10.630   3.545  23.362  0.00  0.00    +0.011 A 
ATOM     76  C   UNL     1      12.021   3.734  23.236  0.00  0.00    +0.046 A 
ATOM     77  C   UNL     1      12.578   4.985  23.453  0.00  0.00    +0.117 A 
ATOM     78  C   UNL     1      11.758   6.043  23.827  0.00  0.00    +0.046 A 
BRANCH  77  79
ATOM     79  O   UNL     1      13.924   5.126  23.275  0.00  0.00    -0.507 OA
ATOM     80  H   UNL     1      14.402   4.666  23.984  0.00  0.00    +0.292 HD
ENDBRANCH  77  79
ENDBRANCH  71  74
ENDBRANCH  69  72
ENDBRANCH  68  69
ENDBRANCH  67  68
ENDBRANCH  55  67
ENDBRANCH  54  57
ENDBRANCH   1  54
TORSDOF 28
ENDMDL
MODEL 2
REMARK VINA RESULT:      -6.9      2.029      9.441
REMARK  Name = 
REMARK  28 active torsions:
REMARK  status: ('A' for Active; 'I' for Inactive)
REMARK    1  A    between atoms: C_3  and  O_66
REMARK    2  A    between atoms: C_6  and  C_7
REMARK    3  A    between atoms: C_8  and  C_9
REMARK    4  A    between atoms: C_9  and  O_11
REMARK    5  A    between atoms: O_11  and  C_12
REMARK    6  A    between atoms: C_12  and  C_13
REMARK    7  A    between atoms: C_14  and  O_65
REMARK    8  A    between atoms: C_15  and  O_64
REMARK    9  A    between atoms: C_16  and  O_63
REMARK   10  A    between atoms: C_17  and  O_19
REMARK   11  A    between atoms: O_19  and  C_20
REMARK   12  A    between atoms: C_21  and  O_62
REMARK   13  A    between atoms: C_22  and  O_61
REMARK   14  A    between atoms: C_23  and  C_59
REMARK   15  A    between atoms: C_25  and  O_26
REMARK   16  A    between atoms: O_26  and  C_27
REMARK   17  A    between atoms: C_28  and  O_58
REMARK   18  A    between atoms: C_29  and  O_57
REMARK   19  A    between atoms: C_30  and  C_55
REMARK   20  A    between atoms: C_32  and  O_33
REMARK   21  A    between atoms: O_33  and  C_34
REMARK   22  A    between atoms: C_35  and  C_47
REMARK   23  A    between atoms: C_39  and  O_46
REMARK   24  A    between atoms: C_41  and  O_45
REMARK   25  A    between atoms: C_49  and  O_54
REMARK   26  A    between atoms: C_50  and  O_53
REMARK   27  A    between atoms: C_55  and  O_56
REMARK   28  A    between atoms: C_59  and  O_60
REMARK                            x       y       z     vdW  Elec       q    Type
REMARK                         _______ _______ _______ _____ _____    ______ ____
ROOT
ATOM      1  C   UNL     1       5.520  -3.442  24.197  0.00  0.00    +0.208 C 
ATOM      2  C   UNL     1       5.953  -1.977  23.844  0.00  0.00    +0.283 C 
ATOM      3  O   UNL     1       6.942  -1.917  22.817  0.00  0.00    -0.341 OA
ATOM      4  C   UNL     1       8.116  -2.702  23.027  0.00  0.00    +0.178 C 
ATOM      5  C   UNL     1       7.767  -4.168  23.292  0.00  0.00    +0.177 C 
ATOM      6  C   UNL     1       6.787  -4.281  24.460  0.00  0.00    +0.179 C 
ENDROOT
BRANCH   6   7
ATOM      7  O   UNL     1       6.512  -5.658  24.758  0.00  0.00    -0.386 OA
ATOM      8  H   UNL     1       5.813  -5.966  24.143  0.00  0.00    +0.210 HD
ENDBRANCH   6   7
BRANCH   5   9
ATOM      9  O   UNL     1       8.923  -4.973  23.531  0.00  0.00    -0.386 OA
ATOM     10  H   UNL     1       9.611  -4.423  23.952  0.00  0.00    +0.210 HD
ENDBRANCH   5   9
BRANCH   4  11
ATOM     11  C   UNL     1       9.038  -2.094  24.096  0.00  0.00    +0.190 C 
BRANCH  11  12
ATOM     12  O   UNL     1      10.422  -2.328  23.831  0.00  0.00    -0.392 OA
ATOM     13  H   UNL     1      10.929  -1.991  24.589  0.00  0.00    +0.210 HD
ENDBRANCH  11  12
ENDBRANCH   4  11
BRANCH   2  14
ATOM     14  O   UNL     1       6.337  -1.244  25.021  0.00  0.00    -0.337 OA
BRANCH  14  15
ATOM     15  C   UNL     1       5.787   0.116  25.171  0.00  0.00    +0.221 C 
ATOM     16  C   UNL     1       7.006   1.136  25.343  0.00  0.00    +0.340 C 
ATOM     17  O   UNL     1       7.718   0.841  26.566  0.00  0.00    -0.331 OA
ATOM     18  C   UNL     1       6.970   0.580  27.772  0.00  0.00    +0.179 C 
ATOM     19  C   UNL     1       5.688  -0.260  27.613  0.00  0.00    +0.177 C 
ATOM     20  C   UNL     1       4.883   0.226  26.411  0.00  0.00    +0.180 C 
BRANCH  20  21
ATOM     21  O   UNL     1       3.651  -0.509  26.298  0.00  0.00    -0.386 OA
ATOM     22  H   UNL     1       3.521  -0.757  25.365  0.00  0.00    +0.210 HD
ENDBRANCH  20  21
BRANCH  19  23
ATOM     23  O   UNL     1       4.864  -0.301  28.784  0.00  0.00    -0.386 OA
ATOM     24  H   UNL     1       5.309   0.221  29.481  0.00  0.00    +0.210 HD
ENDBRANCH  19  23
BRANCH  18  25
ATOM     25  C   UNL     1       6.751   1.868  28.574  0.00  0.00    +0.190 C 
BRANCH  25  26
ATOM     26  O   UNL     1       7.830   2.152  29.454  0.00  0.00    -0.392 OA
ATOM     27  H   UNL     1       7.803   3.107  29.644  0.00  0.00    +0.210 HD
ENDBRANCH  25  26
ENDBRANCH  18  25
BRANCH  16  28
ATOM     28  O   UNL     1       6.611   2.538  25.245  0.00  0.00    -0.453 OA
BRANCH  28  29
ATOM     29  C   UNL     1       7.503   3.576  24.902  0.00  0.00    +0.214 A 
ATOM     30  C   UNL     1       8.415   3.558  23.724  0.00  0.00    +0.238 A 
ATOM     31  O   UNL     1       8.083   3.060  22.652  0.00  0.00    -0.283 OA
ATOM     32  C   UNL     1       9.654   4.356  23.858  0.00  0.00    +0.109 A 
ATOM     33  C   UNL     1       9.576   5.513  24.609  0.00  0.00    +0.147 A 
ATOM     34  C   UNL     1      10.680   6.376  24.717  0.00  0.00    +0.092 A 
ATOM     35  C   UNL     1      11.890   6.028  24.104  0.00  0.00    +0.124 A 
ATOM     36  C   UNL     1      11.990   4.835  23.392  0.00  0.00    +0.091 A 
ATOM     37  O   UNL     1       8.411   5.834  25.264  0.00  0.00    -0.451 OA
ATOM     38  C   UNL     1      10.869   3.999  23.260  0.00  0.00    +0.135 A 
ATOM     39  C   UNL     1       7.496   4.797  25.517  0.00  0.00    +0.181 A 
BRANCH  39  40
ATOM     40  C   UNL     1       6.489   5.179  26.536  0.00  0.00    +0.025 A 
ATOM     41  C   UNL     1       5.184   5.531  26.144  0.00  0.00    +0.015 A 
ATOM     42  C   UNL     1       4.185   5.767  27.084  0.00  0.00    +0.050 A 
ATOM     43  C   UNL     1       4.500   5.702  28.428  0.00  0.00    +0.158 A 
ATOM     44  C   UNL     1       5.808   5.467  28.841  0.00  0.00    +0.159 A 
ATOM     45  C   UNL     1       6.812   5.227  27.905  0.00  0.00    +0.060 A 
BRANCH  44  46
ATOM     46  O   UNL     1       6.049   5.452  30.188  0.00  0.00    -0.503 OA
ATOM     47  H   UNL     1       5.922   6.352  30.536  0.00  0.00    +0.292 HD
ENDBRANCH  44  46
BRANCH  43  48
ATOM     48  O   UNL     1       3.506   5.862  29.349  0.00  0.00    -0.503 OA
ATOM     49  H   UNL     1       3.329   6.823  29.353  0.00  0.00    +0.292 HD
ENDBRANCH  43  48
ENDBRANCH  39  40
BRANCH  38  50
ATOM     50  O   UNL     1      10.987   2.820  22.608  0.00  0.00    -0.506 OA
ATOM     51  H   UNL     1      10.587   2.891  21.724  0.00  0.00    +0.292 HD
ENDBRANCH  38  50
BRANCH  35  52
ATOM     52  O   UNL     1      13.012   6.795  24.181  0.00  0.00    -0.507 OA
ATOM     53  H   UNL     1      13.663   6.390  24.778  0.00  0.00    +0.292 HD
ENDBRANCH  35  52
ENDBRANCH  28  29
ENDBRANCH  16  28
ENDBRANCH  14  15
ENDBRANCH   2  14
BRANCH   1  54
ATOM     54  O   UNL     1       4.656  -3.933  23.125  0.00  0.00    -0.338 OA
BRANCH  54  57
ATOM     55  C   UNL     1       2.066  -5.195  25.369  0.00  0.00    +0.190 C 
ATOM     56  O   UNL     1       3.438  -4.815  24.978  0.00  0.00    -0.339 OA
ATOM     57  C   UNL     1       3.578  -4.774  23.535  0.00  0.00    +0.282 C 
ATOM     58  C   UNL     1       3.662  -6.226  23.036  0.00  0.00    +0.201 C 
ATOM     59  C   UNL     1       2.295  -6.848  23.304  0.00  0.00    +0.179 C 
ATOM     60  C   UNL     1       1.793  -6.606  24.750  0.00  0.00    +0.178 C 
BRANCH  60  61
ATOM     61  O   UNL     1       0.443  -7.046  24.850  0.00  0.00    -0.386 OA
ATOM     62  H   UNL     1       0.391  -7.818  24.237  0.00  0.00    +0.210 HD
ENDBRANCH  60  61
BRANCH  59  63
ATOM     63  O   UNL     1       2.355  -8.269  23.062  0.00  0.00    -0.386 OA
ATOM     64  H   UNL     1       2.273  -8.378  22.086  0.00  0.00    +0.210 HD
ENDBRANCH  59  63
BRANCH  58  65
ATOM     65  O   UNL     1       4.673  -7.001  23.712  0.00  0.00    -0.384 OA
ATOM     66  H   UNL     1       5.099  -7.566  23.038  0.00  0.00    +0.210 HD
ENDBRANCH  58  65
BRANCH  55  67
ATOM     67  C   UNL     1       1.149  -3.909  25.229  0.00  0.00    +0.266 C 
BRANCH  67  68
ATOM     68  O   UNL     1       0.501  -3.253  26.372  0.00  0.00    -0.459 OA
BRANCH  68  69
ATOM     69  C   UNL     1       1.363  -2.819  27.346  0.00  0.00    +0.332 C 
ATOM     70  O   UNL     1       1.220  -1.753  27.943  0.00  0.00    -0.246 OA
BRANCH  69  72
ATOM     71  C   UNL     1       3.548  -3.548  28.618  0.00  0.00    +0.015 C 
ATOM     72  C   UNL     1       2.561  -3.664  27.707  0.00  0.00    +0.092 C 
BRANCH  71  74
ATOM     73  C   UNL     1       5.635  -4.968  28.019  0.00  0.00    +0.011 A 
ATOM     74  C   UNL     1       4.616  -4.576  28.915  0.00  0.00    -0.025 A 
ATOM     75  C   UNL     1       4.545  -5.276  30.127  0.00  0.00    +0.011 A 
ATOM     76  C   UNL     1       5.440  -6.317  30.445  0.00  0.00    +0.046 A 
ATOM     77  C   UNL     1       6.418  -6.699  29.540  0.00  0.00    +0.117 A 
ATOM     78  C   UNL     1       6.530  -6.025  28.329  0.00  0.00    +0.046 A 
BRANCH  77  79
ATOM     79  O   UNL     1       7.231  -7.742  29.877  0.00  0.00    -0.507 OA
ATOM     80  H   UNL     1       7.806  -7.487  30.617  0.00  0.00    +0.292 HD
ENDBRANCH  77  79
ENDBRANCH  71  74
ENDBRANCH  69  72
ENDBRANCH  68  69
ENDBRANCH  67  68
ENDBRANCH  55  67
ENDBRANCH  54  57
ENDBRANCH   1  54
TORSDOF 28
ENDMDL
MODEL 3
REMARK VINA RESULT:      -6.9      3.309      6.923
REMARK  Name = 
REMARK  28 active torsions:
REMARK  status: ('A' for Active; 'I' for Inactive)
REMARK    1  A    between atoms: C_3  and  O_66
REMARK    2  A    between atoms: C_6  and  C_7
REMARK    3  A    between atoms: C_8  and  C_9
REMARK    4  A    between atoms: C_9  and  O_11
REMARK    5  A    between atoms: O_11  and  C_12
REMARK    6  A    between atoms: C_12  and  C_13
REMARK    7  A    between atoms: C_14  and  O_65
REMARK    8  A    between atoms: C_15  and  O_64
REMARK    9  A    between atoms: C_16  and  O_63
REMARK   10  A    between atoms: C_17  and  O_19
REMARK   11  A    between atoms: O_19  and  C_20
REMARK   12  A    between atoms: C_21  and  O_62
REMARK   13  A    between atoms: C_22  and  O_61
REMARK   14  A    between atoms: C_23  and  C_59
REMARK   15  A    between atoms: C_25  and  O_26
REMARK   16  A    between atoms: O_26  and  C_27
REMARK   17  A    between atoms: C_28  and  O_58
REMARK   18  A    between atoms: C_29  and  O_57
REMARK   19  A    between atoms: C_30  and  C_55
REMARK   20  A    between atoms: C_32  and  O_33
REMARK   21  A    between atoms: O_33  and  C_34
REMARK   22  A    between atoms: C_35  and  C_47
REMARK   23  A    between atoms: C_39  and  O_46
REMARK   24  A    between atoms: C_41  and  O_45
REMARK   25  A    between atoms: C_49  and  O_54
REMARK   26  A    between atoms: C_50  and  O_53
REMARK   27  A    between atoms: C_55  and  O_56
REMARK   28  A    between atoms: C_59  and  O_60
REMARK                            x       y       z     vdW  Elec       q    Type
REMARK                         _______ _______ _______ _____ _____    ______ ____
ROOT
ATOM      1  C   UNL     1       7.876   2.511  24.330  0.00  0.00    +0.208 C 
ATOM      2  C   UNL     1       8.371   1.275  25.158  0.00  0.00    +0.283 C 
ATOM      3  O   UNL     1       9.768   1.024  25.008  0.00  0.00    -0.341 OA
ATOM      4  C   UNL     1      10.246   0.896  23.670  0.00  0.00    +0.178 C 
ATOM      5  C   UNL     1       9.870   2.115  22.825  0.00  0.00    +0.177 C 
ATOM      6  C   UNL     1       8.361   2.355  22.874  0.00  0.00    +0.179 C 
ENDROOT
BRANCH   6   7
ATOM      7  O   UNL     1       7.996   3.454  22.026  0.00  0.00    -0.386 OA
ATOM      8  H   UNL     1       7.236   3.171  21.474  0.00  0.00    +0.210 HD
ENDBRANCH   6   7
BRANCH   5   9
ATOM      9  O   UNL     1      10.313   2.003  21.472  0.00  0.00    -0.386 OA
ATOM     10  H   UNL     1      10.926   1.248  21.399  0.00  0.00    +0.210 HD
ENDBRANCH   5   9
BRANCH   4  11
ATOM     11  C   UNL     1       9.830  -0.438  23.029  0.00  0.00    +0.190 C 
BRANCH  11  12
ATOM     12  O   UNL     1      10.058  -1.558  23.886  0.00  0.00    -0.392 OA
ATOM     13  H   UNL     1      10.404  -1.219  24.729  0.00  0.00    +0.210 HD
ENDBRANCH  11  12
ENDBRANCH   4  11
BRANCH   2  14
ATOM     14  O   UNL     1       7.571   0.110  24.892  0.00  0.00    -0.337 OA
BRANCH  14  15
ATOM     15  C   UNL     1       7.057  -0.630  26.060  0.00  0.00    +0.221 C 
ATOM     16  C   UNL     1       5.689  -1.346  25.642  0.00  0.00    +0.340 C 
ATOM     17  O   UNL     1       4.697  -0.346  25.318  0.00  0.00    -0.331 OA
ATOM     18  C   UNL     1       4.544   0.801  26.180  0.00  0.00    +0.179 C 
ATOM     19  C   UNL     1       5.842   1.412  26.742  0.00  0.00    +0.177 C 
ATOM     20  C   UNL     1       6.771   0.311  27.243  0.00  0.00    +0.180 C 
BRANCH  20  21
ATOM     21  O   UNL     1       7.955   0.878  27.832  0.00  0.00    -0.386 OA
ATOM     22  H   UNL     1       7.748   1.153  28.743  0.00  0.00    +0.210 HD
ENDBRANCH  20  21
BRANCH  19  23
ATOM     23  O   UNL     1       5.634   2.395  27.764  0.00  0.00    -0.386 OA
ATOM     24  H   UNL     1       6.407   2.993  27.764  0.00  0.00    +0.210 HD
ENDBRANCH  19  23
BRANCH  18  25
ATOM     25  C   UNL     1       3.484   0.543  27.256  0.00  0.00    +0.190 C 
BRANCH  25  26
ATOM     26  O   UNL     1       2.178   0.406  26.713  0.00  0.00    -0.392 OA
ATOM     27  H   UNL     1       1.822  -0.443  27.029  0.00  0.00    +0.210 HD
ENDBRANCH  25  26
ENDBRANCH  18  25
BRANCH  16  28
ATOM     28  O   UNL     1       5.214  -2.313  26.625  0.00  0.00    -0.453 OA
BRANCH  28  29
ATOM     29  C   UNL     1       4.469  -3.463  26.290  0.00  0.00    +0.214 A 
ATOM     30  C   UNL     1       2.981  -3.519  26.211  0.00  0.00    +0.238 A 
ATOM     31  O   UNL     1       2.318  -2.577  25.787  0.00  0.00    -0.283 OA
ATOM     32  C   UNL     1       2.373  -4.841  26.475  0.00  0.00    +0.109 A 
ATOM     33  C   UNL     1       3.092  -5.953  26.078  0.00  0.00    +0.147 A 
ATOM     34  C   UNL     1       2.551  -7.243  26.209  0.00  0.00    +0.092 A 
ATOM     35  C   UNL     1       1.294  -7.408  26.803  0.00  0.00    +0.124 A 
ATOM     36  C   UNL     1       0.589  -6.294  27.255  0.00  0.00    +0.091 A 
ATOM     37  O   UNL     1       4.353  -5.807  25.549  0.00  0.00    -0.451 OA
ATOM     38  C   UNL     1       1.123  -5.007  27.085  0.00  0.00    +0.135 A 
ATOM     39  C   UNL     1       5.042  -4.613  25.823  0.00  0.00    +0.181 A 
BRANCH  39  40
ATOM     40  C   UNL     1       6.492  -4.729  25.533  0.00  0.00    +0.025 A 
ATOM     41  C   UNL     1       6.948  -4.745  24.202  0.00  0.00    +0.015 A 
ATOM     42  C   UNL     1       8.307  -4.722  23.902  0.00  0.00    +0.050 A 
ATOM     43  C   UNL     1       9.222  -4.733  24.938  0.00  0.00    +0.158 A 
ATOM     44  C   UNL     1       8.799  -4.830  26.260  0.00  0.00    +0.159 A 
ATOM     45  C   UNL     1       7.440  -4.851  26.566  0.00  0.00    +0.060 A 
BRANCH  44  46
ATOM     46  O   UNL     1       9.765  -4.872  27.228  0.00  0.00    -0.503 OA
ATOM     47  H   UNL     1       9.878  -3.978  27.593  0.00  0.00    +0.292 HD
ENDBRANCH  44  46
BRANCH  43  48
ATOM     48  O   UNL     1      10.551  -4.637  24.647  0.00  0.00    -0.503 OA
ATOM     49  H   UNL     1      10.977  -5.299  25.227  0.00  0.00    +0.292 HD
ENDBRANCH  43  48
ENDBRANCH  39  40
BRANCH  38  50
ATOM     50  O   UNL     1       0.454  -3.936  27.569  0.00  0.00    -0.506 OA
ATOM     51  H   UNL     1       0.907  -3.595  28.359  0.00  0.00    +0.292 HD
ENDBRANCH  38  50
BRANCH  35  52
ATOM     52  O   UNL     1       0.711  -8.623  26.989  0.00  0.00    -0.507 OA
ATOM     53  H   UNL     1      -0.152  -8.525  27.425  0.00  0.00    +0.292 HD
ENDBRANCH  35  52
ENDBRANCH  28  29
ENDBRANCH  16  28
ENDBRANCH  14  15
ENDBRANCH   2  14
BRANCH   1  54
ATOM     54  O   UNL     1       8.323   3.725  25.011  0.00  0.00    -0.338 OA
BRANCH  54  57
ATOM     55  C   UNL     1       5.667   6.211  24.683  0.00  0.00    +0.190 C 
ATOM     56  O   UNL     1       7.032   5.670  24.517  0.00  0.00    -0.339 OA
ATOM     57  C   UNL     1       7.288   4.599  25.461  0.00  0.00    +0.282 C 
ATOM     58  C   UNL     1       7.531   5.241  26.836  0.00  0.00    +0.201 C 
ATOM     59  C   UNL     1       6.203   5.859  27.259  0.00  0.00    +0.179 C 
ATOM     60  C   UNL     1       5.564   6.737  26.153  0.00  0.00    +0.178 C 
BRANCH  60  61
ATOM     61  O   UNL     1       4.251   7.108  26.559  0.00  0.00    -0.386 OA
ATOM     62  H   UNL     1       4.367   7.991  26.984  0.00  0.00    +0.210 HD
ENDBRANCH  60  61
BRANCH  59  63
ATOM     63  O   UNL     1       6.400   6.666  28.439  0.00  0.00    -0.386 OA
ATOM     64  H   UNL     1       5.527   7.082  28.628  0.00  0.00    +0.210 HD
ENDBRANCH  59  63
BRANCH  58  65
ATOM     65  O   UNL     1       8.543   6.268  26.811  0.00  0.00    -0.384 OA
ATOM     66  H   UNL     1       8.146   7.072  27.202  0.00  0.00    +0.210 HD
ENDBRANCH  58  65
BRANCH  55  67
ATOM     67  C   UNL     1       4.663   5.218  23.962  0.00  0.00    +0.266 C 
BRANCH  67  68
ATOM     68  O   UNL     1       3.457   4.683  24.607  0.00  0.00    -0.459 OA
BRANCH  68  69
ATOM     69  C   UNL     1       2.788   3.737  23.874  0.00  0.00    +0.332 C 
ATOM     70  O   UNL     1       2.486   2.631  24.320  0.00  0.00    -0.246 OA
BRANCH  69  72
ATOM     71  C   UNL     1       2.154   5.171  21.760  0.00  0.00    +0.015 C 
ATOM     72  C   UNL     1       2.412   4.037  22.443  0.00  0.00    +0.092 C 
BRANCH  71  74
ATOM     73  C   UNL     1       1.562   4.205  19.426  0.00  0.00    +0.011 A 
ATOM     74  C   UNL     1       1.906   5.282  20.273  0.00  0.00    -0.025 A 
ATOM     75  C   UNL     1       2.127   6.519  19.653  0.00  0.00    +0.011 A 
ATOM     76  C   UNL     1       2.013   6.690  18.259  0.00  0.00    +0.046 A 
ATOM     77  C   UNL     1       1.696   5.613  17.446  0.00  0.00    +0.117 A 
ATOM     78  C   UNL     1       1.459   4.369  18.020  0.00  0.00    +0.046 A 
BRANCH  77  79
ATOM     79  O   UNL     1       1.641   5.821  16.098  0.00  0.00    -0.507 OA
ATOM     80  H   UNL     1       2.187   5.163  15.639  0.00  0.00    +0.292 HD
ENDBRANCH  77  79
ENDBRANCH  71  74
ENDBRANCH  69  72
ENDBRANCH  68  69
ENDBRANCH  67  68
ENDBRANCH  55  67
ENDBRANCH  54  57
ENDBRANCH   1  54
TORSDOF 28
ENDMDL
MODEL 4
REMARK VINA RESULT:      -6.6      1.894      6.223
REMARK  Name = 
REMARK  28 active torsions:
REMARK  status: ('A' for Active; 'I' for Inactive)
REMARK    1  A    between atoms: C_3  and  O_66
REMARK    2  A    between atoms: C_6  and  C_7
REMARK    3  A    between atoms: C_8  and  C_9
REMARK    4  A    between atoms: C_9  and  O_11
REMARK    5  A    between atoms: O_11  and  C_12
REMARK    6  A    between atoms: C_12  and  C_13
REMARK    7  A    between atoms: C_14  and  O_65
REMARK    8  A    between atoms: C_15  and  O_64
REMARK    9  A    between atoms: C_16  and  O_63
REMARK   10  A    between atoms: C_17  and  O_19
REMARK   11  A    between atoms: O_19  and  C_20
REMARK   12  A    between atoms: C_21  and  O_62
REMARK   13  A    between atoms: C_22  and  O_61
REMARK   14  A    between atoms: C_23  and  C_59
REMARK   15  A    between atoms: C_25  and  O_26
REMARK   16  A    between atoms: O_26  and  C_27
REMARK   17  A    between atoms: C_28  and  O_58
REMARK   18  A    between atoms: C_29  and  O_57
REMARK   19  A    between atoms: C_30  and  C_55
REMARK   20  A    between atoms: C_32  and  O_33
REMARK   21  A    between atoms: O_33  and  C_34
REMARK   22  A    between atoms: C_35  and  C_47
REMARK   23  A    between atoms: C_39  and  O_46
REMARK   24  A    between atoms: C_41  and  O_45
REMARK   25  A    between atoms: C_49  and  O_54
REMARK   26  A    between atoms: C_50  and  O_53
REMARK   27  A    between atoms: C_55  and  O_56
REMARK   28  A    between atoms: C_59  and  O_60
REMARK                            x       y       z     vdW  Elec       q    Type
REMARK                         _______ _______ _______ _____ _____    ______ ____
ROOT
ATOM      1  C   UNL     1       7.082   1.028  27.606  0.00  0.00    +0.208 C 
ATOM      2  C   UNL     1       5.798   1.688  26.993  0.00  0.00    +0.283 C 
ATOM      3  O   UNL     1       5.758   3.104  27.169  0.00  0.00    -0.341 OA
ATOM      4  C   UNL     1       5.920   3.578  28.506  0.00  0.00    +0.178 C 
ATOM      5  C   UNL     1       7.205   3.038  29.136  0.00  0.00    +0.177 C 
ATOM      6  C   UNL     1       7.237   1.512  29.063  0.00  0.00    +0.179 C 
ENDROOT
BRANCH   6   7
ATOM      7  O   UNL     1       8.407   0.998  29.717  0.00  0.00    -0.386 OA
ATOM      8  H   UNL     1       8.267   1.068  30.685  0.00  0.00    +0.210 HD
ENDBRANCH   6   7
BRANCH   5   9
ATOM      9  O   UNL     1       7.380   3.476  30.485  0.00  0.00    -0.386 OA
ATOM     10  H   UNL     1       6.524   3.792  30.830  0.00  0.00    +0.210 HD
ENDBRANCH   5   9
BRANCH   4  11
ATOM     11  C   UNL     1       4.670   3.330  29.366  0.00  0.00    +0.190 C 
BRANCH  11  12
ATOM     12  O   UNL     1       3.461   3.358  28.606  0.00  0.00    -0.392 OA
ATOM     13  H   UNL     1       2.724   3.192  29.218  0.00  0.00    +0.210 HD
ENDBRANCH  11  12
ENDBRANCH   4  11
BRANCH   2  14
ATOM     14  O   UNL     1       4.601   1.041  27.459  0.00  0.00    -0.337 OA
BRANCH  14  15
ATOM     15  C   UNL     1       4.736  -0.344  27.946  0.00  0.00    +0.221 C 
ATOM     16  C   UNL     1       4.248  -1.335  26.789  0.00  0.00    +0.340 C 
ATOM     17  O   UNL     1       2.842  -1.124  26.530  0.00  0.00    -0.331 OA
ATOM     18  C   UNL     1       1.932  -0.993  27.642  0.00  0.00    +0.179 C 
ATOM     19  C   UNL     1       2.441  -0.186  28.851  0.00  0.00    +0.177 C 
ATOM     20  C   UNL     1       3.871  -0.592  29.194  0.00  0.00    +0.180 C 
BRANCH  20  21
ATOM     21  O   UNL     1       4.329   0.108  30.365  0.00  0.00    -0.386 OA
ATOM     22  H   UNL     1       3.553   0.433  30.856  0.00  0.00    +0.210 HD
ENDBRANCH  20  21
BRANCH  19  23
ATOM     23  O   UNL     1       1.604  -0.274  30.011  0.00  0.00    -0.386 OA
ATOM     24  H   UNL     1       0.760   0.173  29.804  0.00  0.00    +0.210 HD
ENDBRANCH  19  23
BRANCH  18  25
ATOM     25  C   UNL     1       1.339  -2.352  28.031  0.00  0.00    +0.190 C 
BRANCH  25  26
ATOM     26  O   UNL     1       2.138  -3.045  28.979  0.00  0.00    -0.392 OA
ATOM     27  H   UNL     1       2.516  -2.378  29.580  0.00  0.00    +0.210 HD
ENDBRANCH  25  26
ENDBRANCH  18  25
BRANCH  16  28
ATOM     28  O   UNL     1       4.569  -2.735  27.047  0.00  0.00    -0.453 OA
BRANCH  28  29
ATOM     29  C   UNL     1       5.054  -3.618  26.059  0.00  0.00    +0.214 A 
ATOM     30  C   UNL     1       6.207  -3.334  25.158  0.00  0.00    +0.238 A 
ATOM     31  O   UNL     1       7.196  -2.716  25.542  0.00  0.00    -0.283 OA
ATOM     32  C   UNL     1       6.180  -4.016  23.846  0.00  0.00    +0.109 A 
ATOM     33  C   UNL     1       5.611  -5.275  23.805  0.00  0.00    +0.147 A 
ATOM     34  C   UNL     1       5.623  -6.031  22.620  0.00  0.00    +0.092 A 
ATOM     35  C   UNL     1       6.164  -5.478  21.453  0.00  0.00    +0.124 A 
ATOM     36  C   UNL     1       6.689  -4.188  21.476  0.00  0.00    +0.091 A 
ATOM     37  O   UNL     1       5.024  -5.804  24.930  0.00  0.00    -0.451 OA
ATOM     38  C   UNL     1       6.706  -3.456  22.674  0.00  0.00    +0.135 A 
ATOM     39  C   UNL     1       4.629  -4.912  25.941  0.00  0.00    +0.181 A 
BRANCH  39  40
ATOM     40  C   UNL     1       3.688  -5.539  26.901  0.00  0.00    +0.025 A 
ATOM     41  C   UNL     1       2.311  -5.588  26.612  0.00  0.00    +0.015 A 
ATOM     42  C   UNL     1       1.425  -6.283  27.429  0.00  0.00    +0.050 A 
ATOM     43  C   UNL     1       1.905  -6.893  28.573  0.00  0.00    +0.158 A 
ATOM     44  C   UNL     1       3.241  -6.763  28.940  0.00  0.00    +0.159 A 
ATOM     45  C   UNL     1       4.134  -6.071  28.125  0.00  0.00    +0.060 A 
BRANCH  44  46
ATOM     46  O   UNL     1       3.634  -7.365  30.105  0.00  0.00    -0.503 OA
ATOM     47  H   UNL     1       4.035  -8.224  29.891  0.00  0.00    +0.292 HD
ENDBRANCH  44  46
BRANCH  43  48
ATOM     48  O   UNL     1       1.051  -7.634  29.336  0.00  0.00    -0.503 OA
ATOM     49  H   UNL     1       0.656  -6.990  29.957  0.00  0.00    +0.292 HD
ENDBRANCH  43  48
ENDBRANCH  39  40
BRANCH  38  50
ATOM     50  O   UNL     1       7.174  -2.187  22.677  0.00  0.00    -0.506 OA
ATOM     51  H   UNL     1       6.435  -1.564  22.575  0.00  0.00    +0.292 HD
ENDBRANCH  38  50
BRANCH  35  52
ATOM     52  O   UNL     1       6.191  -6.134  20.261  0.00  0.00    -0.507 OA
ATOM     53  H   UNL     1       6.731  -5.647  19.616  0.00  0.00    +0.292 HD
ENDBRANCH  35  52
ENDBRANCH  28  29
ENDBRANCH  16  28
ENDBRANCH  14  15
ENDBRANCH   2  14
BRANCH   1  54
ATOM     54  O   UNL     1       8.211   1.323  26.726  0.00  0.00    -0.338 OA
BRANCH  54  57
ATOM     55  C   UNL     1       6.110   1.116  23.746  0.00  0.00    +0.190 C 
ATOM     56  O   UNL     1       6.720   0.626  24.999  0.00  0.00    -0.339 OA
ATOM     57  C   UNL     1       7.911   1.384  25.332  0.00  0.00    +0.282 C 
ATOM     58  C   UNL     1       9.039   0.908  24.403  0.00  0.00    +0.201 C 
ATOM     59  C   UNL     1       8.646   1.348  22.996  0.00  0.00    +0.179 C 
ATOM     60  C   UNL     1       7.192   0.962  22.626  0.00  0.00    +0.178 C 
BRANCH  60  61
ATOM     61  O   UNL     1       6.852   1.576  21.387  0.00  0.00    -0.386 OA
ATOM     62  H   UNL     1       7.167   0.938  20.703  0.00  0.00    +0.210 HD
ENDBRANCH  60  61
BRANCH  59  63
ATOM     63  O   UNL     1       9.545   0.754  22.036  0.00  0.00    -0.386 OA
ATOM     64  H   UNL     1      10.448   0.857  22.416  0.00  0.00    +0.210 HD
ENDBRANCH  59  63
BRANCH  58  65
ATOM     65  O   UNL     1       9.219  -0.522  24.417  0.00  0.00    -0.384 OA
ATOM     66  H   UNL     1       8.331  -0.923  24.499  0.00  0.00    +0.210 HD
ENDBRANCH  58  65
BRANCH  55  67
ATOM     67  C   UNL     1       5.285   2.425  24.091  0.00  0.00    +0.266 C 
BRANCH  67  68
ATOM     68  O   UNL     1       5.375   3.663  23.306  0.00  0.00    -0.459 OA
BRANCH  68  69
ATOM     69  C   UNL     1       6.021   4.695  23.937  0.00  0.00    +0.332 C 
ATOM     70  O   UNL     1       5.436   5.545  24.605  0.00  0.00    -0.246 OA
BRANCH  69  72
ATOM     71  C   UNL     1       8.464   5.511  24.475  0.00  0.00    +0.015 C 
ATOM     72  C   UNL     1       7.519   4.825  23.802  0.00  0.00    +0.092 C 
BRANCH  71  74
ATOM     73  C   UNL     1      10.889   6.423  24.612  0.00  0.00    +0.011 A 
ATOM     74  C   UNL     1       9.958   5.420  24.262  0.00  0.00    -0.025 A 
ATOM     75  C   UNL     1      10.465   4.309  23.576  0.00  0.00    +0.011 A 
ATOM     76  C   UNL     1      11.830   4.188  23.248  0.00  0.00    +0.046 A 
ATOM     77  C   UNL     1      12.721   5.196  23.584  0.00  0.00    +0.117 A 
ATOM     78  C   UNL     1      12.262   6.313  24.273  0.00  0.00    +0.046 A 
BRANCH  77  79
ATOM     79  O   UNL     1      14.024   5.051  23.206  0.00  0.00    -0.507 OA
ATOM     80  H   UNL     1      14.121   4.265  22.644  0.00  0.00    +0.292 HD
ENDBRANCH  77  79
ENDBRANCH  71  74
ENDBRANCH  69  72
ENDBRANCH  68  69
ENDBRANCH  67  68
ENDBRANCH  55  67
ENDBRANCH  54  57
ENDBRANCH   1  54
TORSDOF 28
ENDMDL
MODEL 5
REMARK VINA RESULT:      -6.5      2.155      9.318
REMARK  Name = 
REMARK  28 active torsions:
REMARK  status: ('A' for Active; 'I' for Inactive)
REMARK    1  A    between atoms: C_3  and  O_66
REMARK    2  A    between atoms: C_6  and  C_7
REMARK    3  A    between atoms: C_8  and  C_9
REMARK    4  A    between atoms: C_9  and  O_11
REMARK    5  A    between atoms: O_11  and  C_12
REMARK    6  A    between atoms: C_12  and  C_13
REMARK    7  A    between atoms: C_14  and  O_65
REMARK    8  A    between atoms: C_15  and  O_64
REMARK    9  A    between atoms: C_16  and  O_63
REMARK   10  A    between atoms: C_17  and  O_19
REMARK   11  A    between atoms: O_19  and  C_20
REMARK   12  A    between atoms: C_21  and  O_62
REMARK   13  A    between atoms: C_22  and  O_61
REMARK   14  A    between atoms: C_23  and  C_59
REMARK   15  A    between atoms: C_25  and  O_26
REMARK   16  A    between atoms: O_26  and  C_27
REMARK   17  A    between atoms: C_28  and  O_58
REMARK   18  A    between atoms: C_29  and  O_57
REMARK   19  A    between atoms: C_30  and  C_55
REMARK   20  A    between atoms: C_32  and  O_33
REMARK   21  A    between atoms: O_33  and  C_34
REMARK   22  A    between atoms: C_35  and  C_47
REMARK   23  A    between atoms: C_39  and  O_46
REMARK   24  A    between atoms: C_41  and  O_45
REMARK   25  A    between atoms: C_49  and  O_54
REMARK   26  A    between atoms: C_50  and  O_53
REMARK   27  A    between atoms: C_55  and  O_56
REMARK   28  A    between atoms: C_59  and  O_60
REMARK                            x       y       z     vdW  Elec       q    Type
REMARK                         _______ _______ _______ _____ _____    ______ ____
ROOT
ATOM      1  C   UNL     1       5.353  -3.820  24.513  0.00  0.00    +0.208 C 
ATOM      2  C   UNL     1       5.769  -2.407  23.975  0.00  0.00    +0.283 C 
ATOM      3  O   UNL     1       6.664  -2.473  22.865  0.00  0.00    -0.341 OA
ATOM      4  C   UNL     1       7.843  -3.255  23.051  0.00  0.00    +0.178 C 
ATOM      5  C   UNL     1       7.504  -4.679  23.495  0.00  0.00    +0.177 C 
ATOM      6  C   UNL     1       6.630  -4.653  24.750  0.00  0.00    +0.179 C 
ENDROOT
BRANCH   6   7
ATOM      7  O   UNL     1       6.368  -5.987  25.211  0.00  0.00    -0.386 OA
ATOM      8  H   UNL     1       7.230  -6.419  25.392  0.00  0.00    +0.210 HD
ENDBRANCH   6   7
BRANCH   5   9
ATOM      9  O   UNL     1       8.667  -5.478  23.715  0.00  0.00    -0.386 OA
ATOM     10  H   UNL     1       9.260  -5.012  24.335  0.00  0.00    +0.210 HD
ENDBRANCH   5   9
BRANCH   4  11
ATOM     11  C   UNL     1       8.863  -2.559  23.967  0.00  0.00    +0.190 C 
BRANCH  11  12
ATOM     12  O   UNL     1      10.205  -2.983  23.723  0.00  0.00    -0.392 OA
ATOM     13  H   UNL     1      10.260  -3.273  22.797  0.00  0.00    +0.210 HD
ENDBRANCH  11  12
ENDBRANCH   4  11
BRANCH   2  14
ATOM     14  O   UNL     1       6.264  -1.567  25.032  0.00  0.00    -0.337 OA
BRANCH  14  15
ATOM     15  C   UNL     1       5.720  -0.198  25.108  0.00  0.00    +0.221 C 
ATOM     16  C   UNL     1       6.945   0.829  25.158  0.00  0.00    +0.340 C 
ATOM     17  O   UNL     1       7.705   0.620  26.369  0.00  0.00    -0.331 OA
ATOM     18  C   UNL     1       7.006   0.445  27.620  0.00  0.00    +0.179 C 
ATOM     19  C   UNL     1       5.720  -0.401  27.571  0.00  0.00    +0.177 C 
ATOM     20  C   UNL     1       4.867   0.001  26.373  0.00  0.00    +0.180 C 
BRANCH  20  21
ATOM     21  O   UNL     1       3.632  -0.737  26.361  0.00  0.00    -0.386 OA
ATOM     22  H   UNL     1       2.927  -0.160  26.017  0.00  0.00    +0.210 HD
ENDBRANCH  20  21
BRANCH  19  23
ATOM     23  O   UNL     1       4.943  -0.358  28.775  0.00  0.00    -0.386 OA
ATOM     24  H   UNL     1       4.790   0.582  28.998  0.00  0.00    +0.210 HD
ENDBRANCH  19  23
BRANCH  18  25
ATOM     25  C   UNL     1       6.820   1.787  28.337  0.00  0.00    +0.190 C 
BRANCH  25  26
ATOM     26  O   UNL     1       5.461   2.199  28.379  0.00  0.00    -0.392 OA
ATOM     27  H   UNL     1       5.196   2.225  29.315  0.00  0.00    +0.210 HD
ENDBRANCH  25  26
ENDBRANCH  18  25
BRANCH  16  28
ATOM     28  O   UNL     1       6.545   2.221  24.977  0.00  0.00    -0.453 OA
BRANCH  28  29
ATOM     29  C   UNL     1       7.425   3.234  24.540  0.00  0.00    +0.214 A 
ATOM     30  C   UNL     1       8.559   3.025  23.596  0.00  0.00    +0.238 A 
ATOM     31  O   UNL     1       8.483   2.243  22.653  0.00  0.00    -0.283 OA
ATOM     32  C   UNL     1       9.694   3.962  23.738  0.00  0.00    +0.109 A 
ATOM     33  C   UNL     1       9.396   5.254  24.128  0.00  0.00    +0.147 A 
ATOM     34  C   UNL     1      10.402   6.232  24.203  0.00  0.00    +0.092 A 
ATOM     35  C   UNL     1      11.730   5.879  23.936  0.00  0.00    +0.124 A 
ATOM     36  C   UNL     1      12.043   4.565  23.596  0.00  0.00    +0.091 A 
ATOM     37  O   UNL     1       8.104   5.597  24.451  0.00  0.00    -0.451 OA
ATOM     38  C   UNL     1      11.025   3.604  23.488  0.00  0.00    +0.135 A 
ATOM     39  C   UNL     1       7.220   4.561  24.798  0.00  0.00    +0.181 A 
BRANCH  39  40
ATOM     40  C   UNL     1       6.005   5.070  25.478  0.00  0.00    +0.025 A 
ATOM     41  C   UNL     1       4.991   5.702  24.735  0.00  0.00    +0.015 A 
ATOM     42  C   UNL     1       3.785   6.072  25.324  0.00  0.00    +0.050 A 
ATOM     43  C   UNL     1       3.607   5.858  26.678  0.00  0.00    +0.158 A 
ATOM     44  C   UNL     1       4.637   5.339  27.457  0.00  0.00    +0.159 A 
ATOM     45  C   UNL     1       5.845   4.964  26.872  0.00  0.00    +0.060 A 
BRANCH  44  46
ATOM     46  O   UNL     1       4.398   5.189  28.796  0.00  0.00    -0.503 OA
ATOM     47  H   UNL     1       3.541   4.744  28.911  0.00  0.00    +0.292 HD
ENDBRANCH  44  46
BRANCH  43  48
ATOM     48  O   UNL     1       2.401   6.154  27.241  0.00  0.00    -0.503 OA
ATOM     49  H   UNL     1       2.289   5.486  27.946  0.00  0.00    +0.292 HD
ENDBRANCH  43  48
ENDBRANCH  39  40
BRANCH  38  50
ATOM     50  O   UNL     1      11.343   2.321  23.204  0.00  0.00    -0.506 OA
ATOM     51  H   UNL     1      12.300   2.187  23.315  0.00  0.00    +0.292 HD
ENDBRANCH  38  50
BRANCH  35  52
ATOM     52  O   UNL     1      12.765   6.760  24.010  0.00  0.00    -0.507 OA
ATOM     53  H   UNL     1      13.464   6.418  24.592  0.00  0.00    +0.292 HD
ENDBRANCH  35  52
ENDBRANCH  28  29
ENDBRANCH  16  28
ENDBRANCH  14  15
ENDBRANCH   2  14
BRANCH   1  54
ATOM     54  O   UNL     1       4.392  -4.401  23.577  0.00  0.00    -0.338 OA
BRANCH  54  57
ATOM     55  C   UNL     1       2.288  -5.712  26.258  0.00  0.00    +0.190 C 
ATOM     56  O   UNL     1       3.562  -5.381  25.587  0.00  0.00    -0.339 OA
ATOM     57  C   UNL     1       3.371  -5.210  24.160  0.00  0.00    +0.282 C 
ATOM     58  C   UNL     1       3.219  -6.609  23.542  0.00  0.00    +0.201 C 
ATOM     59  C   UNL     1       1.903  -7.169  24.072  0.00  0.00    +0.179 C 
ATOM     60  C   UNL     1       1.767  -7.038  25.610  0.00  0.00    +0.178 C 
BRANCH  60  61
ATOM     61  O   UNL     1       0.443  -7.401  25.989  0.00  0.00    -0.386 OA
ATOM     62  H   UNL     1      -0.021  -6.540  26.115  0.00  0.00    +0.210 HD
ENDBRANCH  60  61
BRANCH  59  63
ATOM     63  O   UNL     1       1.790  -8.561  23.710  0.00  0.00    -0.386 OA
ATOM     64  H   UNL     1       2.566  -9.008  24.121  0.00  0.00    +0.210 HD
ENDBRANCH  59  63
BRANCH  58  65
ATOM     65  O   UNL     1       4.291  -7.506  23.898  0.00  0.00    -0.384 OA
ATOM     66  H   UNL     1       3.879  -8.310  24.273  0.00  0.00    +0.210 HD
ENDBRANCH  58  65
BRANCH  55  67
ATOM     67  C   UNL     1       1.473  -4.364  26.440  0.00  0.00    +0.266 C 
BRANCH  67  68
ATOM     68  O   UNL     1       0.443  -4.178  27.470  0.00  0.00    -0.459 OA
BRANCH  68  69
ATOM     69  C   UNL     1       0.899  -3.634  28.643  0.00  0.00    +0.332 C 
ATOM     70  O   UNL     1       1.312  -4.311  29.583  0.00  0.00    -0.246 OA
BRANCH  69  72
ATOM     71  C   UNL     1       1.802  -1.228  29.213  0.00  0.00    +0.015 C 
ATOM     72  C   UNL     1       0.884  -2.134  28.820  0.00  0.00    +0.092 C 
BRANCH  71  74
ATOM     73  C   UNL     1       1.291   1.051  28.084  0.00  0.00    +0.011 A 
ATOM     74  C   UNL     1       1.632   0.274  29.213  0.00  0.00    -0.025 A 
ATOM     75  C   UNL     1       1.930   0.976  30.388  0.00  0.00    +0.011 A 
ATOM     76  C   UNL     1       1.894   2.384  30.451  0.00  0.00    +0.046 A 
ATOM     77  C   UNL     1       1.577   3.125  29.323  0.00  0.00    +0.117 A 
ATOM     78  C   UNL     1       1.266   2.468  28.138  0.00  0.00    +0.046 A 
BRANCH  77  79
ATOM     79  O   UNL     1       1.598   4.486  29.424  0.00  0.00    -0.507 OA
ATOM     80  H   UNL     1       1.981   4.872  28.620  0.00  0.00    +0.292 HD
ENDBRANCH  77  79
ENDBRANCH  71  74
ENDBRANCH  69  72
ENDBRANCH  68  69
ENDBRANCH  67  68
ENDBRANCH  55  67
ENDBRANCH  54  57
ENDBRANCH   1  54
TORSDOF 28
ENDMDL
MODEL 6
REMARK VINA RESULT:      -6.5      2.125      7.234
REMARK  Name = 
REMARK  28 active torsions:
REMARK  status: ('A' for Active; 'I' for Inactive)
REMARK    1  A    between atoms: C_3  and  O_66
REMARK    2  A    between atoms: C_6  and  C_7
REMARK    3  A    between atoms: C_8  and  C_9
REMARK    4  A    between atoms: C_9  and  O_11
REMARK    5  A    between atoms: O_11  and  C_12
REMARK    6  A    between atoms: C_12  and  C_13
REMARK    7  A    between atoms: C_14  and  O_65
REMARK    8  A    between atoms: C_15  and  O_64
REMARK    9  A    between atoms: C_16  and  O_63
REMARK   10  A    between atoms: C_17  and  O_19
REMARK   11  A    between atoms: O_19  and  C_20
REMARK   12  A    between atoms: C_21  and  O_62
REMARK   13  A    between atoms: C_22  and  O_61
REMARK   14  A    between atoms: C_23  and  C_59
REMARK   15  A    between atoms: C_25  and  O_26
REMARK   16  A    between atoms: O_26  and  C_27
REMARK   17  A    between atoms: C_28  and  O_58
REMARK   18  A    between atoms: C_29  and  O_57
REMARK   19  A    between atoms: C_30  and  C_55
REMARK   20  A    between atoms: C_32  and  O_33
REMARK   21  A    between atoms: O_33  and  C_34
REMARK   22  A    between atoms: C_35  and  C_47
REMARK   23  A    between atoms: C_39  and  O_46
REMARK   24  A    between atoms: C_41  and  O_45
REMARK   25  A    between atoms: C_49  and  O_54
REMARK   26  A    between atoms: C_50  and  O_53
REMARK   27  A    between atoms: C_55  and  O_56
REMARK   28  A    between atoms: C_59  and  O_60
REMARK                            x       y       z     vdW  Elec       q    Type
REMARK                         _______ _______ _______ _____ _____    ______ ____
ROOT
ATOM      1  C   UNL     1       5.337  -5.014  26.081  0.00  0.00    +0.208 C 
ATOM      2  C   UNL     1       5.613  -3.906  27.155  0.00  0.00    +0.283 C 
ATOM      3  O   UNL     1       6.428  -4.362  28.234  0.00  0.00    -0.341 OA
ATOM      4  C   UNL     1       5.987  -5.544  28.902  0.00  0.00    +0.178 C 
ATOM      5  C   UNL     1       5.782  -6.696  27.917  0.00  0.00    +0.177 C 
ATOM      6  C   UNL     1       4.826  -6.280  26.799  0.00  0.00    +0.179 C 
ENDROOT
BRANCH   6   7
ATOM      7  O   UNL     1       4.574  -7.381  25.913  0.00  0.00    -0.386 OA
ATOM      8  H   UNL     1       5.080  -8.155  26.242  0.00  0.00    +0.210 HD
ENDBRANCH   6   7
BRANCH   5   9
ATOM      9  O   UNL     1       5.315  -7.886  28.555  0.00  0.00    -0.386 OA
ATOM     10  H   UNL     1       4.969  -7.659  29.438  0.00  0.00    +0.210 HD
ENDBRANCH   5   9
BRANCH   4  11
ATOM     11  C   UNL     1       4.765  -5.284  29.797  0.00  0.00    +0.190 C 
BRANCH  11  12
ATOM     12  O   UNL     1       4.833  -4.028  30.475  0.00  0.00    -0.392 OA
ATOM     13  H   UNL     1       4.905  -4.211  31.427  0.00  0.00    +0.210 HD
ENDBRANCH  11  12
ENDBRANCH   4  11
BRANCH   2  14
ATOM     14  O   UNL     1       4.390  -3.298  27.608  0.00  0.00    -0.337 OA
BRANCH  14  15
ATOM     15  C   UNL     1       4.175  -1.884  27.250  0.00  0.00    +0.221 C 
ATOM     16  C   UNL     1       4.935  -0.971  28.322  0.00  0.00    +0.340 C 
ATOM     17  O   UNL     1       4.345  -1.161  29.627  0.00  0.00    -0.331 OA
ATOM     18  C   UNL     1       2.908  -1.181  29.756  0.00  0.00    +0.179 C 
ATOM     19  C   UNL     1       2.132  -1.907  28.642  0.00  0.00    +0.177 C 
ATOM     20  C   UNL     1       2.681  -1.517  27.273  0.00  0.00    +0.180 C 
BRANCH  20  21
ATOM     21  O   UNL     1       1.915  -2.138  26.225  0.00  0.00    -0.386 OA
ATOM     22  H   UNL     1       0.974  -1.925  26.359  0.00  0.00    +0.210 HD
ENDBRANCH  20  21
BRANCH  19  23
ATOM     23  O   UNL     1       0.713  -1.706  28.687  0.00  0.00    -0.386 OA
ATOM     24  H   UNL     1       0.398  -1.592  27.769  0.00  0.00    +0.210 HD
ENDBRANCH  19  23
BRANCH  18  25
ATOM     25  C   UNL     1       2.364   0.221  30.056  0.00  0.00    +0.190 C 
BRANCH  25  26
ATOM     26  O   UNL     1       2.183   0.999  28.881  0.00  0.00    -0.392 OA
ATOM     27  H   UNL     1       3.066   1.280  28.583  0.00  0.00    +0.210 HD
ENDBRANCH  25  26
ENDBRANCH  18  25
BRANCH  16  28
ATOM     28  O   UNL     1       5.014   0.435  27.938  0.00  0.00    -0.453 OA
BRANCH  28  29
ATOM     29  C   UNL     1       5.885   0.923  26.942  0.00  0.00    +0.214 A 
ATOM     30  C   UNL     1       6.734   0.069  26.063  0.00  0.00    +0.238 A 
ATOM     31  O   UNL     1       6.345  -1.015  25.639  0.00  0.00    -0.283 OA
ATOM     32  C   UNL     1       7.977   0.697  25.565  0.00  0.00    +0.109 A 
ATOM     33  C   UNL     1       7.939   2.057  25.319  0.00  0.00    +0.147 A 
ATOM     34  C   UNL     1       9.046   2.718  24.762  0.00  0.00    +0.092 A 
ATOM     35  C   UNL     1      10.222   2.002  24.508  0.00  0.00    +0.124 A 
ATOM     36  C   UNL     1      10.284   0.642  24.806  0.00  0.00    +0.091 A 
ATOM     37  O   UNL     1       6.809   2.781  25.620  0.00  0.00    -0.451 OA
ATOM     38  C   UNL     1       9.159  -0.016  25.328  0.00  0.00    +0.135 A 
ATOM     39  C   UNL     1       5.910   2.233  26.550  0.00  0.00    +0.181 A 
BRANCH  39  40
ATOM     40  C   UNL     1       4.959   3.245  27.068  0.00  0.00    +0.025 A 
ATOM     41  C   UNL     1       3.781   3.538  26.356  0.00  0.00    +0.015 A 
ATOM     42  C   UNL     1       2.809   4.386  26.881  0.00  0.00    +0.050 A 
ATOM     43  C   UNL     1       3.035   4.988  28.104  0.00  0.00    +0.158 A 
ATOM     44  C   UNL     1       4.240   4.803  28.776  0.00  0.00    +0.159 A 
ATOM     45  C   UNL     1       5.215   3.954  28.256  0.00  0.00    +0.060 A 
BRANCH  44  46
ATOM     46  O   UNL     1       4.405   5.462  29.964  0.00  0.00    -0.503 OA
ATOM     47  H   UNL     1       3.921   4.979  30.656  0.00  0.00    +0.292 HD
ENDBRANCH  44  46
BRANCH  43  48
ATOM     48  O   UNL     1       2.054   5.761  28.653  0.00  0.00    -0.503 OA
ATOM     49  H   UNL     1       1.886   5.359  29.528  0.00  0.00    +0.292 HD
ENDBRANCH  43  48
ENDBRANCH  39  40
BRANCH  38  50
ATOM     50  O   UNL     1       9.242  -1.325  25.658  0.00  0.00    -0.506 OA
ATOM     51  H   UNL     1       8.738  -1.491  26.473  0.00  0.00    +0.292 HD
ENDBRANCH  38  50
BRANCH  35  52
ATOM     52  O   UNL     1      11.346   2.571  23.993  0.00  0.00    -0.507 OA
ATOM     53  H   UNL     1      11.114   3.265  23.352  0.00  0.00    +0.292 HD
ENDBRANCH  35  52
ENDBRANCH  28  29
ENDBRANCH  16  28
ENDBRANCH  14  15
ENDBRANCH   2  14
BRANCH   1  54
ATOM     54  O   UNL     1       6.553  -5.194  25.288  0.00  0.00    -0.338 OA
BRANCH  54  57
ATOM     55  C   UNL     1       6.170  -3.217  22.242  0.00  0.00    +0.190 C 
ATOM     56  O   UNL     1       5.815  -3.679  23.599  0.00  0.00    -0.339 OA
ATOM     57  C   UNL     1       6.416  -4.967  23.885  0.00  0.00    +0.282 C 
ATOM     58  C   UNL     1       5.606  -6.034  23.132  0.00  0.00    +0.201 C 
ATOM     59  C   UNL     1       5.849  -5.784  21.647  0.00  0.00    +0.179 C 
ATOM     60  C   UNL     1       5.647  -4.302  21.242  0.00  0.00    +0.178 C 
BRANCH  60  61
ATOM     61  O   UNL     1       6.081  -4.127  19.898  0.00  0.00    -0.386 OA
ATOM     62  H   UNL     1       7.036  -3.896  19.976  0.00  0.00    +0.210 HD
ENDBRANCH  60  61
BRANCH  59  63
ATOM     63  O   UNL     1       4.956  -6.606  20.866  0.00  0.00    -0.386 OA
ATOM     64  H   UNL     1       4.064  -6.201  20.965  0.00  0.00    +0.210 HD
ENDBRANCH  59  63
BRANCH  58  65
ATOM     65  O   UNL     1       4.190  -5.963  23.396  0.00  0.00    -0.384 OA
ATOM     66  H   UNL     1       3.869  -6.883  23.488  0.00  0.00    +0.210 HD
ENDBRANCH  58  65
BRANCH  55  67
ATOM     67  C   UNL     1       7.637  -2.617  22.303  0.00  0.00    +0.266 C 
BRANCH  67  68
ATOM     68  O   UNL     1       7.943  -1.291  22.854  0.00  0.00    -0.459 OA
BRANCH  68  69
ATOM     69  C   UNL     1       8.404  -0.383  21.937  0.00  0.00    +0.332 C 
ATOM     70  O   UNL     1       9.278  -0.646  21.112  0.00  0.00    -0.246 OA
BRANCH  69  72
ATOM     71  C   UNL     1       6.638   1.546  22.233  0.00  0.00    +0.015 C 
ATOM     72  C   UNL     1       7.842   1.019  21.933  0.00  0.00    +0.092 C 
BRANCH  71  74
ATOM     73  C   UNL     1       7.212   4.071  22.086  0.00  0.00    +0.011 A 
ATOM     74  C   UNL     1       6.294   3.017  22.283  0.00  0.00    -0.025 A 
ATOM     75  C   UNL     1       4.992   3.383  22.651  0.00  0.00    +0.011 A 
ATOM     76  C   UNL     1       4.610   4.729  22.818  0.00  0.00    +0.046 A 
ATOM     77  C   UNL     1       5.535   5.745  22.639  0.00  0.00    +0.117 A 
ATOM     78  C   UNL     1       6.836   5.428  22.265  0.00  0.00    +0.046 A 
BRANCH  77  79
ATOM     79  O   UNL     1       5.126   7.029  22.855  0.00  0.00    -0.507 OA
ATOM     80  H   UNL     1       4.229   7.034  23.225  0.00  0.00    +0.292 HD
ENDBRANCH  77  79
ENDBRANCH  71  74
ENDBRANCH  69  72
ENDBRANCH  68  69
ENDBRANCH  67  68
ENDBRANCH  55  67
ENDBRANCH  54  57
ENDBRANCH   1  54
TORSDOF 28
ENDMDL
MODEL 7
REMARK VINA RESULT:      -6.2      3.022      9.367
REMARK  Name = 
REMARK  28 active torsions:
REMARK  status: ('A' for Active; 'I' for Inactive)
REMARK    1  A    between atoms: C_3  and  O_66
REMARK    2  A    between atoms: C_6  and  C_7
REMARK    3  A    between atoms: C_8  and  C_9
REMARK    4  A    between atoms: C_9  and  O_11
REMARK    5  A    between atoms: O_11  and  C_12
REMARK    6  A    between atoms: C_12  and  C_13
REMARK    7  A    between atoms: C_14  and  O_65
REMARK    8  A    between atoms: C_15  and  O_64
REMARK    9  A    between atoms: C_16  and  O_63
REMARK   10  A    between atoms: C_17  and  O_19
REMARK   11  A    between atoms: O_19  and  C_20
REMARK   12  A    between atoms: C_21  and  O_62
REMARK   13  A    between atoms: C_22  and  O_61
REMARK   14  A    between atoms: C_23  and  C_59
REMARK   15  A    between atoms: C_25  and  O_26
REMARK   16  A    between atoms: O_26  and  C_27
REMARK   17  A    between atoms: C_28  and  O_58
REMARK   18  A    between atoms: C_29  and  O_57
REMARK   19  A    between atoms: C_30  and  C_55
REMARK   20  A    between atoms: C_32  and  O_33
REMARK   21  A    between atoms: O_33  and  C_34
REMARK   22  A    between atoms: C_35  and  C_47
REMARK   23  A    between atoms: C_39  and  O_46
REMARK   24  A    between atoms: C_41  and  O_45
REMARK   25  A    between atoms: C_49  and  O_54
REMARK   26  A    between atoms: C_50  and  O_53
REMARK   27  A    between atoms: C_55  and  O_56
REMARK   28  A    between atoms: C_59  and  O_60
REMARK                            x       y       z     vdW  Elec       q    Type
REMARK                         _______ _______ _______ _____ _____    ______ ____
ROOT
ATOM      1  C   UNL     1       5.818   1.421  25.050  0.00  0.00    +0.208 C 
ATOM      2  C   UNL     1       7.295   1.384  25.577  0.00  0.00    +0.283 C 
ATOM      3  O   UNL     1       7.437   0.652  26.794  0.00  0.00    -0.341 OA
ATOM      4  C   UNL     1       6.580   1.040  27.867  0.00  0.00    +0.178 C 
ATOM      5  C   UNL     1       5.110   1.014  27.444  0.00  0.00    +0.177 C 
ATOM      6  C   UNL     1       4.897   1.876  26.200  0.00  0.00    +0.179 C 
ENDROOT
BRANCH   6   7
ATOM      7  O   UNL     1       3.507   1.912  25.842  0.00  0.00    -0.386 OA
ATOM      8  H   UNL     1       3.442   2.217  24.912  0.00  0.00    +0.210 HD
ENDBRANCH   6   7
BRANCH   5   9
ATOM      9  O   UNL     1       4.230   1.424  28.492  0.00  0.00    -0.386 OA
ATOM     10  H   UNL     1       4.573   2.246  28.892  0.00  0.00    +0.210 HD
ENDBRANCH   5   9
BRANCH   4  11
ATOM     11  C   UNL     1       7.008   2.376  28.498  0.00  0.00    +0.190 C 
BRANCH  11  12
ATOM     12  O   UNL     1       7.913   2.207  29.589  0.00  0.00    -0.392 OA
ATOM     13  H   UNL     1       7.620   1.433  30.099  0.00  0.00    +0.210 HD
ENDBRANCH  11  12
ENDBRANCH   4  11
BRANCH   2  14
ATOM     14  O   UNL     1       7.856   2.706  25.661  0.00  0.00    -0.337 OA
BRANCH  14  15
ATOM     15  C   UNL     1       6.944   3.836  25.406  0.00  0.00    +0.221 C 
ATOM     16  C   UNL     1       6.532   3.813  23.860  0.00  0.00    +0.340 C 
ATOM     17  O   UNL     1       7.703   4.033  23.042  0.00  0.00    -0.331 OA
ATOM     18  C   UNL     1       8.633   5.075  23.407  0.00  0.00    +0.179 C 
ATOM     19  C   UNL     1       8.920   5.238  24.911  0.00  0.00    +0.177 C 
ATOM     20  C   UNL     1       7.620   5.186  25.707  0.00  0.00    +0.180 C 
BRANCH  20  21
ATOM     21  O   UNL     1       7.874   5.407  27.106  0.00  0.00    -0.386 OA
ATOM     22  H   UNL     1       7.152   5.005  27.621  0.00  0.00    +0.210 HD
ENDBRANCH  20  21
BRANCH  19  23
ATOM     23  O   UNL     1       9.662   6.418  25.242  0.00  0.00    -0.386 OA
ATOM     24  H   UNL     1       9.179   7.186  24.879  0.00  0.00    +0.210 HD
ENDBRANCH  19  23
BRANCH  18  25
ATOM     25  C   UNL     1       8.280   6.395  22.713  0.00  0.00    +0.190 C 
BRANCH  25  26
ATOM     26  O   UNL     1       7.522   6.203  21.526  0.00  0.00    -0.392 OA
ATOM     27  H   UNL     1       7.025   7.024  21.365  0.00  0.00    +0.210 HD
ENDBRANCH  25  26
ENDBRANCH  18  25
BRANCH  16  28
ATOM     28  O   UNL     1       5.438   4.722  23.535  0.00  0.00    -0.453 OA
BRANCH  28  29
ATOM     29  C   UNL     1       4.370   5.001  24.414  0.00  0.00    +0.214 A 
ATOM     30  C   UNL     1       4.513   5.666  25.740  0.00  0.00    +0.238 A 
ATOM     31  O   UNL     1       5.323   6.569  25.931  0.00  0.00    -0.283 OA
ATOM     32  C   UNL     1       3.484   5.322  26.746  0.00  0.00    +0.109 A 
ATOM     33  C   UNL     1       2.210   5.062  26.277  0.00  0.00    +0.147 A 
ATOM     34  C   UNL     1       1.153   4.813  27.168  0.00  0.00    +0.092 A 
ATOM     35  C   UNL     1       1.406   4.769  28.545  0.00  0.00    +0.124 A 
ATOM     36  C   UNL     1       2.699   4.976  29.019  0.00  0.00    +0.091 A 
ATOM     37  O   UNL     1       1.963   5.043  24.924  0.00  0.00    -0.451 OA
ATOM     38  C   UNL     1       3.741   5.261  28.122  0.00  0.00    +0.135 A 
ATOM     39  C   UNL     1       3.057   4.852  24.063  0.00  0.00    +0.181 A 
BRANCH  39  40
ATOM     40  C   UNL     1       2.629   4.475  22.694  0.00  0.00    +0.025 A 
ATOM     41  C   UNL     1       2.618   5.435  21.666  0.00  0.00    +0.015 A 
ATOM     42  C   UNL     1       2.347   5.082  20.348  0.00  0.00    +0.050 A 
ATOM     43  C   UNL     1       2.033   3.768  20.057  0.00  0.00    +0.158 A 
ATOM     44  C   UNL     1       1.926   2.822  21.072  0.00  0.00    +0.159 A 
ATOM     45  C   UNL     1       2.199   3.169  22.393  0.00  0.00    +0.060 A 
BRANCH  44  46
ATOM     46  O   UNL     1       1.575   1.549  20.711  0.00  0.00    -0.503 OA
ATOM     47  H   UNL     1       0.625   1.536  20.504  0.00  0.00    +0.292 HD
ENDBRANCH  44  46
BRANCH  43  48
ATOM     48  O   UNL     1       1.837   3.406  18.757  0.00  0.00    -0.503 OA
ATOM     49  H   UNL     1       2.319   2.561  18.662  0.00  0.00    +0.292 HD
ENDBRANCH  43  48
ENDBRANCH  39  40
BRANCH  38  50
ATOM     50  O   UNL     1       5.002   5.413  28.586  0.00  0.00    -0.506 OA
ATOM     51  H   UNL     1       5.628   4.968  27.990  0.00  0.00    +0.292 HD
ENDBRANCH  38  50
BRANCH  35  52
ATOM     52  O   UNL     1       0.443   4.511  29.472  0.00  0.00    -0.507 OA
ATOM     53  H   UNL     1      -0.354   5.038  29.292  0.00  0.00    +0.292 HD
ENDBRANCH  35  52
ENDBRANCH  28  29
ENDBRANCH  16  28
ENDBRANCH  14  15
ENDBRANCH   2  14
BRANCH   1  54
ATOM     54  O   UNL     1       5.505   0.113  24.478  0.00  0.00    -0.338 OA
BRANCH  54  57
ATOM     55  C   UNL     1       8.151  -0.079  21.969  0.00  0.00    +0.190 C 
ATOM     56  O   UNL     1       6.782   0.173  22.464  0.00  0.00    -0.339 OA
ATOM     57  C   UNL     1       6.551  -0.501  23.727  0.00  0.00    +0.282 C 
ATOM     58  C   UNL     1       6.344  -1.994  23.425  0.00  0.00    +0.201 C 
ATOM     59  C   UNL     1       7.684  -2.516  22.914  0.00  0.00    +0.179 C 
ATOM     60  C   UNL     1       8.293  -1.628  21.799  0.00  0.00    +0.178 C 
BRANCH  60  61
ATOM     61  O   UNL     1       9.616  -2.076  21.525  0.00  0.00    -0.386 OA
ATOM     62  H   UNL     1       9.688  -2.039  20.542  0.00  0.00    +0.210 HD
ENDBRANCH  60  61
BRANCH  59  63
ATOM     63  O   UNL     1       7.518  -3.856  22.406  0.00  0.00    -0.386 OA
ATOM     64  H   UNL     1       8.425  -4.174  22.189  0.00  0.00    +0.210 HD
ENDBRANCH  59  63
BRANCH  58  65
ATOM     65  O   UNL     1       5.332  -2.235  22.426  0.00  0.00    -0.384 OA
ATOM     66  H   UNL     1       5.284  -1.434  21.867  0.00  0.00    +0.210 HD
ENDBRANCH  58  65
BRANCH  55  67
ATOM     67  C   UNL     1       9.135   0.879  22.760  0.00  0.00    +0.266 C 
BRANCH  67  68
ATOM     68  O   UNL     1      10.480   0.475  23.189  0.00  0.00    -0.459 OA
BRANCH  68  69
ATOM     69  C   UNL     1      10.564   0.059  24.493  0.00  0.00    +0.332 C 
ATOM     70  O   UNL     1      11.196   0.669  25.354  0.00  0.00    -0.246 OA
BRANCH  69  72
ATOM     71  C   UNL     1       9.343  -1.658  26.069  0.00  0.00    +0.015 C 
ATOM     72  C   UNL     1       9.871  -1.216  24.910  0.00  0.00    +0.092 C 
BRANCH  71  74
ATOM     73  C   UNL     1       9.043  -4.232  25.938  0.00  0.00    +0.011 A 
ATOM     74  C   UNL     1       8.570  -2.942  26.266  0.00  0.00    -0.025 A 
ATOM     75  C   UNL     1       7.245  -2.858  26.713  0.00  0.00    +0.011 A 
ATOM     76  C   UNL     1       6.420  -3.995  26.833  0.00  0.00    +0.046 A 
ATOM     77  C   UNL     1       6.900  -5.247  26.484  0.00  0.00    +0.117 A 
ATOM     78  C   UNL     1       8.213  -5.378  26.045  0.00  0.00    +0.046 A 
BRANCH  77  79
ATOM     79  O   UNL     1       6.049  -6.310  26.577  0.00  0.00    -0.507 OA
ATOM     80  H   UNL     1       6.195  -6.779  27.414  0.00  0.00    +0.292 HD
ENDBRANCH  77  79
ENDBRANCH  71  74
ENDBRANCH  69  72
ENDBRANCH  68  69
ENDBRANCH  67  68
ENDBRANCH  55  67
ENDBRANCH  54  57
ENDBRANCH   1  54
TORSDOF 28
ENDMDL
MODEL 8
REMARK VINA RESULT:      -6.0      2.723      9.806
REMARK  Name = 
REMARK  28 active torsions:
REMARK  status: ('A' for Active; 'I' for Inactive)
REMARK    1  A    between atoms: C_3  and  O_66
REMARK    2  A    between atoms: C_6  and  C_7
REMARK    3  A    between atoms: C_8  and  C_9
REMARK    4  A    between atoms: C_9  and  O_11
REMARK    5  A    between atoms: O_11  and  C_12
REMARK    6  A    between atoms: C_12  and  C_13
REMARK    7  A    between atoms: C_14  and  O_65
REMARK    8  A    between atoms: C_15  and  O_64
REMARK    9  A    between atoms: C_16  and  O_63
REMARK   10  A    between atoms: C_17  and  O_19
REMARK   11  A    between atoms: O_19  and  C_20
REMARK   12  A    between atoms: C_21  and  O_62
REMARK   13  A    between atoms: C_22  and  O_61
REMARK   14  A    between atoms: C_23  and  C_59
REMARK   15  A    between atoms: C_25  and  O_26
REMARK   16  A    between atoms: O_26  and  C_27
REMARK   17  A    between atoms: C_28  and  O_58
REMARK   18  A    between atoms: C_29  and  O_57
REMARK   19  A    between atoms: C_30  and  C_55
REMARK   20  A    between atoms: C_32  and  O_33
REMARK   21  A    between atoms: O_33  and  C_34
REMARK   22  A    between atoms: C_35  and  C_47
REMARK   23  A    between atoms: C_39  and  O_46
REMARK   24  A    between atoms: C_41  and  O_45
REMARK   25  A    between atoms: C_49  and  O_54
REMARK   26  A    between atoms: C_50  and  O_53
REMARK   27  A    between atoms: C_55  and  O_56
REMARK   28  A    between atoms: C_59  and  O_60
REMARK                            x       y       z     vdW  Elec       q    Type
REMARK                         _______ _______ _______ _____ _____    ______ ____
ROOT
ATOM      1  C   UNL     1       5.072   1.299  26.072  0.00  0.00    +0.208 C 
ATOM      2  C   UNL     1       6.223   1.040  27.105  0.00  0.00    +0.283 C 
ATOM      3  O   UNL     1       6.133  -0.237  27.736  0.00  0.00    -0.341 OA
ATOM      4  C   UNL     1       4.886  -0.547  28.357  0.00  0.00    +0.178 C 
ATOM      5  C   UNL     1       3.722  -0.398  27.375  0.00  0.00    +0.177 C 
ATOM      6  C   UNL     1       3.721   0.999  26.755  0.00  0.00    +0.179 C 
ENDROOT
BRANCH   6   7
ATOM      7  O   UNL     1       2.590   1.166  25.887  0.00  0.00    -0.386 OA
ATOM      8  H   UNL     1       2.828   0.804  25.007  0.00  0.00    +0.210 HD
ENDBRANCH   6   7
BRANCH   5   9
ATOM      9  O   UNL     1       2.457  -0.678  27.976  0.00  0.00    -0.386 OA
ATOM     10  H   UNL     1       1.858   0.078  27.823  0.00  0.00    +0.210 HD
ENDBRANCH   5   9
BRANCH   4  11
ATOM     11  C   UNL     1       4.679   0.231  29.666  0.00  0.00    +0.190 C 
BRANCH  11  12
ATOM     12  O   UNL     1       3.605   1.169  29.589  0.00  0.00    -0.392 OA
ATOM     13  H   UNL     1       3.239   1.126  28.689  0.00  0.00    +0.210 HD
ENDBRANCH  11  12
ENDBRANCH   4  11
BRANCH   2  14
ATOM     14  O   UNL     1       6.329   2.116  28.054  0.00  0.00    -0.337 OA
BRANCH  14  15
ATOM     15  C   UNL     1       6.094   3.481  27.546  0.00  0.00    +0.221 C 
ATOM     16  C   UNL     1       7.404   4.355  27.824  0.00  0.00    +0.340 C 
ATOM     17  O   UNL     1       7.614   4.475  29.249  0.00  0.00    -0.331 OA
ATOM     18  C   UNL     1       6.492   4.774  30.105  0.00  0.00    +0.179 C 
ATOM     19  C   UNL     1       5.163   4.077  29.757  0.00  0.00    +0.177 C 
ATOM     20  C   UNL     1       4.904   4.150  28.256  0.00  0.00    +0.180 C 
BRANCH  20  21
ATOM     21  O   UNL     1       3.631   3.562  27.933  0.00  0.00    -0.386 OA
ATOM     22  H   UNL     1       3.687   2.600  28.073  0.00  0.00    +0.210 HD
ENDBRANCH  20  21
BRANCH  19  23
ATOM     23  O   UNL     1       4.032   4.573  30.484  0.00  0.00    -0.386 OA
ATOM     24  H   UNL     1       3.764   3.885  31.125  0.00  0.00    +0.210 HD
ENDBRANCH  19  23
BRANCH  18  25
ATOM     25  C   UNL     1       6.344   6.286  30.312  0.00  0.00    +0.190 C 
BRANCH  25  26
ATOM     26  O   UNL     1       5.458   6.881  29.375  0.00  0.00    -0.392 OA
ATOM     27  H   UNL     1       5.713   6.560  28.491  0.00  0.00    +0.210 HD
ENDBRANCH  25  26
ENDBRANCH  18  25
BRANCH  16  28
ATOM     28  O   UNL     1       7.397   5.646  27.144  0.00  0.00    -0.453 OA
BRANCH  28  29
ATOM     29  C   UNL     1       6.667   5.902  25.964  0.00  0.00    +0.214 A 
ATOM     30  C   UNL     1       5.210   6.209  25.916  0.00  0.00    +0.238 A 
ATOM     31  O   UNL     1       4.660   6.886  26.780  0.00  0.00    -0.283 OA
ATOM     32  C   UNL     1       4.515   5.832  24.667  0.00  0.00    +0.109 A 
ATOM     33  C   UNL     1       5.241   5.917  23.494  0.00  0.00    +0.147 A 
ATOM     34  C   UNL     1       4.634   5.662  22.252  0.00  0.00    +0.092 A 
ATOM     35  C   UNL     1       3.293   5.260  22.208  0.00  0.00    +0.124 A 
ATOM     36  C   UNL     1       2.572   5.119  23.392  0.00  0.00    +0.091 A 
ATOM     37  O   UNL     1       6.574   6.252  23.530  0.00  0.00    -0.451 OA
ATOM     38  C   UNL     1       3.178   5.413  24.624  0.00  0.00    +0.135 A 
ATOM     39  C   UNL     1       7.260   6.073  24.744  0.00  0.00    +0.181 A 
BRANCH  39  40
ATOM     40  C   UNL     1       8.731   6.101  24.561  0.00  0.00    +0.025 A 
ATOM     41  C   UNL     1       9.501   7.108  25.173  0.00  0.00    +0.015 A 
ATOM     42  C   UNL     1      10.892   7.085  25.126  0.00  0.00    +0.050 A 
ATOM     43  C   UNL     1      11.522   6.078  24.420  0.00  0.00    +0.158 A 
ATOM     44  C   UNL     1      10.782   5.135  23.712  0.00  0.00    +0.159 A 
ATOM     45  C   UNL     1       9.390   5.152  23.757  0.00  0.00    +0.060 A 
BRANCH  44  46
ATOM     46  O   UNL     1      11.477   4.191  23.007  0.00  0.00    -0.503 OA
ATOM     47  H   UNL     1      12.343   4.561  22.762  0.00  0.00    +0.292 HD
ENDBRANCH  44  46
BRANCH  43  48
ATOM     48  O   UNL     1      12.884   6.013  24.434  0.00  0.00    -0.503 OA
ATOM     49  H   UNL     1      13.165   6.605  23.707  0.00  0.00    +0.292 HD
ENDBRANCH  43  48
ENDBRANCH  39  40
BRANCH  38  50
ATOM     50  O   UNL     1       2.486   5.228  25.772  0.00  0.00    -0.506 OA
ATOM     51  H   UNL     1       2.011   4.380  25.736  0.00  0.00    +0.292 HD
ENDBRANCH  38  50
BRANCH  35  52
ATOM     52  O   UNL     1       2.639   4.971  21.050  0.00  0.00    -0.507 OA
ATOM     53  H   UNL     1       3.272   4.838  20.325  0.00  0.00    +0.292 HD
ENDBRANCH  35  52
ENDBRANCH  28  29
ENDBRANCH  16  28
ENDBRANCH  14  15
ENDBRANCH   2  14
BRANCH   1  54
ATOM     54  O   UNL     1       5.353   0.515  24.870  0.00  0.00    -0.338 OA
BRANCH  54  57
ATOM     55  C   UNL     1       8.995   0.762  24.792  0.00  0.00    +0.190 C 
ATOM     56  O   UNL     1       7.635   1.084  25.269  0.00  0.00    -0.339 OA
ATOM     57  C   UNL     1       6.636   0.723  24.281  0.00  0.00    +0.282 C 
ATOM     58  C   UNL     1       6.676   1.785  23.171  0.00  0.00    +0.201 C 
ATOM     59  C   UNL     1       8.024   1.624  22.476  0.00  0.00    +0.179 C 
ATOM     60  C   UNL     1       9.213   1.568  23.468  0.00  0.00    +0.178 C 
BRANCH  60  61
ATOM     61  O   UNL     1      10.395   1.224  22.753  0.00  0.00    -0.386 OA
ATOM     62  H   UNL     1      10.066   0.798  21.926  0.00  0.00    +0.210 HD
ENDBRANCH  60  61
BRANCH  59  63
ATOM     63  O   UNL     1       8.230   2.722  21.562  0.00  0.00    -0.386 OA
ATOM     64  H   UNL     1       8.343   3.522  22.126  0.00  0.00    +0.210 HD
ENDBRANCH  59  63
BRANCH  58  65
ATOM     65  O   UNL     1       6.561   3.133  23.671  0.00  0.00    -0.384 OA
ATOM     66  H   UNL     1       6.761   3.102  24.628  0.00  0.00    +0.210 HD
ENDBRANCH  58  65
BRANCH  55  67
ATOM     67  C   UNL     1       9.225  -0.793  25.000  0.00  0.00    +0.266 C 
BRANCH  67  68
ATOM     68  O   UNL     1       9.621  -1.701  23.916  0.00  0.00    -0.459 OA
BRANCH  68  69
ATOM     69  C   UNL     1       9.299  -3.017  24.126  0.00  0.00    +0.332 C 
ATOM     70  O   UNL     1      10.126  -3.868  24.448  0.00  0.00    -0.246 OA
BRANCH  69  72
ATOM     71  C   UNL     1       7.192  -4.587  24.267  0.00  0.00    +0.015 C 
ATOM     72  C   UNL     1       7.871  -3.470  23.938  0.00  0.00    +0.092 C 
BRANCH  71  74
ATOM     73  C   UNL     1       5.122  -5.676  23.144  0.00  0.00    +0.011 A 
ATOM     74  C   UNL     1       5.707  -4.813  24.098  0.00  0.00    -0.025 A 
ATOM     75  C   UNL     1       4.825  -4.043  24.867  0.00  0.00    +0.011 A 
ATOM     76  C   UNL     1       3.427  -4.118  24.707  0.00  0.00    +0.046 A 
ATOM     77  C   UNL     1       2.878  -4.957  23.749  0.00  0.00    +0.117 A 
ATOM     78  C   UNL     1       3.716  -5.746  22.970  0.00  0.00    +0.046 A 
BRANCH  77  79
ATOM     79  O   UNL     1       1.521  -4.961  23.603  0.00  0.00    -0.507 OA
ATOM     80  H   UNL     1       1.287  -4.775  22.680  0.00  0.00    +0.292 HD
ENDBRANCH  77  79
ENDBRANCH  71  74
ENDBRANCH  69  72
ENDBRANCH  68  69
ENDBRANCH  67  68
ENDBRANCH  55  67
ENDBRANCH  54  57
ENDBRANCH   1  54
TORSDOF 28
ENDMDL
MODEL 9
REMARK VINA RESULT:      -5.8      2.419      9.569
REMARK  Name = 
REMARK  28 active torsions:
REMARK  status: ('A' for Active; 'I' for Inactive)
REMARK    1  A    between atoms: C_3  and  O_66
REMARK    2  A    between atoms: C_6  and  C_7
REMARK    3  A    between atoms: C_8  and  C_9
REMARK    4  A    between atoms: C_9  and  O_11
REMARK    5  A    between atoms: O_11  and  C_12
REMARK    6  A    between atoms: C_12  and  C_13
REMARK    7  A    between atoms: C_14  and  O_65
REMARK    8  A    between atoms: C_15  and  O_64
REMARK    9  A    between atoms: C_16  and  O_63
REMARK   10  A    between atoms: C_17  and  O_19
REMARK   11  A    between atoms: O_19  and  C_20
REMARK   12  A    between atoms: C_21  and  O_62
REMARK   13  A    between atoms: C_22  and  O_61
REMARK   14  A    between atoms: C_23  and  C_59
REMARK   15  A    between atoms: C_25  and  O_26
REMARK   16  A    between atoms: O_26  and  C_27
REMARK   17  A    between atoms: C_28  and  O_58
REMARK   18  A    between atoms: C_29  and  O_57
REMARK   19  A    between atoms: C_30  and  C_55
REMARK   20  A    between atoms: C_32  and  O_33
REMARK   21  A    between atoms: O_33  and  C_34
REMARK   22  A    between atoms: C_35  and  C_47
REMARK   23  A    between atoms: C_39  and  O_46
REMARK   24  A    between atoms: C_41  and  O_45
REMARK   25  A    between atoms: C_49  and  O_54
REMARK   26  A    between atoms: C_50  and  O_53
REMARK   27  A    between atoms: C_55  and  O_56
REMARK   28  A    between atoms: C_59  and  O_60
REMARK                            x       y       z     vdW  Elec       q    Type
REMARK                         _______ _______ _______ _____ _____    ______ ____
ROOT
ATOM      1  C   UNL     1       3.209  -1.864  27.902  0.00  0.00    +0.208 C 
ATOM      2  C   UNL     1       3.594  -0.412  28.351  0.00  0.00    +0.283 C 
ATOM      3  O   UNL     1       3.424  -0.195  29.751  0.00  0.00    -0.341 OA
ATOM      4  C   UNL     1       2.139  -0.512  30.287  0.00  0.00    +0.178 C 
ATOM      5  C   UNL     1       1.737  -1.951  29.958  0.00  0.00    +0.177 C 
ATOM      6  C   UNL     1       1.805  -2.193  28.450  0.00  0.00    +0.179 C 
ENDROOT
BRANCH   6   7
ATOM      7  O   UNL     1       1.360  -3.520  28.131  0.00  0.00    -0.386 OA
ATOM      8  H   UNL     1       0.513  -3.676  28.601  0.00  0.00    +0.210 HD
ENDBRANCH   6   7
BRANCH   5   9
ATOM      9  O   UNL     1       0.443  -2.288  30.459  0.00  0.00    -0.386 OA
ATOM     10  H   UNL     1       0.296  -3.245  30.342  0.00  0.00    +0.210 HD
ENDBRANCH   5   9
BRANCH   4  11
ATOM     11  C   UNL     1       1.073   0.523  29.890  0.00  0.00    +0.190 C 
BRANCH  11  12
ATOM     12  O   UNL     1       1.536   1.869  30.011  0.00  0.00    -0.392 OA
ATOM     13  H   UNL     1       0.867   2.367  30.510  0.00  0.00    +0.210 HD
ENDBRANCH  11  12
ENDBRANCH   4  11
BRANCH   2  14
ATOM     14  O   UNL     1       2.922   0.580  27.555  0.00  0.00    -0.337 OA
BRANCH  14  15
ATOM     15  C   UNL     1       3.736   1.300  26.558  0.00  0.00    +0.221 C 
ATOM     16  C   UNL     1       5.078   1.801  27.270  0.00  0.00    +0.340 C 
ATOM     17  O   UNL     1       4.752   2.755  28.305  0.00  0.00    -0.331 OA
ATOM     18  C   UNL     1       3.787   3.792  28.029  0.00  0.00    +0.179 C 
ATOM     19  C   UNL     1       2.561   3.380  27.193  0.00  0.00    +0.177 C 
ATOM     20  C   UNL     1       2.994   2.528  26.004  0.00  0.00    +0.180 C 
BRANCH  20  21
ATOM     21  O   UNL     1       1.861   2.198  25.180  0.00  0.00    -0.386 OA
ATOM     22  H   UNL     1       1.239   1.663  25.705  0.00  0.00    +0.210 HD
ENDBRANCH  20  21
BRANCH  19  23
ATOM     23  O   UNL     1       1.754   4.480  26.754  0.00  0.00    -0.386 OA
ATOM     24  H   UNL     1       1.677   5.109  27.498  0.00  0.00    +0.210 HD
ENDBRANCH  19  23
BRANCH  18  25
ATOM     25  C   UNL     1       4.475   5.059  27.508  0.00  0.00    +0.190 C 
BRANCH  25  26
ATOM     26  O   UNL     1       5.681   5.350  28.201  0.00  0.00    -0.392 OA
ATOM     27  H   UNL     1       5.448   5.908  28.964  0.00  0.00    +0.210 HD
ENDBRANCH  25  26
ENDBRANCH  18  25
BRANCH  16  28
ATOM     28  O   UNL     1       6.081   2.303  26.336  0.00  0.00    -0.453 OA
BRANCH  28  29
ATOM     29  C   UNL     1       6.636   1.526  25.298  0.00  0.00    +0.214 A 
ATOM     30  C   UNL     1       7.005   0.087  25.417  0.00  0.00    +0.238 A 
ATOM     31  O   UNL     1       6.337  -0.702  26.079  0.00  0.00    -0.283 OA
ATOM     32  C   UNL     1       8.094  -0.373  24.528  0.00  0.00    +0.109 A 
ATOM     33  C   UNL     1       8.185   0.225  23.285  0.00  0.00    +0.147 A 
ATOM     34  C   UNL     1       9.132  -0.212  22.345  0.00  0.00    +0.092 A 
ATOM     35  C   UNL     1      10.034  -1.225  22.692  0.00  0.00    +0.124 A 
ATOM     36  C   UNL     1       9.983  -1.794  23.963  0.00  0.00    +0.091 A 
ATOM     37  O   UNL     1       7.344   1.261  22.955  0.00  0.00    -0.451 OA
ATOM     38  C   UNL     1       9.007  -1.375  24.882  0.00  0.00    +0.135 A 
ATOM     39  C   UNL     1       6.731   1.966  24.006  0.00  0.00    +0.181 A 
BRANCH  39  40
ATOM     40  C   UNL     1       6.171   3.263  23.556  0.00  0.00    +0.025 A 
ATOM     41  C   UNL     1       6.908   4.449  23.727  0.00  0.00    +0.015 A 
ATOM     42  C   UNL     1       6.467   5.658  23.198  0.00  0.00    +0.050 A 
ATOM     43  C   UNL     1       5.255   5.698  22.536  0.00  0.00    +0.158 A 
ATOM     44  C   UNL     1       4.454   4.563  22.451  0.00  0.00    +0.159 A 
ATOM     45  C   UNL     1       4.892   3.349  22.976  0.00  0.00    +0.060 A 
BRANCH  44  46
ATOM     46  O   UNL     1       3.250   4.689  21.812  0.00  0.00    -0.503 OA
ATOM     47  H   UNL     1       2.571   4.233  22.337  0.00  0.00    +0.292 HD
ENDBRANCH  44  46
BRANCH  43  48
ATOM     48  O   UNL     1       4.856   6.866  21.956  0.00  0.00    -0.503 OA
ATOM     49  H   UNL     1       4.206   7.242  22.583  0.00  0.00    +0.292 HD
ENDBRANCH  43  48
ENDBRANCH  39  40
BRANCH  38  50
ATOM     50  O   UNL     1       8.994  -1.898  26.129  0.00  0.00    -0.506 OA
ATOM     51  H   UNL     1       9.195  -2.849  26.089  0.00  0.00    +0.292 HD
ENDBRANCH  38  50
BRANCH  35  52
ATOM     52  O   UNL     1      10.997  -1.687  21.849  0.00  0.00    -0.507 OA
ATOM     53  H   UNL     1      11.694  -2.148  22.346  0.00  0.00    +0.292 HD
ENDBRANCH  35  52
ENDBRANCH  28  29
ENDBRANCH  16  28
ENDBRANCH  14  15
ENDBRANCH   2  14
BRANCH   1  54
ATOM     54  O   UNL     1       4.274  -2.771  28.328  0.00  0.00    -0.338 OA
BRANCH  54  57
ATOM     55  C   UNL     1       3.432  -6.118  27.133  0.00  0.00    +0.190 C 
ATOM     56  O   UNL     1       3.750  -5.092  28.147  0.00  0.00    -0.339 OA
ATOM     57  C   UNL     1       4.425  -3.957  27.548  0.00  0.00    +0.282 C 
ATOM     58  C   UNL     1       5.879  -4.374  27.275  0.00  0.00    +0.201 C 
ATOM     59  C   UNL     1       5.820  -5.443  26.189  0.00  0.00    +0.179 C 
ATOM     60  C   UNL     1       4.791  -6.560  26.496  0.00  0.00    +0.178 C 
BRANCH  60  61
ATOM     61  O   UNL     1       4.664  -7.398  25.351  0.00  0.00    -0.386 OA
ATOM     62  H   UNL     1       4.631  -6.770  24.591  0.00  0.00    +0.210 HD
ENDBRANCH  60  61
BRANCH  59  63
ATOM     63  O   UNL     1       7.124  -6.040  26.027  0.00  0.00    -0.386 OA
ATOM     64  H   UNL     1       6.982  -6.849  25.484  0.00  0.00    +0.210 HD
ENDBRANCH  59  63
BRANCH  58  65
ATOM     65  O   UNL     1       6.541  -4.917  28.436  0.00  0.00    -0.384 OA
ATOM     66  H   UNL     1       7.132  -5.630  28.122  0.00  0.00    +0.210 HD
ENDBRANCH  58  65
BRANCH  55  67
ATOM     67  C   UNL     1       2.134  -5.644  26.356  0.00  0.00    +0.266 C 
BRANCH  67  68
ATOM     68  O   UNL     1       1.233  -6.568  25.654  0.00  0.00    -0.459 OA
BRANCH  68  69
ATOM     69  C   UNL     1       1.346  -6.550  24.288  0.00  0.00    +0.332 C 
ATOM     70  O   UNL     1       0.443  -6.911  23.535  0.00  0.00    -0.246 OA
BRANCH  69  72
ATOM     71  C   UNL     1       3.242  -4.891  23.528  0.00  0.00    +0.015 C 
ATOM     72  C   UNL     1       2.638  -6.089  23.657  0.00  0.00    +0.092 C 
BRANCH  71  74
ATOM     73  C   UNL     1       5.451  -5.629  22.386  0.00  0.00    +0.011 A 
ATOM     74  C   UNL     1       4.618  -4.640  22.956  0.00  0.00    -0.025 A 
ATOM     75  C   UNL     1       5.166  -3.357  23.081  0.00  0.00    +0.011 A 
ATOM     76  C   UNL     1       6.479  -3.058  22.664  0.00  0.00    +0.046 A 
ATOM     77  C   UNL     1       7.285  -4.050  22.128  0.00  0.00    +0.117 A 
ATOM     78  C   UNL     1       6.778  -5.336  21.977  0.00  0.00    +0.046 A 
BRANCH  77  79
ATOM     79  O   UNL     1       8.562  -3.720  21.780  0.00  0.00    -0.507 OA
ATOM     80  H   UNL     1       8.656  -3.733  20.813  0.00  0.00    +0.292 HD
ENDBRANCH  77  79
ENDBRANCH  71  74
ENDBRANCH  69  72
ENDBRANCH  68  69
ENDBRANCH  67  68
ENDBRANCH  55  67
ENDBRANCH  54  57
ENDBRANCH   1  54
TORSDOF 28
ENDMDL
