MODEL 1
REMARK VINA RESULT:      -7.6      0.000      0.000
REMARK  Name = 
REMARK  12 active torsions:
REMARK  status: ('A' for Active; 'I' for Inactive)
REMARK    1  A    between atoms: C_1  and  C_2
REMARK    2  A    between atoms: C_2  and  C_4
REMARK    3  A    between atoms: C_2  and  O_37
REMARK    4  A    between atoms: C_6  and  O_36
REMARK    5  A    between atoms: C_8  and  O_35
REMARK    6  A    between atoms: C_10  and  O_13
REMARK    7  A    between atoms: O_13  and  C_14
REMARK    8  A    between atoms: C_15  and  C_27
REMARK    9  A    between atoms: C_19  and  O_26
REMARK   10  A    between atoms: C_21  and  O_25
REMARK   11  A    between atoms: C_29  and  O_34
REMARK   12  A    between atoms: C_30  and  O_33
REMARK                            x       y       z     vdW  Elec       q    Type
REMARK                         _______ _______ _______ _____ _____    ______ ____
ROOT
ATOM      1  C   UNL     1       8.479  -1.788  23.831  0.00  0.00    +0.214 A 
ATOM      2  C   UNL     1       9.072  -0.476  24.297  0.00  0.00    +0.238 A 
ATOM      3  O   UNL     1       9.835  -0.413  25.253  0.00  0.00    -0.283 OA
ATOM      4  C   UNL     1       8.666   0.741  23.588  0.00  0.00    +0.109 A 
ATOM      5  C   UNL     1       7.507   0.667  22.833  0.00  0.00    +0.147 A 
ATOM      6  C   UNL     1       7.023   1.788  22.154  0.00  0.00    +0.092 A 
ATOM      7  C   UNL     1       7.709   2.991  22.260  0.00  0.00    +0.124 A 
ATOM      8  C   UNL     1       8.868   3.089  23.021  0.00  0.00    +0.091 A 
ATOM      9  O   UNL     1       6.758  -0.471  22.761  0.00  0.00    -0.451 OA
ATOM     10  C   UNL     1       9.353   1.958  23.678  0.00  0.00    +0.135 A 
ATOM     11  C   UNL     1       7.295  -1.694  23.177  0.00  0.00    +0.181 A 
ENDROOT
BRANCH  11  12
ATOM     12  C   UNL     1       6.327  -2.796  22.846  0.00  0.00    +0.025 A 
ATOM     13  C   UNL     1       5.203  -2.965  23.692  0.00  0.00    +0.015 A 
ATOM     14  C   UNL     1       4.429  -4.135  23.676  0.00  0.00    +0.050 A 
ATOM     15  C   UNL     1       4.745  -5.132  22.778  0.00  0.00    +0.158 A 
ATOM     16  C   UNL     1       5.786  -4.952  21.868  0.00  0.00    +0.159 A 
ATOM     17  C   UNL     1       6.588  -3.803  21.906  0.00  0.00    +0.060 A 
BRANCH  15  18
ATOM     18  O   UNL     1       4.033  -6.297  22.801  0.00  0.00    -0.503 OA
ATOM     19  H   UNL     1       3.469  -6.258  22.003  0.00  0.00    +0.292 HD
ENDBRANCH  15  18
BRANCH  16  20
ATOM     20  O   UNL     1       6.000  -5.965  20.970  0.00  0.00    -0.503 OA
ATOM     21  H   UNL     1       5.404  -5.813  20.215  0.00  0.00    +0.292 HD
ENDBRANCH  16  20
ENDBRANCH  11  12
BRANCH   7  22
ATOM     22  O   UNL     1       7.277   4.121  21.630  0.00  0.00    -0.507 OA
ATOM     23  H   UNL     1       7.801   4.880  21.937  0.00  0.00    +0.292 HD
ENDBRANCH   7  22
BRANCH  10  24
ATOM     24  O   UNL     1      10.518   2.060  24.384  0.00  0.00    -0.506 OA
ATOM     25  H   UNL     1      10.448   2.776  25.034  0.00  0.00    +0.292 HD
ENDBRANCH  10  24
BRANCH   1  26
ATOM     26  O   UNL     1       9.104  -2.998  24.141  0.00  0.00    -0.453 OA
BRANCH  26  29
ATOM     27  C   UNL     1       7.402  -4.111  26.975  0.00  0.00    +0.182 C 
ATOM     28  O   UNL     1       7.819  -3.003  26.154  0.00  0.00    -0.331 OA
ATOM     29  C   UNL     1       9.086  -3.341  25.547  0.00  0.00    +0.340 C 
ATOM     30  C   UNL     1       9.316  -4.842  25.824  0.00  0.00    +0.214 C 
ATOM     31  C   UNL     1       7.941  -5.339  26.242  0.00  0.00    +0.180 C 
BRANCH  27  33
ATOM     32  C   UNL     1       5.356  -2.621  27.279  0.00  0.00    +0.040 C 
ATOM     33  C   UNL     1       5.881  -4.047  27.198  0.00  0.00    +0.143 C 
BRANCH  33  34
ATOM     34  O   UNL     1       5.533  -4.698  28.428  0.00  0.00    -0.389 OA
ATOM     35  H   UNL     1       5.073  -5.522  28.183  0.00  0.00    +0.210 HD
ENDBRANCH  33  34
ENDBRANCH  27  33
BRANCH  30  36
ATOM     36  O   UNL     1       9.881  -5.576  24.748  0.00  0.00    -0.383 OA
ATOM     37  H   UNL     1       9.872  -6.505  25.059  0.00  0.00    +0.210 HD
ENDBRANCH  30  36
BRANCH  31  38
ATOM     38  O   UNL     1       7.203  -5.689  25.066  0.00  0.00    -0.386 OA
ATOM     39  H   UNL     1       7.848  -5.705  24.321  0.00  0.00    +0.210 HD
ENDBRANCH  31  38
ENDBRANCH  26  29
ENDBRANCH   1  26
TORSDOF 11
ENDMDL
MODEL 2
REMARK VINA RESULT:      -7.2      2.664      5.150
REMARK  Name = 
REMARK  12 active torsions:
REMARK  status: ('A' for Active; 'I' for Inactive)
REMARK    1  A    between atoms: C_1  and  C_2
REMARK    2  A    between atoms: C_2  and  C_4
REMARK    3  A    between atoms: C_2  and  O_37
REMARK    4  A    between atoms: C_6  and  O_36
REMARK    5  A    between atoms: C_8  and  O_35
REMARK    6  A    between atoms: C_10  and  O_13
REMARK    7  A    between atoms: O_13  and  C_14
REMARK    8  A    between atoms: C_15  and  C_27
REMARK    9  A    between atoms: C_19  and  O_26
REMARK   10  A    between atoms: C_21  and  O_25
REMARK   11  A    between atoms: C_29  and  O_34
REMARK   12  A    between atoms: C_30  and  O_33
REMARK                            x       y       z     vdW  Elec       q    Type
REMARK                         _______ _______ _______ _____ _____    ______ ____
ROOT
ATOM      1  C   UNL     1       8.173  -1.789  25.807  0.00  0.00    +0.214 A 
ATOM      2  C   UNL     1       9.108  -1.780  24.617  0.00  0.00    +0.238 A 
ATOM      3  O   UNL     1       9.956  -2.647  24.452  0.00  0.00    -0.283 OA
ATOM      4  C   UNL     1       8.995  -0.661  23.676  0.00  0.00    +0.109 A 
ATOM      5  C   UNL     1       8.348   0.477  24.132  0.00  0.00    +0.147 A 
ATOM      6  C   UNL     1       8.228   1.605  23.318  0.00  0.00    +0.092 A 
ATOM      7  C   UNL     1       8.784   1.584  22.046  0.00  0.00    +0.124 A 
ATOM      8  C   UNL     1       9.447   0.458  21.574  0.00  0.00    +0.091 A 
ATOM      9  O   UNL     1       7.853   0.572  25.401  0.00  0.00    -0.451 OA
ATOM     10  C   UNL     1       9.543  -0.671  22.388  0.00  0.00    +0.135 A 
ATOM     11  C   UNL     1       7.690  -0.578  26.180  0.00  0.00    +0.181 A 
ENDROOT
BRANCH  11  12
ATOM     12  C   UNL     1       6.988  -0.212  27.458  0.00  0.00    +0.025 A 
ATOM     13  C   UNL     1       5.632  -0.591  27.602  0.00  0.00    +0.015 A 
ATOM     14  C   UNL     1       4.801  -0.032  28.584  0.00  0.00    +0.050 A 
ATOM     15  C   UNL     1       5.335   0.883  29.467  0.00  0.00    +0.158 A 
ATOM     16  C   UNL     1       6.691   1.203  29.410  0.00  0.00    +0.159 A 
ATOM     17  C   UNL     1       7.516   0.678  28.406  0.00  0.00    +0.060 A 
BRANCH  15  18
ATOM     18  O   UNL     1       4.517   1.476  30.385  0.00  0.00    -0.503 OA
ATOM     19  H   UNL     1       4.389   2.386  30.052  0.00  0.00    +0.292 HD
ENDBRANCH  15  18
BRANCH  16  20
ATOM     20  O   UNL     1       7.157   2.077  30.358  0.00  0.00    -0.503 OA
ATOM     21  H   UNL     1       8.080   1.833  30.547  0.00  0.00    +0.292 HD
ENDBRANCH  16  20
ENDBRANCH  11  12
BRANCH   7  22
ATOM     22  O   UNL     1       8.709   2.661  21.213  0.00  0.00    -0.507 OA
ATOM     23  H   UNL     1       9.602   3.013  21.062  0.00  0.00    +0.292 HD
ENDBRANCH   7  22
BRANCH  10  24
ATOM     24  O   UNL     1      10.157  -1.787  21.892  0.00  0.00    -0.506 OA
ATOM     25  H   UNL     1      10.687  -2.208  22.586  0.00  0.00    +0.292 HD
ENDBRANCH  10  24
BRANCH   1  26
ATOM     26  O   UNL     1       7.914  -2.977  26.495  0.00  0.00    -0.453 OA
BRANCH  26  29
ATOM     27  C   UNL     1       6.314  -4.519  23.806  0.00  0.00    +0.182 C 
ATOM     28  O   UNL     1       6.487  -3.339  24.614  0.00  0.00    -0.331 OA
ATOM     29  C   UNL     1       6.819  -3.756  25.958  0.00  0.00    +0.340 C 
ATOM     30  C   UNL     1       7.109  -5.270  25.887  0.00  0.00    +0.214 C 
ATOM     31  C   UNL     1       7.303  -5.523  24.399  0.00  0.00    +0.180 C 
BRANCH  27  33
ATOM     32  C   UNL     1       6.402  -5.372  21.406  0.00  0.00    +0.040 C 
ATOM     33  C   UNL     1       6.496  -4.160  22.321  0.00  0.00    +0.143 C 
BRANCH  33  34
ATOM     34  O   UNL     1       7.785  -3.568  22.109  0.00  0.00    -0.389 OA
ATOM     35  H   UNL     1       7.624  -2.686  21.726  0.00  0.00    +0.210 HD
ENDBRANCH  33  34
ENDBRANCH  27  33
BRANCH  30  36
ATOM     36  O   UNL     1       8.197  -5.716  26.683  0.00  0.00    -0.383 OA
ATOM     37  H   UNL     1       7.793  -6.354  27.307  0.00  0.00    +0.210 HD
ENDBRANCH  30  36
BRANCH  31  38
ATOM     38  O   UNL     1       8.670  -5.265  24.064  0.00  0.00    -0.386 OA
ATOM     39  H   UNL     1       8.704  -5.141  23.087  0.00  0.00    +0.210 HD
ENDBRANCH  31  38
ENDBRANCH  26  29
ENDBRANCH   1  26
TORSDOF 11
ENDMDL
MODEL 3
REMARK VINA RESULT:      -7.0      2.688      7.354
REMARK  Name = 
REMARK  12 active torsions:
REMARK  status: ('A' for Active; 'I' for Inactive)
REMARK    1  A    between atoms: C_1  and  C_2
REMARK    2  A    between atoms: C_2  and  C_4
REMARK    3  A    between atoms: C_2  and  O_37
REMARK    4  A    between atoms: C_6  and  O_36
REMARK    5  A    between atoms: C_8  and  O_35
REMARK    6  A    between atoms: C_10  and  O_13
REMARK    7  A    between atoms: O_13  and  C_14
REMARK    8  A    between atoms: C_15  and  C_27
REMARK    9  A    between atoms: C_19  and  O_26
REMARK   10  A    between atoms: C_21  and  O_25
REMARK   11  A    between atoms: C_29  and  O_34
REMARK   12  A    between atoms: C_30  and  O_33
REMARK                            x       y       z     vdW  Elec       q    Type
REMARK                         _______ _______ _______ _____ _____    ______ ____
ROOT
ATOM      1  C   UNL     1       6.182  -1.013  24.168  0.00  0.00    +0.214 A 
ATOM      2  C   UNL     1       5.275  -2.178  24.497  0.00  0.00    +0.238 A 
ATOM      3  O   UNL     1       4.399  -2.098  25.349  0.00  0.00    -0.283 OA
ATOM      4  C   UNL     1       5.507  -3.439  23.785  0.00  0.00    +0.109 A 
ATOM      5  C   UNL     1       6.743  -3.597  23.181  0.00  0.00    +0.147 A 
ATOM      6  C   UNL     1       7.066  -4.781  22.513  0.00  0.00    +0.092 A 
ATOM      7  C   UNL     1       6.137  -5.813  22.478  0.00  0.00    +0.124 A 
ATOM      8  C   UNL     1       4.896  -5.679  23.088  0.00  0.00    +0.091 A 
ATOM      9  O   UNL     1       7.715  -2.642  23.254  0.00  0.00    -0.451 OA
ATOM     10  C   UNL     1       4.576  -4.484  23.734  0.00  0.00    +0.135 A 
ATOM     11  C   UNL     1       7.395  -1.342  23.659  0.00  0.00    +0.181 A 
ENDROOT
BRANCH  11  12
ATOM     12  C   UNL     1       8.605  -0.465  23.501  0.00  0.00    +0.025 A 
ATOM     13  C   UNL     1       9.489  -0.351  24.601  0.00  0.00    +0.015 A 
ATOM     14  C   UNL     1      10.448   0.669  24.684  0.00  0.00    +0.050 A 
ATOM     15  C   UNL     1      10.565   1.562  23.640  0.00  0.00    +0.158 A 
ATOM     16  C   UNL     1       9.773   1.416  22.502  0.00  0.00    +0.159 A 
ATOM     17  C   UNL     1       8.786   0.424  22.431  0.00  0.00    +0.060 A 
BRANCH  15  18
ATOM     18  O   UNL     1      11.455   2.593  23.744  0.00  0.00    -0.503 OA
ATOM     19  H   UNL     1      11.246   3.014  24.601  0.00  0.00    +0.292 HD
ENDBRANCH  15  18
BRANCH  16  20
ATOM     20  O   UNL     1       9.989   2.309  21.485  0.00  0.00    -0.503 OA
ATOM     21  H   UNL     1      10.041   3.196  21.885  0.00  0.00    +0.292 HD
ENDBRANCH  16  20
ENDBRANCH  11  12
BRANCH   7  22
ATOM     22  O   UNL     1       6.403  -6.995  21.853  0.00  0.00    -0.507 OA
ATOM     23  H   UNL     1       7.301  -7.286  22.083  0.00  0.00    +0.292 HD
ENDBRANCH   7  22
BRANCH  10  24
ATOM     24  O   UNL     1       3.335  -4.351  24.288  0.00  0.00    -0.506 OA
ATOM     25  H   UNL     1       3.341  -3.635  24.943  0.00  0.00    +0.292 HD
ENDBRANCH  10  24
BRANCH   1  26
ATOM     26  O   UNL     1       5.787   0.295  24.458  0.00  0.00    -0.453 OA
BRANCH  26  29
ATOM     27  C   UNL     1       6.619   2.873  26.656  0.00  0.00    +0.182 C 
ATOM     28  O   UNL     1       7.062   1.877  25.715  0.00  0.00    -0.331 OA
ATOM     29  C   UNL     1       6.152   0.755  25.780  0.00  0.00    +0.340 C 
ATOM     30  C   UNL     1       4.950   1.217  26.631  0.00  0.00    +0.214 C 
ATOM     31  C   UNL     1       5.097   2.731  26.657  0.00  0.00    +0.180 C 
BRANCH  27  33
ATOM     32  C   UNL     1       8.325   4.148  25.256  0.00  0.00    +0.040 C 
ATOM     33  C   UNL     1       7.188   4.247  26.262  0.00  0.00    +0.143 C 
BRANCH  33  34
ATOM     34  O   UNL     1       7.704   4.919  27.420  0.00  0.00    -0.389 OA
ATOM     35  H   UNL     1       7.739   5.867  27.195  0.00  0.00    +0.210 HD
ENDBRANCH  33  34
ENDBRANCH  27  33
BRANCH  30  36
ATOM     36  O   UNL     1       3.680   0.779  26.173  0.00  0.00    -0.383 OA
ATOM     37  H   UNL     1       3.473   1.377  25.426  0.00  0.00    +0.210 HD
ENDBRANCH  30  36
BRANCH  31  38
ATOM     38  O   UNL     1       4.458   3.274  25.496  0.00  0.00    -0.386 OA
ATOM     39  H   UNL     1       4.332   2.526  24.867  0.00  0.00    +0.210 HD
ENDBRANCH  31  38
ENDBRANCH  26  29
ENDBRANCH   1  26
TORSDOF 11
ENDMDL
MODEL 4
REMARK VINA RESULT:      -7.0      1.815      5.936
REMARK  Name = 
REMARK  12 active torsions:
REMARK  status: ('A' for Active; 'I' for Inactive)
REMARK    1  A    between atoms: C_1  and  C_2
REMARK    2  A    between atoms: C_2  and  C_4
REMARK    3  A    between atoms: C_2  and  O_37
REMARK    4  A    between atoms: C_6  and  O_36
REMARK    5  A    between atoms: C_8  and  O_35
REMARK    6  A    between atoms: C_10  and  O_13
REMARK    7  A    between atoms: O_13  and  C_14
REMARK    8  A    between atoms: C_15  and  C_27
REMARK    9  A    between atoms: C_19  and  O_26
REMARK   10  A    between atoms: C_21  and  O_25
REMARK   11  A    between atoms: C_29  and  O_34
REMARK   12  A    between atoms: C_30  and  O_33
REMARK                            x       y       z     vdW  Elec       q    Type
REMARK                         _______ _______ _______ _____ _____    ______ ____
ROOT
ATOM      1  C   UNL     1       6.058  -2.369  23.104  0.00  0.00    +0.214 A 
ATOM      2  C   UNL     1       4.934  -2.937  23.942  0.00  0.00    +0.238 A 
ATOM      3  O   UNL     1       4.102  -3.706  23.476  0.00  0.00    -0.283 OA
ATOM      4  C   UNL     1       4.842  -2.500  25.339  0.00  0.00    +0.109 A 
ATOM      5  C   UNL     1       5.516  -1.337  25.675  0.00  0.00    +0.147 A 
ATOM      6  C   UNL     1       5.454  -0.824  26.973  0.00  0.00    +0.092 A 
ATOM      7  C   UNL     1       4.688  -1.485  27.925  0.00  0.00    +0.124 A 
ATOM      8  C   UNL     1       3.996  -2.647  27.605  0.00  0.00    +0.091 A 
ATOM      9  O   UNL     1       6.218  -0.612  24.755  0.00  0.00    -0.451 OA
ATOM     10  C   UNL     1       4.082  -3.161  26.311  0.00  0.00    +0.135 A 
ATOM     11  C   UNL     1       6.554  -1.178  23.522  0.00  0.00    +0.181 A 
ENDROOT
BRANCH  11  12
ATOM     12  C   UNL     1       7.451  -0.231  22.773  0.00  0.00    +0.025 A 
ATOM     13  C   UNL     1       8.767  -0.661  22.476  0.00  0.00    +0.015 A 
ATOM     14  C   UNL     1       9.772   0.235  22.084  0.00  0.00    +0.050 A 
ATOM     15  C   UNL     1       9.457   1.570  21.939  0.00  0.00    +0.158 A 
ATOM     16  C   UNL     1       8.147   2.006  22.131  0.00  0.00    +0.159 A 
ATOM     17  C   UNL     1       7.148   1.122  22.562  0.00  0.00    +0.060 A 
BRANCH  15  18
ATOM     18  O   UNL     1      10.446   2.455  21.617  0.00  0.00    -0.503 OA
ATOM     19  H   UNL     1      10.859   2.686  22.472  0.00  0.00    +0.292 HD
ENDBRANCH  15  18
BRANCH  16  20
ATOM     20  O   UNL     1       7.903   3.336  21.913  0.00  0.00    -0.503 OA
ATOM     21  H   UNL     1       7.961   3.786  22.774  0.00  0.00    +0.292 HD
ENDBRANCH  16  20
ENDBRANCH  11  12
BRANCH   7  22
ATOM     22  O   UNL     1       4.580  -1.024  29.203  0.00  0.00    -0.507 OA
ATOM     23  H   UNL     1       5.346  -1.327  29.719  0.00  0.00    +0.292 HD
ENDBRANCH   7  22
BRANCH  10  24
ATOM     24  O   UNL     1       3.434  -4.329  26.025  0.00  0.00    -0.506 OA
ATOM     25  H   UNL     1       2.963  -4.646  26.812  0.00  0.00    +0.292 HD
ENDBRANCH  10  24
BRANCH   1  26
ATOM     26  O   UNL     1       6.475  -3.022  21.942  0.00  0.00    -0.453 OA
BRANCH  26  29
ATOM     27  C   UNL     1       8.333  -5.126  24.013  0.00  0.00    +0.182 C 
ATOM     28  O   UNL     1       8.156  -3.816  23.441  0.00  0.00    -0.331 OA
ATOM     29  C   UNL     1       7.552  -3.969  22.137  0.00  0.00    +0.340 C 
ATOM     30  C   UNL     1       7.109  -5.444  22.031  0.00  0.00    +0.214 C 
ATOM     31  C   UNL     1       7.149  -5.929  23.473  0.00  0.00    +0.180 C 
BRANCH  27  33
ATOM     32  C   UNL     1       8.424  -3.569  26.030  0.00  0.00    +0.040 C 
ATOM     33  C   UNL     1       8.452  -5.011  25.543  0.00  0.00    +0.143 C 
BRANCH  33  34
ATOM     34  O   UNL     1       9.690  -5.585  25.987  0.00  0.00    -0.389 OA
ATOM     35  H   UNL     1       9.455  -6.321  26.581  0.00  0.00    +0.210 HD
ENDBRANCH  33  34
ENDBRANCH  27  33
BRANCH  30  36
ATOM     36  O   UNL     1       5.857  -5.657  21.396  0.00  0.00    -0.383 OA
ATOM     37  H   UNL     1       5.988  -6.475  20.874  0.00  0.00    +0.210 HD
ENDBRANCH  30  36
BRANCH  31  38
ATOM     38  O   UNL     1       5.898  -5.619  24.096  0.00  0.00    -0.386 OA
ATOM     39  H   UNL     1       5.526  -4.845  23.613  0.00  0.00    +0.210 HD
ENDBRANCH  31  38
ENDBRANCH  26  29
ENDBRANCH   1  26
TORSDOF 11
ENDMDL
MODEL 5
REMARK VINA RESULT:      -7.0      2.656      6.717
REMARK  Name = 
REMARK  12 active torsions:
REMARK  status: ('A' for Active; 'I' for Inactive)
REMARK    1  A    between atoms: C_1  and  C_2
REMARK    2  A    between atoms: C_2  and  C_4
REMARK    3  A    between atoms: C_2  and  O_37
REMARK    4  A    between atoms: C_6  and  O_36
REMARK    5  A    between atoms: C_8  and  O_35
REMARK    6  A    between atoms: C_10  and  O_13
REMARK    7  A    between atoms: O_13  and  C_14
REMARK    8  A    between atoms: C_15  and  C_27
REMARK    9  A    between atoms: C_19  and  O_26
REMARK   10  A    between atoms: C_21  and  O_25
REMARK   11  A    between atoms: C_29  and  O_34
REMARK   12  A    between atoms: C_30  and  O_33
REMARK                            x       y       z     vdW  Elec       q    Type
REMARK                         _______ _______ _______ _____ _____    ______ ____
ROOT
ATOM      1  C   UNL     1       7.729  -1.845  25.345  0.00  0.00    +0.214 A 
ATOM      2  C   UNL     1       7.237  -3.246  25.638  0.00  0.00    +0.238 A 
ATOM      3  O   UNL     1       7.223  -3.703  26.774  0.00  0.00    -0.283 OA
ATOM      4  C   UNL     1       6.812  -4.067  24.500  0.00  0.00    +0.109 A 
ATOM      5  C   UNL     1       7.250  -3.672  23.247  0.00  0.00    +0.147 A 
ATOM      6  C   UNL     1       6.926  -4.416  22.110  0.00  0.00    +0.092 A 
ATOM      7  C   UNL     1       6.173  -5.575  22.250  0.00  0.00    +0.124 A 
ATOM      8  C   UNL     1       5.734  -5.993  23.500  0.00  0.00    +0.091 A 
ATOM      9  O   UNL     1       8.056  -2.585  23.068  0.00  0.00    -0.451 OA
ATOM     10  C   UNL     1       6.046  -5.232  24.627  0.00  0.00    +0.135 A 
ATOM     11  C   UNL     1       8.205  -1.644  24.091  0.00  0.00    +0.181 A 
ENDROOT
BRANCH  11  12
ATOM     12  C   UNL     1       9.010  -0.482  23.579  0.00  0.00    +0.025 A 
ATOM     13  C   UNL     1      10.208  -0.156  24.261  0.00  0.00    +0.015 A 
ATOM     14  C   UNL     1      10.855   1.076  24.082  0.00  0.00    +0.050 A 
ATOM     15  C   UNL     1      10.332   1.979  23.180  0.00  0.00    +0.158 A 
ATOM     16  C   UNL     1       9.209   1.645  22.425  0.00  0.00    +0.159 A 
ATOM     17  C   UNL     1       8.536   0.433  22.628  0.00  0.00    +0.060 A 
BRANCH  15  18
ATOM     18  O   UNL     1      10.923   3.203  23.048  0.00  0.00    -0.503 OA
ATOM     19  H   UNL     1      10.532   3.580  22.235  0.00  0.00    +0.292 HD
ENDBRANCH  15  18
BRANCH  16  20
ATOM     20  O   UNL     1       8.786   2.573  21.510  0.00  0.00    -0.503 OA
ATOM     21  H   UNL     1       8.020   3.034  21.897  0.00  0.00    +0.292 HD
ENDBRANCH  16  20
ENDBRANCH  11  12
BRANCH   7  22
ATOM     22  O   UNL     1       5.838  -6.346  21.178  0.00  0.00    -0.507 OA
ATOM     23  H   UNL     1       5.093  -5.936  20.707  0.00  0.00    +0.292 HD
ENDBRANCH   7  22
BRANCH  10  24
ATOM     24  O   UNL     1       5.567  -5.632  25.842  0.00  0.00    -0.506 OA
ATOM     25  H   UNL     1       5.436  -4.861  26.415  0.00  0.00    +0.292 HD
ENDBRANCH  10  24
BRANCH   1  26
ATOM     26  O   UNL     1       7.744  -0.875  26.350  0.00  0.00    -0.453 OA
BRANCH  26  29
ATOM     27  C   UNL     1       5.344   0.809  28.240  0.00  0.00    +0.182 C 
ATOM     28  O   UNL     1       5.770  -0.416  27.613  0.00  0.00    -0.331 OA
ATOM     29  C   UNL     1       6.539  -0.079  26.436  0.00  0.00    +0.340 C 
ATOM     30  C   UNL     1       6.801   1.440  26.507  0.00  0.00    +0.214 C 
ATOM     31  C   UNL     1       6.484   1.787  27.954  0.00  0.00    +0.180 C 
BRANCH  27  33
ATOM     32  C   UNL     1       3.583   0.064  29.926  0.00  0.00    +0.040 C 
ATOM     33  C   UNL     1       5.012   0.544  29.719  0.00  0.00    +0.143 C 
BRANCH  33  34
ATOM     34  O   UNL     1       5.169   1.748  30.484  0.00  0.00    -0.389 OA
ATOM     35  H   UNL     1       6.091   2.038  30.355  0.00  0.00    +0.210 HD
ENDBRANCH  33  34
ENDBRANCH  27  33
BRANCH  30  36
ATOM     36  O   UNL     1       8.097   1.851  26.097  0.00  0.00    -0.383 OA
ATOM     37  H   UNL     1       7.935   2.404  25.305  0.00  0.00    +0.210 HD
ENDBRANCH  30  36
BRANCH  31  38
ATOM     38  O   UNL     1       7.656   1.568  28.745  0.00  0.00    -0.386 OA
ATOM     39  H   UNL     1       8.268   2.318  28.559  0.00  0.00    +0.210 HD
ENDBRANCH  31  38
ENDBRANCH  26  29
ENDBRANCH   1  26
TORSDOF 11
ENDMDL
MODEL 6
REMARK VINA RESULT:      -6.9      2.339      7.237
REMARK  Name = 
REMARK  12 active torsions:
REMARK  status: ('A' for Active; 'I' for Inactive)
REMARK    1  A    between atoms: C_1  and  C_2
REMARK    2  A    between atoms: C_2  and  C_4
REMARK    3  A    between atoms: C_2  and  O_37
REMARK    4  A    between atoms: C_6  and  O_36
REMARK    5  A    between atoms: C_8  and  O_35
REMARK    6  A    between atoms: C_10  and  O_13
REMARK    7  A    between atoms: O_13  and  C_14
REMARK    8  A    between atoms: C_15  and  C_27
REMARK    9  A    between atoms: C_19  and  O_26
REMARK   10  A    between atoms: C_21  and  O_25
REMARK   11  A    between atoms: C_29  and  O_34
REMARK   12  A    between atoms: C_30  and  O_33
REMARK                            x       y       z     vdW  Elec       q    Type
REMARK                         _______ _______ _______ _____ _____    ______ ____
ROOT
ATOM      1  C   UNL     1       6.632  -2.463  23.851  0.00  0.00    +0.214 A 
ATOM      2  C   UNL     1       5.973  -3.491  22.957  0.00  0.00    +0.238 A 
ATOM      3  O   UNL     1       6.408  -3.757  21.844  0.00  0.00    -0.283 OA
ATOM      4  C   UNL     1       4.754  -4.139  23.453  0.00  0.00    +0.109 A 
ATOM      5  C   UNL     1       4.086  -3.503  24.487  0.00  0.00    +0.147 A 
ATOM      6  C   UNL     1       2.896  -4.028  24.998  0.00  0.00    +0.092 A 
ATOM      7  C   UNL     1       2.374  -5.189  24.442  0.00  0.00    +0.124 A 
ATOM      8  C   UNL     1       3.024  -5.834  23.397  0.00  0.00    +0.091 A 
ATOM      9  O   UNL     1       4.518  -2.321  25.014  0.00  0.00    -0.451 OA
ATOM     10  C   UNL     1       4.222  -5.314  22.909  0.00  0.00    +0.135 A 
ATOM     11  C   UNL     1       5.818  -1.871  24.759  0.00  0.00    +0.181 A 
ENDROOT
BRANCH  11  12
ATOM     12  C   UNL     1       6.082  -0.638  25.578  0.00  0.00    +0.025 A 
ATOM     13  C   UNL     1       5.751   0.617  25.011  0.00  0.00    +0.015 A 
ATOM     14  C   UNL     1       6.242   1.823  25.532  0.00  0.00    +0.050 A 
ATOM     15  C   UNL     1       7.037   1.788  26.659  0.00  0.00    +0.158 A 
ATOM     16  C   UNL     1       7.300   0.575  27.294  0.00  0.00    +0.159 A 
ATOM     17  C   UNL     1       6.845  -0.636  26.755  0.00  0.00    +0.060 A 
BRANCH  15  18
ATOM     18  O   UNL     1       7.568   2.953  27.133  0.00  0.00    -0.503 OA
ATOM     19  H   UNL     1       8.508   2.746  27.303  0.00  0.00    +0.292 HD
ENDBRANCH  15  18
BRANCH  16  20
ATOM     20  O   UNL     1       8.049   0.631  28.440  0.00  0.00    -0.503 OA
ATOM     21  H   UNL     1       8.107  -0.275  28.792  0.00  0.00    +0.292 HD
ENDBRANCH  16  20
ENDBRANCH  11  12
BRANCH   7  22
ATOM     22  O   UNL     1       1.210  -5.738  24.891  0.00  0.00    -0.507 OA
ATOM     23  H   UNL     1       1.412  -6.414  25.560  0.00  0.00    +0.292 HD
ENDBRANCH   7  22
BRANCH  10  24
ATOM     24  O   UNL     1       4.872  -5.986  21.912  0.00  0.00    -0.506 OA
ATOM     25  H   UNL     1       4.353  -6.761  21.644  0.00  0.00    +0.292 HD
ENDBRANCH  10  24
BRANCH   1  26
ATOM     26  O   UNL     1       7.974  -2.122  23.668  0.00  0.00    -0.453 OA
BRANCH  26  29
ATOM     27  C   UNL     1       8.833   0.866  22.087  0.00  0.00    +0.182 C 
ATOM     28  O   UNL     1       7.797   0.003  22.593  0.00  0.00    -0.331 OA
ATOM     29  C   UNL     1       8.243  -1.365  22.464  0.00  0.00    +0.340 C 
ATOM     30  C   UNL     1       9.740  -1.303  22.091  0.00  0.00    +0.214 C 
ATOM     31  C   UNL     1      10.129   0.129  22.428  0.00  0.00    +0.180 C 
BRANCH  27  33
ATOM     32  C   UNL     1       7.561   3.073  21.987  0.00  0.00    +0.040 C 
ATOM     33  C   UNL     1       8.663   2.278  22.673  0.00  0.00    +0.143 C 
BRANCH  33  34
ATOM     34  O   UNL     1       9.880   3.025  22.524  0.00  0.00    -0.389 OA
ATOM     35  H   UNL     1      10.404   2.859  23.329  0.00  0.00    +0.210 HD
ENDBRANCH  33  34
ENDBRANCH  27  33
BRANCH  30  36
ATOM     36  O   UNL     1      10.562  -2.275  22.719  0.00  0.00    -0.383 OA
ATOM     37  H   UNL     1      10.424  -2.125  23.678  0.00  0.00    +0.210 HD
ENDBRANCH  30  36
BRANCH  31  38
ATOM     38  O   UNL     1      10.491   0.193  23.811  0.00  0.00    -0.386 OA
ATOM     39  H   UNL     1      11.405   0.560  23.848  0.00  0.00    +0.210 HD
ENDBRANCH  31  38
ENDBRANCH  26  29
ENDBRANCH   1  26
TORSDOF 11
ENDMDL
MODEL 7
REMARK VINA RESULT:      -6.9      2.897      7.834
REMARK  Name = 
REMARK  12 active torsions:
REMARK  status: ('A' for Active; 'I' for Inactive)
REMARK    1  A    between atoms: C_1  and  C_2
REMARK    2  A    between atoms: C_2  and  C_4
REMARK    3  A    between atoms: C_2  and  O_37
REMARK    4  A    between atoms: C_6  and  O_36
REMARK    5  A    between atoms: C_8  and  O_35
REMARK    6  A    between atoms: C_10  and  O_13
REMARK    7  A    between atoms: O_13  and  C_14
REMARK    8  A    between atoms: C_15  and  C_27
REMARK    9  A    between atoms: C_19  and  O_26
REMARK   10  A    between atoms: C_21  and  O_25
REMARK   11  A    between atoms: C_29  and  O_34
REMARK   12  A    between atoms: C_30  and  O_33
REMARK                            x       y       z     vdW  Elec       q    Type
REMARK                         _______ _______ _______ _____ _____    ______ ____
ROOT
ATOM      1  C   UNL     1       5.979  -0.641  25.264  0.00  0.00    +0.214 A 
ATOM      2  C   UNL     1       5.289  -1.398  26.377  0.00  0.00    +0.238 A 
ATOM      3  O   UNL     1       4.322  -0.939  26.971  0.00  0.00    -0.283 OA
ATOM      4  C   UNL     1       5.848  -2.699  26.759  0.00  0.00    +0.109 A 
ATOM      5  C   UNL     1       7.153  -2.956  26.372  0.00  0.00    +0.147 A 
ATOM      6  C   UNL     1       7.780  -4.153  26.724  0.00  0.00    +0.092 A 
ATOM      7  C   UNL     1       7.086  -5.081  27.490  0.00  0.00    +0.124 A 
ATOM      8  C   UNL     1       5.780  -4.837  27.898  0.00  0.00    +0.091 A 
ATOM      9  O   UNL     1       7.901  -2.044  25.685  0.00  0.00    -0.451 OA
ATOM     10  C   UNL     1       5.157  -3.647  27.522  0.00  0.00    +0.135 A 
ATOM     11  C   UNL     1       7.284  -0.952  25.066  0.00  0.00    +0.181 A 
ENDROOT
BRANCH  11  12
ATOM     12  C   UNL     1       8.306  -0.202  24.258  0.00  0.00    +0.025 A 
ATOM     13  C   UNL     1       9.206   0.644  24.950  0.00  0.00    +0.015 A 
ATOM     14  C   UNL     1       9.967   1.621  24.291  0.00  0.00    +0.050 A 
ATOM     15  C   UNL     1       9.869   1.730  22.920  0.00  0.00    +0.158 A 
ATOM     16  C   UNL     1       9.064   0.847  22.202  0.00  0.00    +0.159 A 
ATOM     17  C   UNL     1       8.270  -0.104  22.859  0.00  0.00    +0.060 A 
BRANCH  15  18
ATOM     18  O   UNL     1      10.561   2.719  22.281  0.00  0.00    -0.503 OA
ATOM     19  H   UNL     1      10.963   2.278  21.506  0.00  0.00    +0.292 HD
ENDBRANCH  15  18
BRANCH  16  20
ATOM     20  O   UNL     1       9.064   0.984  20.839  0.00  0.00    -0.503 OA
ATOM     21  H   UNL     1       9.144   0.091  20.458  0.00  0.00    +0.292 HD
ENDBRANCH  16  20
ENDBRANCH  11  12
BRANCH   7  22
ATOM     22  O   UNL     1       7.652  -6.261  27.874  0.00  0.00    -0.507 OA
ATOM     23  H   UNL     1       8.190  -6.611  27.144  0.00  0.00    +0.292 HD
ENDBRANCH   7  22
BRANCH  10  24
ATOM     24  O   UNL     1       3.857  -3.443  27.892  0.00  0.00    -0.506 OA
ATOM     25  H   UNL     1       3.825  -3.007  28.758  0.00  0.00    +0.292 HD
ENDBRANCH  10  24
BRANCH   1  26
ATOM     26  O   UNL     1       5.301   0.359  24.561  0.00  0.00    -0.453 OA
BRANCH  26  29
ATOM     27  C   UNL     1       5.511   3.793  23.987  0.00  0.00    +0.182 C 
ATOM     28  O   UNL     1       6.172   2.514  24.011  0.00  0.00    -0.331 OA
ATOM     29  C   UNL     1       5.553   1.703  25.035  0.00  0.00    +0.340 C 
ATOM     30  C   UNL     1       4.279   2.455  25.477  0.00  0.00    +0.214 C 
ATOM     31  C   UNL     1       4.065   3.470  24.365  0.00  0.00    +0.180 C 
BRANCH  27  33
ATOM     32  C   UNL     1       7.018   5.290  22.578  0.00  0.00    +0.040 C 
ATOM     33  C   UNL     1       5.738   4.468  22.624  0.00  0.00    +0.143 C 
BRANCH  33  34
ATOM     34  O   UNL     1       4.652   5.358  22.325  0.00  0.00    -0.389 OA
ATOM     35  H   UNL     1       5.031   6.087  21.800  0.00  0.00    +0.210 HD
ENDBRANCH  33  34
ENDBRANCH  27  33
BRANCH  30  36
ATOM     36  O   UNL     1       3.146   1.635  25.722  0.00  0.00    -0.383 OA
ATOM     37  H   UNL     1       2.703   2.059  26.486  0.00  0.00    +0.210 HD
ENDBRANCH  30  36
BRANCH  31  38
ATOM     38  O   UNL     1       3.311   2.850  23.317  0.00  0.00    -0.386 OA
ATOM     39  H   UNL     1       3.639   3.230  22.469  0.00  0.00    +0.210 HD
ENDBRANCH  31  38
ENDBRANCH  26  29
ENDBRANCH   1  26
TORSDOF 11
ENDMDL
MODEL 8
REMARK VINA RESULT:      -6.9      2.151      5.377
REMARK  Name = 
REMARK  12 active torsions:
REMARK  status: ('A' for Active; 'I' for Inactive)
REMARK    1  A    between atoms: C_1  and  C_2
REMARK    2  A    between atoms: C_2  and  C_4
REMARK    3  A    between atoms: C_2  and  O_37
REMARK    4  A    between atoms: C_6  and  O_36
REMARK    5  A    between atoms: C_8  and  O_35
REMARK    6  A    between atoms: C_10  and  O_13
REMARK    7  A    between atoms: O_13  and  C_14
REMARK    8  A    between atoms: C_15  and  C_27
REMARK    9  A    between atoms: C_19  and  O_26
REMARK   10  A    between atoms: C_21  and  O_25
REMARK   11  A    between atoms: C_29  and  O_34
REMARK   12  A    between atoms: C_30  and  O_33
REMARK                            x       y       z     vdW  Elec       q    Type
REMARK                         _______ _______ _______ _____ _____    ______ ____
ROOT
ATOM      1  C   UNL     1       7.739  -1.833  24.935  0.00  0.00    +0.214 A 
ATOM      2  C   UNL     1       7.951  -0.886  26.096  0.00  0.00    +0.238 A 
ATOM      3  O   UNL     1       9.043  -0.383  26.332  0.00  0.00    -0.283 OA
ATOM      4  C   UNL     1       6.805  -0.618  26.970  0.00  0.00    +0.109 A 
ATOM      5  C   UNL     1       5.756  -1.522  26.920  0.00  0.00    +0.147 A 
ATOM      6  C   UNL     1       4.639  -1.367  27.744  0.00  0.00    +0.092 A 
ATOM      7  C   UNL     1       4.598  -0.302  28.636  0.00  0.00    +0.124 A 
ATOM      8  C   UNL     1       5.645   0.609  28.709  0.00  0.00    +0.091 A 
ATOM      9  O   UNL     1       5.785  -2.624  26.116  0.00  0.00    -0.451 OA
ATOM     10  C   UNL     1       6.746   0.457  27.866  0.00  0.00    +0.135 A 
ATOM     11  C   UNL     1       6.719  -2.715  25.080  0.00  0.00    +0.181 A 
ENDROOT
BRANCH  11  12
ATOM     12  C   UNL     1       6.432  -3.944  24.263  0.00  0.00    +0.025 A 
ATOM     13  C   UNL     1       7.517  -4.566  23.599  0.00  0.00    +0.015 A 
ATOM     14  C   UNL     1       7.323  -5.500  22.570  0.00  0.00    +0.050 A 
ATOM     15  C   UNL     1       6.037  -5.857  22.225  0.00  0.00    +0.158 A 
ATOM     16  C   UNL     1       4.952  -5.333  22.928  0.00  0.00    +0.159 A 
ATOM     17  C   UNL     1       5.138  -4.369  23.929  0.00  0.00    +0.060 A 
BRANCH  15  18
ATOM     18  O   UNL     1       5.842  -6.718  21.184  0.00  0.00    -0.503 OA
ATOM     19  H   UNL     1       6.702  -7.169  21.072  0.00  0.00    +0.292 HD
ENDBRANCH  15  18
BRANCH  16  20
ATOM     20  O   UNL     1       3.710  -5.780  22.563  0.00  0.00    -0.503 OA
ATOM     21  H   UNL     1       3.761  -6.750  22.491  0.00  0.00    +0.292 HD
ENDBRANCH  16  20
ENDBRANCH  11  12
BRANCH   7  22
ATOM     22  O   UNL     1       3.540  -0.109  29.473  0.00  0.00    -0.507 OA
ATOM     23  H   UNL     1       3.845  -0.169  30.394  0.00  0.00    +0.292 HD
ENDBRANCH   7  22
BRANCH  10  24
ATOM     24  O   UNL     1       7.745   1.387  27.917  0.00  0.00    -0.506 OA
ATOM     25  H   UNL     1       8.126   1.512  27.034  0.00  0.00    +0.292 HD
ENDBRANCH  10  24
BRANCH   1  26
ATOM     26  O   UNL     1       8.607  -1.818  23.841  0.00  0.00    -0.453 OA
BRANCH  26  29
ATOM     27  C   UNL     1       8.004   1.124  22.065  0.00  0.00    +0.182 C 
ATOM     28  O   UNL     1       7.538   0.156  23.024  0.00  0.00    -0.331 OA
ATOM     29  C   UNL     1       8.093  -1.132  22.675  0.00  0.00    +0.340 C 
ATOM     30  C   UNL     1       9.157  -0.869  21.589  0.00  0.00    +0.214 C 
ATOM     31  C   UNL     1       9.402   0.629  21.689  0.00  0.00    +0.180 C 
BRANCH  27  33
ATOM     32  C   UNL     1       6.727   3.329  22.121  0.00  0.00    +0.040 C 
ATOM     33  C   UNL     1       7.907   2.537  22.666  0.00  0.00    +0.143 C 
BRANCH  33  34
ATOM     34  O   UNL     1       9.094   3.285  22.367  0.00  0.00    -0.389 OA
ATOM     35  H   UNL     1       9.111   4.035  22.990  0.00  0.00    +0.210 HD
ENDBRANCH  33  34
ENDBRANCH  27  33
BRANCH  30  36
ATOM     36  O   UNL     1      10.341  -1.645  21.700  0.00  0.00    -0.383 OA
ATOM     37  H   UNL     1      10.823  -1.243  22.453  0.00  0.00    +0.210 HD
ENDBRANCH  30  36
BRANCH  31  38
ATOM     38  O   UNL     1      10.395   0.865  22.692  0.00  0.00    -0.386 OA
ATOM     39  H   UNL     1      10.362   0.099  23.310  0.00  0.00    +0.210 HD
ENDBRANCH  31  38
ENDBRANCH  26  29
ENDBRANCH   1  26
TORSDOF 11
ENDMDL
MODEL 9
REMARK VINA RESULT:      -6.7      1.807      4.272
REMARK  Name = 
REMARK  12 active torsions:
REMARK  status: ('A' for Active; 'I' for Inactive)
REMARK    1  A    between atoms: C_1  and  C_2
REMARK    2  A    between atoms: C_2  and  C_4
REMARK    3  A    between atoms: C_2  and  O_37
REMARK    4  A    between atoms: C_6  and  O_36
REMARK    5  A    between atoms: C_8  and  O_35
REMARK    6  A    between atoms: C_10  and  O_13
REMARK    7  A    between atoms: O_13  and  C_14
REMARK    8  A    between atoms: C_15  and  C_27
REMARK    9  A    between atoms: C_19  and  O_26
REMARK   10  A    between atoms: C_21  and  O_25
REMARK   11  A    between atoms: C_29  and  O_34
REMARK   12  A    between atoms: C_30  and  O_33
REMARK                            x       y       z     vdW  Elec       q    Type
REMARK                         _______ _______ _______ _____ _____    ______ ____
ROOT
ATOM      1  C   UNL     1       6.854  -0.720  25.262  0.00  0.00    +0.214 A 
ATOM      2  C   UNL     1       6.534   0.587  24.571  0.00  0.00    +0.238 A 
ATOM      3  O   UNL     1       5.397   0.872  24.217  0.00  0.00    -0.283 OA
ATOM      4  C   UNL     1       7.650   1.498  24.295  0.00  0.00    +0.109 A 
ATOM      5  C   UNL     1       8.923   0.952  24.316  0.00  0.00    +0.147 A 
ATOM      6  C   UNL     1      10.042   1.736  24.027  0.00  0.00    +0.092 A 
ATOM      7  C   UNL     1       9.864   3.073  23.695  0.00  0.00    +0.124 A 
ATOM      8  C   UNL     1       8.595   3.637  23.658  0.00  0.00    +0.091 A 
ATOM      9  O   UNL     1       9.141  -0.373  24.560  0.00  0.00    -0.451 OA
ATOM     10  C   UNL     1       7.486   2.850  23.969  0.00  0.00    +0.135 A 
ATOM     11  C   UNL     1       8.128  -1.162  25.116  0.00  0.00    +0.181 A 
ENDROOT
BRANCH  11  12
ATOM     12  C   UNL     1       8.679  -2.526  25.424  0.00  0.00    +0.025 A 
ATOM     13  C   UNL     1       9.605  -3.088  24.511  0.00  0.00    +0.015 A 
ATOM     14  C   UNL     1       9.926  -4.453  24.521  0.00  0.00    +0.050 A 
ATOM     15  C   UNL     1       9.357  -5.266  25.478  0.00  0.00    +0.158 A 
ATOM     16  C   UNL     1       8.516  -4.723  26.449  0.00  0.00    +0.159 A 
ATOM     17  C   UNL     1       8.160  -3.367  26.419  0.00  0.00    +0.060 A 
BRANCH  15  18
ATOM     18  O   UNL     1       9.619  -6.606  25.453  0.00  0.00    -0.503 OA
ATOM     19  H   UNL     1      10.315  -6.709  24.774  0.00  0.00    +0.292 HD
ENDBRANCH  15  18
BRANCH  16  20
ATOM     20  O   UNL     1       8.036  -5.586  27.399  0.00  0.00    -0.503 OA
ATOM     21  H   UNL     1       7.566  -6.298  26.931  0.00  0.00    +0.292 HD
ENDBRANCH  16  20
ENDBRANCH  11  12
BRANCH   7  22
ATOM     22  O   UNL     1      10.918   3.882  23.392  0.00  0.00    -0.507 OA
ATOM     23  H   UNL     1      10.638   4.811  23.454  0.00  0.00    +0.292 HD
ENDBRANCH   7  22
BRANCH  10  24
ATOM     24  O   UNL     1       6.250   3.431  23.972  0.00  0.00    -0.506 OA
ATOM     25  H   UNL     1       6.339   4.397  23.952  0.00  0.00    +0.292 HD
ENDBRANCH  10  24
BRANCH   1  26
ATOM     26  O   UNL     1       5.855  -1.431  25.931  0.00  0.00    -0.453 OA
BRANCH  26  29
ATOM     27  C   UNL     1       4.827  -4.353  24.327  0.00  0.00    +0.182 C 
ATOM     28  O   UNL     1       5.617  -3.149  24.289  0.00  0.00    -0.331 OA
ATOM     29  C   UNL     1       4.936  -2.136  25.064  0.00  0.00    +0.340 C 
ATOM     30  C   UNL     1       3.798  -2.856  25.819  0.00  0.00    +0.214 C 
ATOM     31  C   UNL     1       4.176  -4.326  25.710  0.00  0.00    +0.180 C 
BRANCH  27  33
ATOM     32  C   UNL     1       6.692  -5.295  22.866  0.00  0.00    +0.040 C 
ATOM     33  C   UNL     1       5.717  -5.566  24.003  0.00  0.00    +0.143 C 
BRANCH  33  34
ATOM     34  O   UNL     1       4.907  -6.683  23.611  0.00  0.00    -0.389 OA
ATOM     35  H   UNL     1       4.299  -6.857  24.353  0.00  0.00    +0.210 HD
ENDBRANCH  33  34
ENDBRANCH  27  33
BRANCH  30  36
ATOM     36  O   UNL     1       3.588  -2.423  27.154  0.00  0.00    -0.383 OA
ATOM     37  H   UNL     1       3.882  -3.179  27.703  0.00  0.00    +0.210 HD
ENDBRANCH  30  36
BRANCH  31  38
ATOM     38  O   UNL     1       5.066  -4.651  26.783  0.00  0.00    -0.386 OA
ATOM     39  H   UNL     1       4.892  -4.000  27.502  0.00  0.00    +0.210 HD
ENDBRANCH  31  38
ENDBRANCH  26  29
ENDBRANCH   1  26
TORSDOF 11
ENDMDL
