MODEL 1
REMARK VINA RESULT:      -7.8      0.000      0.000
REMARK  Name = 
REMARK  22 active torsions:
REMARK  status: ('A' for Active; 'I' for Inactive)
REMARK    1  A    between atoms: C_1  and  C_2
REMARK    2  A    between atoms: C_3  and  O_61
REMARK    3  A    between atoms: C_5  and  O_60
REMARK    4  A    between atoms: C_7  and  O_59
REMARK    5  A    between atoms: C_8  and  O_11
REMARK    6  A    between atoms: O_11  and  C_12
REMARK    7  A    between atoms: C_14  and  O_58
REMARK    8  A    between atoms: C_16  and  O_57
REMARK    9  A    between atoms: C_17  and  O_22
REMARK   10  A    between atoms: C_20  and  C_21
REMARK   11  A    between atoms: O_22  and  C_23
REMARK   12  A    between atoms: C_23  and  C_24
REMARK   13  A    between atoms: C_25  and  O_56
REMARK   14  A    between atoms: C_27  and  O_55
REMARK   15  A    between atoms: C_28  and  O_54
REMARK   16  A    between atoms: C_29  and  O_32
REMARK   17  A    between atoms: O_32  and  C_33
REMARK   18  A    between atoms: C_34  and  C_46
REMARK   19  A    between atoms: C_38  and  O_45
REMARK   20  A    between atoms: C_40  and  O_44
REMARK   21  A    between atoms: C_48  and  O_53
REMARK   22  A    between atoms: C_49  and  O_52
REMARK                            x       y       z     vdW  Elec       q    Type
REMARK                         _______ _______ _______ _____ _____    ______ ____
ROOT
ATOM      1  C   UNL     1       7.204  -2.808  22.091  0.00  0.00    +0.179 C 
ATOM      2  O   UNL     1       6.098  -2.225  22.818  0.00  0.00    -0.331 OA
ATOM      3  C   UNL     1       5.863  -2.893  24.067  0.00  0.00    +0.340 C 
ATOM      4  C   UNL     1       5.413  -4.344  23.798  0.00  0.00    +0.214 C 
ATOM      5  C   UNL     1       6.413  -5.067  22.879  0.00  0.00    +0.180 C 
ATOM      6  C   UNL     1       6.787  -4.217  21.647  0.00  0.00    +0.177 C 
ENDROOT
BRANCH   6   7
ATOM      7  O   UNL     1       5.660  -4.102  20.757  0.00  0.00    -0.386 OA
ATOM      8  H   UNL     1       4.976  -4.721  21.077  0.00  0.00    +0.210 HD
ENDBRANCH   6   7
BRANCH   5   9
ATOM      9  O   UNL     1       5.870  -6.322  22.465  0.00  0.00    -0.386 OA
ATOM     10  H   UNL     1       6.645  -6.825  22.138  0.00  0.00    +0.210 HD
ENDBRANCH   5   9
BRANCH   4  11
ATOM     11  O   UNL     1       4.113  -4.360  23.166  0.00  0.00    -0.383 OA
ATOM     12  H   UNL     1       3.469  -4.018  23.816  0.00  0.00    +0.210 HD
ENDBRANCH   4  11
BRANCH   3  13
ATOM     13  O   UNL     1       4.854  -2.172  24.770  0.00  0.00    -0.453 OA
BRANCH  13  14
ATOM     14  C   UNL     1       5.250  -1.335  25.804  0.00  0.00    +0.214 A 
ATOM     15  C   UNL     1       5.340   0.147  25.612  0.00  0.00    +0.238 A 
ATOM     16  O   UNL     1       4.874   0.700  24.623  0.00  0.00    -0.283 OA
ATOM     17  C   UNL     1       5.971   0.929  26.679  0.00  0.00    +0.109 A 
ATOM     18  C   UNL     1       6.175   0.296  27.900  0.00  0.00    +0.147 A 
ATOM     19  C   UNL     1       6.637   1.040  28.989  0.00  0.00    +0.092 A 
ATOM     20  C   UNL     1       6.898   2.399  28.830  0.00  0.00    +0.124 A 
ATOM     21  C   UNL     1       6.752   3.025  27.600  0.00  0.00    +0.091 A 
ATOM     22  O   UNL     1       5.940  -1.043  28.105  0.00  0.00    -0.451 OA
ATOM     23  C   UNL     1       6.292   2.286  26.517  0.00  0.00    +0.135 A 
ATOM     24  C   UNL     1       5.526  -1.830  27.032  0.00  0.00    +0.181 A 
BRANCH  24  25
ATOM     25  C   UNL     1       5.449  -3.285  27.352  0.00  0.00    +0.025 A 
ATOM     26  C   UNL     1       4.217  -3.948  27.580  0.00  0.00    +0.015 A 
ATOM     27  C   UNL     1       4.139  -5.327  27.813  0.00  0.00    +0.050 A 
ATOM     28  C   UNL     1       5.305  -6.065  27.869  0.00  0.00    +0.158 A 
ATOM     29  C   UNL     1       6.538  -5.447  27.701  0.00  0.00    +0.159 A 
ATOM     30  C   UNL     1       6.624  -4.076  27.440  0.00  0.00    +0.060 A 
BRANCH  29  31
ATOM     31  O   UNL     1       7.650  -6.237  27.795  0.00  0.00    -0.503 OA
ATOM     32  H   UNL     1       8.237  -5.867  28.477  0.00  0.00    +0.292 HD
ENDBRANCH  29  31
BRANCH  28  33
ATOM     33  O   UNL     1       5.231  -7.408  28.098  0.00  0.00    -0.503 OA
ATOM     34  H   UNL     1       4.381  -7.534  28.566  0.00  0.00    +0.292 HD
ENDBRANCH  28  33
ENDBRANCH  24  25
BRANCH  23  35
ATOM     35  O   UNL     1       6.190   2.898  25.299  0.00  0.00    -0.506 OA
ATOM     36  H   UNL     1       6.818   3.635  25.236  0.00  0.00    +0.292 HD
ENDBRANCH  23  35
BRANCH  20  37
ATOM     37  O   UNL     1       7.306   3.175  29.874  0.00  0.00    -0.507 OA
ATOM     38  H   UNL     1       7.440   2.618  30.657  0.00  0.00    +0.292 HD
ENDBRANCH  20  37
ENDBRANCH  13  14
ENDBRANCH   3  13
BRANCH   1  39
ATOM     39  C   UNL     1       8.518  -2.806  22.905  0.00  0.00    +0.197 C 
BRANCH  39  40
ATOM     40  O   UNL     1       8.858  -1.592  23.555  0.00  0.00    -0.346 OA
BRANCH  40  45
ATOM     41  C   UNL     1       9.731   1.830  24.056  0.00  0.00    +0.181 C 
ATOM     42  C   UNL     1      10.183   0.641  24.933  0.00  0.00    +0.150 C 
ATOM     43  C   UNL     1       9.184   0.108  25.965  0.00  0.00    +0.041 C 
ATOM     44  O   UNL     1      10.761  -0.404  24.137  0.00  0.00    -0.343 OA
ATOM     45  C   UNL     1       9.969  -0.873  23.033  0.00  0.00    +0.282 C 
ATOM     46  C   UNL     1       9.602   0.298  22.089  0.00  0.00    +0.201 C 
ATOM     47  C   UNL     1       8.865   1.383  22.869  0.00  0.00    +0.179 C 
BRANCH  47  48
ATOM     48  O   UNL     1       7.561   0.925  23.231  0.00  0.00    -0.386 OA
ATOM     49  H   UNL     1       7.021   1.676  23.547  0.00  0.00    +0.210 HD
ENDBRANCH  47  48
BRANCH  46  50
ATOM     50  O   UNL     1       8.835  -0.098  20.949  0.00  0.00    -0.384 OA
ATOM     51  H   UNL     1       7.954  -0.372  21.282  0.00  0.00    +0.210 HD
ENDBRANCH  46  50
BRANCH  41  52
ATOM     52  O   UNL     1       9.056   2.894  24.711  0.00  0.00    -0.340 OA
BRANCH  52  56
ATOM     53  C   UNL     1      10.707   6.739  25.108  0.00  0.00    +0.041 C 
ATOM     54  C   UNL     1       9.209   6.458  25.160  0.00  0.00    +0.149 C 
ATOM     55  O   UNL     1       8.981   5.058  25.361  0.00  0.00    -0.343 OA
ATOM     56  C   UNL     1       9.266   4.218  24.240  0.00  0.00    +0.282 C 
ATOM     57  C   UNL     1       8.340   4.618  23.070  0.00  0.00    +0.201 C 
ATOM     58  C   UNL     1       8.651   6.083  22.714  0.00  0.00    +0.179 C 
ATOM     59  C   UNL     1       8.447   6.997  23.935  0.00  0.00    +0.174 C 
BRANCH  59  60
ATOM     60  O   UNL     1       7.050   7.108  24.242  0.00  0.00    -0.387 OA
ATOM     61  H   UNL     1       6.981   7.257  25.211  0.00  0.00    +0.210 HD
ENDBRANCH  59  60
BRANCH  58  62
ATOM     62  O   UNL     1       7.881   6.507  21.586  0.00  0.00    -0.386 OA
ATOM     63  H   UNL     1       7.351   5.746  21.283  0.00  0.00    +0.210 HD
ENDBRANCH  58  62
BRANCH  57  64
ATOM     64  O   UNL     1       6.962   4.471  23.477  0.00  0.00    -0.384 OA
ATOM     65  H   UNL     1       6.897   4.860  24.374  0.00  0.00    +0.210 HD
ENDBRANCH  57  64
ENDBRANCH  52  56
ENDBRANCH  41  52
ENDBRANCH  40  45
ENDBRANCH  39  40
ENDBRANCH   1  39
TORSDOF 20
ENDMDL
MODEL 2
REMARK VINA RESULT:      -7.0      2.342      3.487
REMARK  Name = 
REMARK  22 active torsions:
REMARK  status: ('A' for Active; 'I' for Inactive)
REMARK    1  A    between atoms: C_1  and  C_2
REMARK    2  A    between atoms: C_3  and  O_61
REMARK    3  A    between atoms: C_5  and  O_60
REMARK    4  A    between atoms: C_7  and  O_59
REMARK    5  A    between atoms: C_8  and  O_11
REMARK    6  A    between atoms: O_11  and  C_12
REMARK    7  A    between atoms: C_14  and  O_58
REMARK    8  A    between atoms: C_16  and  O_57
REMARK    9  A    between atoms: C_17  and  O_22
REMARK   10  A    between atoms: C_20  and  C_21
REMARK   11  A    between atoms: O_22  and  C_23
REMARK   12  A    between atoms: C_23  and  C_24
REMARK   13  A    between atoms: C_25  and  O_56
REMARK   14  A    between atoms: C_27  and  O_55
REMARK   15  A    between atoms: C_28  and  O_54
REMARK   16  A    between atoms: C_29  and  O_32
REMARK   17  A    between atoms: O_32  and  C_33
REMARK   18  A    between atoms: C_34  and  C_46
REMARK   19  A    between atoms: C_38  and  O_45
REMARK   20  A    between atoms: C_40  and  O_44
REMARK   21  A    between atoms: C_48  and  O_53
REMARK   22  A    between atoms: C_49  and  O_52
REMARK                            x       y       z     vdW  Elec       q    Type
REMARK                         _______ _______ _______ _____ _____    ______ ____
ROOT
ATOM      1  C   UNL     1       4.128  -4.785  23.748  0.00  0.00    +0.179 C 
ATOM      2  O   UNL     1       3.196  -4.267  24.726  0.00  0.00    -0.331 OA
ATOM      3  C   UNL     1       3.157  -5.076  25.912  0.00  0.00    +0.340 C 
ATOM      4  C   UNL     1       2.600  -6.472  25.565  0.00  0.00    +0.214 C 
ATOM      5  C   UNL     1       3.386  -7.103  24.402  0.00  0.00    +0.180 C 
ATOM      6  C   UNL     1       3.574  -6.119  23.229  0.00  0.00    +0.177 C 
ENDROOT
BRANCH   6   7
ATOM      7  O   UNL     1       2.314  -5.870  22.578  0.00  0.00    -0.386 OA
ATOM      8  H   UNL     1       1.822  -6.713  22.570  0.00  0.00    +0.210 HD
ENDBRANCH   6   7
BRANCH   5   9
ATOM      9  O   UNL     1       2.722  -8.285  23.953  0.00  0.00    -0.386 OA
ATOM     10  H   UNL     1       3.234  -8.567  23.166  0.00  0.00    +0.210 HD
ENDBRANCH   5   9
BRANCH   4  11
ATOM     11  O   UNL     1       1.210  -6.380  25.182  0.00  0.00    -0.383 OA
ATOM     12  H   UNL     1       0.972  -5.432  25.174  0.00  0.00    +0.210 HD
ENDBRANCH   4  11
BRANCH   3  13
ATOM     13  O   UNL     1       2.323  -4.421  26.864  0.00  0.00    -0.453 OA
BRANCH  13  14
ATOM     14  C   UNL     1       2.744  -3.199  27.369  0.00  0.00    +0.214 A 
ATOM     15  C   UNL     1       1.979  -1.941  27.095  0.00  0.00    +0.238 A 
ATOM     16  O   UNL     1       0.857  -1.961  26.604  0.00  0.00    -0.283 OA
ATOM     17  C   UNL     1       2.606  -0.673  27.479  0.00  0.00    +0.109 A 
ATOM     18  C   UNL     1       3.713  -0.735  28.319  0.00  0.00    +0.147 A 
ATOM     19  C   UNL     1       4.254   0.448  28.829  0.00  0.00    +0.092 A 
ATOM     20  C   UNL     1       3.685   1.669  28.477  0.00  0.00    +0.124 A 
ATOM     21  C   UNL     1       2.617   1.743  27.592  0.00  0.00    +0.091 A 
ATOM     22  O   UNL     1       4.314  -1.915  28.689  0.00  0.00    -0.451 OA
ATOM     23  C   UNL     1       2.079   0.567  27.086  0.00  0.00    +0.135 A 
ATOM     24  C   UNL     1       3.835  -3.114  28.162  0.00  0.00    +0.181 A 
BRANCH  24  25
ATOM     25  C   UNL     1       4.664  -4.299  28.526  0.00  0.00    +0.025 A 
ATOM     26  C   UNL     1       4.273  -5.220  29.530  0.00  0.00    +0.015 A 
ATOM     27  C   UNL     1       5.016  -6.371  29.825  0.00  0.00    +0.050 A 
ATOM     28  C   UNL     1       6.198  -6.597  29.147  0.00  0.00    +0.158 A 
ATOM     29  C   UNL     1       6.645  -5.695  28.190  0.00  0.00    +0.159 A 
ATOM     30  C   UNL     1       5.895  -4.559  27.870  0.00  0.00    +0.060 A 
BRANCH  29  31
ATOM     31  O   UNL     1       7.836  -5.972  27.579  0.00  0.00    -0.503 OA
ATOM     32  H   UNL     1       8.414  -6.424  28.217  0.00  0.00    +0.292 HD
ENDBRANCH  29  31
BRANCH  28  33
ATOM     33  O   UNL     1       6.924  -7.716  29.434  0.00  0.00    -0.503 OA
ATOM     34  H   UNL     1       7.352  -7.521  30.292  0.00  0.00    +0.292 HD
ENDBRANCH  28  33
ENDBRANCH  24  25
BRANCH  23  35
ATOM     35  O   UNL     1       1.054   0.648  26.185  0.00  0.00    -0.506 OA
ATOM     36  H   UNL     1       1.111   1.474  25.679  0.00  0.00    +0.292 HD
ENDBRANCH  23  35
BRANCH  20  37
ATOM     37  O   UNL     1       4.149   2.847  28.984  0.00  0.00    -0.507 OA
ATOM     38  H   UNL     1       3.413   3.336  29.387  0.00  0.00    +0.292 HD
ENDBRANCH  20  37
ENDBRANCH  13  14
ENDBRANCH   3  13
BRANCH   1  39
ATOM     39  C   UNL     1       5.565  -4.914  24.304  0.00  0.00    +0.197 C 
BRANCH  39  40
ATOM     40  O   UNL     1       6.205  -3.708  24.688  0.00  0.00    -0.346 OA
BRANCH  40  45
ATOM     41  C   UNL     1       8.046  -0.872  23.549  0.00  0.00    +0.181 C 
ATOM     42  C   UNL     1       7.783  -1.250  25.024  0.00  0.00    +0.150 C 
ATOM     43  C   UNL     1       6.412  -0.894  25.607  0.00  0.00    +0.041 C 
ATOM     44  O   UNL     1       8.156  -2.611  25.288  0.00  0.00    -0.343 OA
ATOM     45  C   UNL     1       7.597  -3.604  24.413  0.00  0.00    +0.282 C 
ATOM     46  C   UNL     1       7.949  -3.291  22.937  0.00  0.00    +0.201 C 
ATOM     47  C   UNL     1       7.452  -1.896  22.570  0.00  0.00    +0.179 C 
BRANCH  47  48
ATOM     48  O   UNL     1       6.024  -1.887  22.502  0.00  0.00    -0.386 OA
ATOM     49  H   UNL     1       5.725  -2.421  21.741  0.00  0.00    +0.210 HD
ENDBRANCH  47  48
BRANCH  46  50
ATOM     50  O   UNL     1       7.447  -4.254  22.007  0.00  0.00    -0.384 OA
ATOM     51  H   UNL     1       6.686  -4.697  22.440  0.00  0.00    +0.210 HD
ENDBRANCH  46  50
BRANCH  41  52
ATOM     52  O   UNL     1       7.631   0.420  23.131  0.00  0.00    -0.340 OA
BRANCH  52  56
ATOM     53  C   UNL     1       7.680   3.546  25.942  0.00  0.00    +0.041 C 
ATOM     54  C   UNL     1       7.575   3.770  24.437  0.00  0.00    +0.149 C 
ATOM     55  O   UNL     1       7.219   2.546  23.783  0.00  0.00    -0.343 OA
ATOM     56  C   UNL     1       8.247   1.552  23.730  0.00  0.00    +0.282 C 
ATOM     57  C   UNL     1       9.440   2.113  22.926  0.00  0.00    +0.201 C 
ATOM     58  C   UNL     1       9.958   3.356  23.670  0.00  0.00    +0.179 C 
ATOM     59  C   UNL     1       8.841   4.403  23.829  0.00  0.00    +0.174 C 
BRANCH  59  60
ATOM     60  O   UNL     1       8.528   4.988  22.557  0.00  0.00    -0.387 OA
ATOM     61  H   UNL     1       7.639   5.397  22.642  0.00  0.00    +0.210 HD
ENDBRANCH  59  60
BRANCH  58  62
ATOM     62  O   UNL     1      11.114   3.892  23.022  0.00  0.00    -0.386 OA
ATOM     63  H   UNL     1      11.347   3.297  22.286  0.00  0.00    +0.210 HD
ENDBRANCH  58  62
BRANCH  57  64
ATOM     64  O   UNL     1       9.000   2.459  21.594  0.00  0.00    -0.384 OA
ATOM     65  H   UNL     1       9.134   3.425  21.503  0.00  0.00    +0.210 HD
ENDBRANCH  57  64
ENDBRANCH  52  56
ENDBRANCH  41  52
ENDBRANCH  40  45
ENDBRANCH  39  40
ENDBRANCH   1  39
TORSDOF 20
ENDMDL
MODEL 3
REMARK VINA RESULT:      -6.9      2.324      5.499
REMARK  Name = 
REMARK  22 active torsions:
REMARK  status: ('A' for Active; 'I' for Inactive)
REMARK    1  A    between atoms: C_1  and  C_2
REMARK    2  A    between atoms: C_3  and  O_61
REMARK    3  A    between atoms: C_5  and  O_60
REMARK    4  A    between atoms: C_7  and  O_59
REMARK    5  A    between atoms: C_8  and  O_11
REMARK    6  A    between atoms: O_11  and  C_12
REMARK    7  A    between atoms: C_14  and  O_58
REMARK    8  A    between atoms: C_16  and  O_57
REMARK    9  A    between atoms: C_17  and  O_22
REMARK   10  A    between atoms: C_20  and  C_21
REMARK   11  A    between atoms: O_22  and  C_23
REMARK   12  A    between atoms: C_23  and  C_24
REMARK   13  A    between atoms: C_25  and  O_56
REMARK   14  A    between atoms: C_27  and  O_55
REMARK   15  A    between atoms: C_28  and  O_54
REMARK   16  A    between atoms: C_29  and  O_32
REMARK   17  A    between atoms: O_32  and  C_33
REMARK   18  A    between atoms: C_34  and  C_46
REMARK   19  A    between atoms: C_38  and  O_45
REMARK   20  A    between atoms: C_40  and  O_44
REMARK   21  A    between atoms: C_48  and  O_53
REMARK   22  A    between atoms: C_49  and  O_52
REMARK                            x       y       z     vdW  Elec       q    Type
REMARK                         _______ _______ _______ _____ _____    ______ ____
ROOT
ATOM      1  C   UNL     1       8.404  -2.908  24.573  0.00  0.00    +0.179 C 
ATOM      2  O   UNL     1       7.223  -3.395  25.251  0.00  0.00    -0.331 OA
ATOM      3  C   UNL     1       7.461  -3.625  26.648  0.00  0.00    +0.340 C 
ATOM      4  C   UNL     1       8.487  -4.766  26.815  0.00  0.00    +0.214 C 
ATOM      5  C   UNL     1       9.761  -4.480  26.001  0.00  0.00    +0.180 C 
ATOM      6  C   UNL     1       9.440  -4.041  24.557  0.00  0.00    +0.177 C 
ENDROOT
BRANCH   6   7
ATOM      7  O   UNL     1       8.900  -5.145  23.806  0.00  0.00    -0.386 OA
ATOM      8  H   UNL     1       7.930  -5.121  23.916  0.00  0.00    +0.210 HD
ENDBRANCH   6   7
BRANCH   5   9
ATOM      9  O   UNL     1      10.598  -5.638  25.990  0.00  0.00    -0.386 OA
ATOM     10  H   UNL     1      11.477  -5.305  26.266  0.00  0.00    +0.210 HD
ENDBRANCH   5   9
BRANCH   4  11
ATOM     11  O   UNL     1       7.925  -6.018  26.366  0.00  0.00    -0.383 OA
ATOM     12  H   UNL     1       7.489  -6.435  27.134  0.00  0.00    +0.210 HD
ENDBRANCH   4  11
BRANCH   3  13
ATOM     13  O   UNL     1       6.219  -3.969  27.256  0.00  0.00    -0.453 OA
BRANCH  13  14
ATOM     14  C   UNL     1       5.107  -4.103  26.438  0.00  0.00    +0.214 A 
ATOM     15  C   UNL     1       4.798  -5.398  25.753  0.00  0.00    +0.238 A 
ATOM     16  O   UNL     1       5.378  -6.437  26.043  0.00  0.00    -0.283 OA
ATOM     17  C   UNL     1       3.736  -5.391  24.742  0.00  0.00    +0.109 A 
ATOM     18  C   UNL     1       2.905  -4.278  24.696  0.00  0.00    +0.147 A 
ATOM     19  C   UNL     1       1.791  -4.288  23.852  0.00  0.00    +0.092 A 
ATOM     20  C   UNL     1       1.541  -5.407  23.062  0.00  0.00    +0.124 A 
ATOM     21  C   UNL     1       2.399  -6.498  23.058  0.00  0.00    +0.091 A 
ATOM     22  O   UNL     1       3.114  -3.148  25.451  0.00  0.00    -0.451 OA
ATOM     23  C   UNL     1       3.506  -6.488  23.898  0.00  0.00    +0.135 A 
ATOM     24  C   UNL     1       4.241  -3.078  26.269  0.00  0.00    +0.181 A 
BRANCH  24  25
ATOM     25  C   UNL     1       4.427  -1.748  26.918  0.00  0.00    +0.025 A 
ATOM     26  C   UNL     1       5.129  -0.689  26.291  0.00  0.00    +0.015 A 
ATOM     27  C   UNL     1       5.245   0.582  26.870  0.00  0.00    +0.050 A 
ATOM     28  C   UNL     1       4.696   0.802  28.118  0.00  0.00    +0.158 A 
ATOM     29  C   UNL     1       4.042  -0.222  28.791  0.00  0.00    +0.159 A 
ATOM     30  C   UNL     1       3.897  -1.485  28.208  0.00  0.00    +0.060 A 
BRANCH  29  31
ATOM     31  O   UNL     1       3.547   0.064  30.033  0.00  0.00    -0.503 OA
ATOM     32  H   UNL     1       3.000   0.866  29.972  0.00  0.00    +0.292 HD
ENDBRANCH  29  31
BRANCH  28  33
ATOM     33  O   UNL     1       4.810   2.038  28.684  0.00  0.00    -0.503 OA
ATOM     34  H   UNL     1       5.701   2.349  28.426  0.00  0.00    +0.292 HD
ENDBRANCH  28  33
ENDBRANCH  24  25
BRANCH  23  35
ATOM     35  O   UNL     1       4.368  -7.548  23.861  0.00  0.00    -0.506 OA
ATOM     36  H   UNL     1       3.925  -8.334  23.503  0.00  0.00    +0.292 HD
ENDBRANCH  23  35
BRANCH  20  37
ATOM     37  O   UNL     1       0.443  -5.482  22.256  0.00  0.00    -0.507 OA
ATOM     38  H   UNL     1      -0.159  -4.749  22.463  0.00  0.00    +0.292 HD
ENDBRANCH  20  37
ENDBRANCH  13  14
ENDBRANCH   3  13
BRANCH   1  39
ATOM     39  C   UNL     1       8.956  -1.607  25.199  0.00  0.00    +0.197 C 
BRANCH  39  40
ATOM     40  O   UNL     1       8.910  -0.445  24.387  0.00  0.00    -0.346 OA
BRANCH  40  45
ATOM     41  C   UNL     1       9.541   2.408  22.341  0.00  0.00    +0.181 C 
ATOM     42  C   UNL     1       9.722   2.333  23.874  0.00  0.00    +0.150 C 
ATOM     43  C   UNL     1       8.465   2.467  24.739  0.00  0.00    +0.041 C 
ATOM     44  O   UNL     1      10.530   1.207  24.249  0.00  0.00    -0.343 OA
ATOM     45  C   UNL     1      10.117  -0.070  23.733  0.00  0.00    +0.282 C 
ATOM     46  C   UNL     1      10.036  -0.034  22.187  0.00  0.00    +0.201 C 
ATOM     47  C   UNL     1       9.082   1.071  21.742  0.00  0.00    +0.179 C 
BRANCH  47  48
ATOM     48  O   UNL     1       7.736   0.713  22.062  0.00  0.00    -0.386 OA
ATOM     49  H   UNL     1       7.567  -0.213  21.797  0.00  0.00    +0.210 HD
ENDBRANCH  47  48
BRANCH  46  50
ATOM     50  O   UNL     1       9.656  -1.281  21.599  0.00  0.00    -0.384 OA
ATOM     51  H   UNL     1      10.486  -1.759  21.387  0.00  0.00    +0.210 HD
ENDBRANCH  46  50
BRANCH  41  52
ATOM     52  O   UNL     1       8.683   3.425  21.844  0.00  0.00    -0.340 OA
BRANCH  52  56
ATOM     53  C   UNL     1       5.055   2.710  23.845  0.00  0.00    +0.041 C 
ATOM     54  C   UNL     1       5.186   3.650  22.651  0.00  0.00    +0.149 C 
ATOM     55  O   UNL     1       6.425   3.411  21.973  0.00  0.00    -0.343 OA
ATOM     56  C   UNL     1       7.600   3.853  22.659  0.00  0.00    +0.282 C 
ATOM     57  C   UNL     1       7.524   5.384  22.841  0.00  0.00    +0.201 C 
ATOM     58  C   UNL     1       6.280   5.688  23.694  0.00  0.00    +0.179 C 
ATOM     59  C   UNL     1       5.009   5.134  23.024  0.00  0.00    +0.174 C 
BRANCH  59  60
ATOM     60  O   UNL     1       4.696   5.896  21.850  0.00  0.00    -0.387 OA
ATOM     61  H   UNL     1       3.964   6.504  22.091  0.00  0.00    +0.210 HD
ENDBRANCH  59  60
BRANCH  58  62
ATOM     62  O   UNL     1       6.180   7.088  23.968  0.00  0.00    -0.386 OA
ATOM     63  H   UNL     1       6.985   7.518  23.626  0.00  0.00    +0.210 HD
ENDBRANCH  58  62
BRANCH  57  64
ATOM     64  O   UNL     1       7.424   6.017  21.546  0.00  0.00    -0.384 OA
ATOM     65  H   UNL     1       8.265   5.827  21.081  0.00  0.00    +0.210 HD
ENDBRANCH  57  64
ENDBRANCH  52  56
ENDBRANCH  41  52
ENDBRANCH  40  45
ENDBRANCH  39  40
ENDBRANCH   1  39
TORSDOF 20
ENDMDL
MODEL 4
REMARK VINA RESULT:      -6.8      2.155      3.441
REMARK  Name = 
REMARK  22 active torsions:
REMARK  status: ('A' for Active; 'I' for Inactive)
REMARK    1  A    between atoms: C_1  and  C_2
REMARK    2  A    between atoms: C_3  and  O_61
REMARK    3  A    between atoms: C_5  and  O_60
REMARK    4  A    between atoms: C_7  and  O_59
REMARK    5  A    between atoms: C_8  and  O_11
REMARK    6  A    between atoms: O_11  and  C_12
REMARK    7  A    between atoms: C_14  and  O_58
REMARK    8  A    between atoms: C_16  and  O_57
REMARK    9  A    between atoms: C_17  and  O_22
REMARK   10  A    between atoms: C_20  and  C_21
REMARK   11  A    between atoms: O_22  and  C_23
REMARK   12  A    between atoms: C_23  and  C_24
REMARK   13  A    between atoms: C_25  and  O_56
REMARK   14  A    between atoms: C_27  and  O_55
REMARK   15  A    between atoms: C_28  and  O_54
REMARK   16  A    between atoms: C_29  and  O_32
REMARK   17  A    between atoms: O_32  and  C_33
REMARK   18  A    between atoms: C_34  and  C_46
REMARK   19  A    between atoms: C_38  and  O_45
REMARK   20  A    between atoms: C_40  and  O_44
REMARK   21  A    between atoms: C_48  and  O_53
REMARK   22  A    between atoms: C_49  and  O_52
REMARK                            x       y       z     vdW  Elec       q    Type
REMARK                         _______ _______ _______ _____ _____    ______ ____
ROOT
ATOM      1  C   UNL     1       8.451  -3.226  23.921  0.00  0.00    +0.179 C 
ATOM      2  O   UNL     1       7.324  -3.154  24.825  0.00  0.00    -0.331 OA
ATOM      3  C   UNL     1       7.730  -3.240  26.200  0.00  0.00    +0.340 C 
ATOM      4  C   UNL     1       8.339  -4.632  26.470  0.00  0.00    +0.214 C 
ATOM      5  C   UNL     1       9.461  -4.944  25.464  0.00  0.00    +0.180 C 
ATOM      6  C   UNL     1       9.038  -4.642  24.012  0.00  0.00    +0.177 C 
ENDROOT
BRANCH   6   7
ATOM      7  O   UNL     1       8.037  -5.581  23.576  0.00  0.00    -0.386 OA
ATOM      8  H   UNL     1       7.270  -5.062  23.266  0.00  0.00    +0.210 HD
ENDBRANCH   6   7
BRANCH   5   9
ATOM      9  O   UNL     1       9.856  -6.311  25.589  0.00  0.00    -0.386 OA
ATOM     10  H   UNL     1      10.028  -6.428  26.546  0.00  0.00    +0.210 HD
ENDBRANCH   5   9
BRANCH   4  11
ATOM     11  O   UNL     1       7.325  -5.656  26.360  0.00  0.00    -0.383 OA
ATOM     12  H   UNL     1       7.580  -6.384  26.959  0.00  0.00    +0.210 HD
ENDBRANCH   4  11
BRANCH   3  13
ATOM     13  O   UNL     1       6.580  -3.024  27.013  0.00  0.00    -0.453 OA
BRANCH  13  14
ATOM     14  C   UNL     1       5.904  -1.820  26.881  0.00  0.00    +0.214 A 
ATOM     15  C   UNL     1       6.559  -0.519  27.230  0.00  0.00    +0.238 A 
ATOM     16  O   UNL     1       7.763  -0.438  27.439  0.00  0.00    -0.283 OA
ATOM     17  C   UNL     1       5.711   0.676  27.269  0.00  0.00    +0.109 A 
ATOM     18  C   UNL     1       4.443   0.578  26.707  0.00  0.00    +0.147 A 
ATOM     19  C   UNL     1       3.654   1.725  26.589  0.00  0.00    +0.092 A 
ATOM     20  C   UNL     1       4.146   2.945  27.048  0.00  0.00    +0.124 A 
ATOM     21  C   UNL     1       5.387   3.040  27.664  0.00  0.00    +0.091 A 
ATOM     22  O   UNL     1       3.910  -0.603  26.247  0.00  0.00    -0.451 OA
ATOM     23  C   UNL     1       6.171   1.899  27.781  0.00  0.00    +0.135 A 
ATOM     24  C   UNL     1       4.644  -1.779  26.391  0.00  0.00    +0.181 A 
BRANCH  24  25
ATOM     25  C   UNL     1       3.896  -3.005  25.986  0.00  0.00    +0.025 A 
ATOM     26  C   UNL     1       3.103  -3.746  26.898  0.00  0.00    +0.015 A 
ATOM     27  C   UNL     1       2.345  -4.856  26.503  0.00  0.00    +0.050 A 
ATOM     28  C   UNL     1       2.405  -5.276  25.189  0.00  0.00    +0.158 A 
ATOM     29  C   UNL     1       3.208  -4.609  24.272  0.00  0.00    +0.159 A 
ATOM     30  C   UNL     1       3.945  -3.483  24.651  0.00  0.00    +0.060 A 
BRANCH  29  31
ATOM     31  O   UNL     1       3.236  -5.097  22.995  0.00  0.00    -0.503 OA
ATOM     32  H   UNL     1       3.285  -4.347  22.377  0.00  0.00    +0.292 HD
ENDBRANCH  29  31
BRANCH  28  33
ATOM     33  O   UNL     1       1.669  -6.358  24.803  0.00  0.00    -0.503 OA
ATOM     34  H   UNL     1       0.787  -5.996  24.589  0.00  0.00    +0.292 HD
ENDBRANCH  28  33
ENDBRANCH  24  25
BRANCH  23  35
ATOM     35  O   UNL     1       7.374   1.991  28.423  0.00  0.00    -0.506 OA
ATOM     36  H   UNL     1       7.309   2.596  29.179  0.00  0.00    +0.292 HD
ENDBRANCH  23  35
BRANCH  20  37
ATOM     37  O   UNL     1       3.434   4.099  26.915  0.00  0.00    -0.507 OA
ATOM     38  H   UNL     1       3.477   4.602  27.744  0.00  0.00    +0.292 HD
ENDBRANCH  20  37
ENDBRANCH  13  14
ENDBRANCH   3  13
BRANCH   1  39
ATOM     39  C   UNL     1       9.505  -2.128  24.194  0.00  0.00    +0.197 C 
BRANCH  39  40
ATOM     40  O   UNL     1       9.182  -0.819  23.754  0.00  0.00    -0.346 OA
BRANCH  40  45
ATOM     41  C   UNL     1       8.009   2.121  22.110  0.00  0.00    +0.181 C 
ATOM     42  C   UNL     1       9.402   1.477  21.931  0.00  0.00    +0.150 C 
ATOM     43  C   UNL     1      10.451   1.759  23.011  0.00  0.00    +0.041 C 
ATOM     44  O   UNL     1       9.294   0.079  21.621  0.00  0.00    -0.343 OA
ATOM     45  C   UNL     1       8.492  -0.709  22.515  0.00  0.00    +0.282 C 
ATOM     46  C   UNL     1       7.058  -0.131  22.616  0.00  0.00    +0.201 C 
ATOM     47  C   UNL     1       7.116   1.324  23.072  0.00  0.00    +0.179 C 
BRANCH  47  48
ATOM     48  O   UNL     1       7.519   1.392  24.442  0.00  0.00    -0.386 OA
ATOM     49  H   UNL     1       7.621   0.489  24.803  0.00  0.00    +0.210 HD
ENDBRANCH  47  48
BRANCH  46  50
ATOM     50  O   UNL     1       6.192  -0.882  23.471  0.00  0.00    -0.384 OA
ATOM     51  H   UNL     1       5.383  -1.080  22.952  0.00  0.00    +0.210 HD
ENDBRANCH  46  50
BRANCH  41  52
ATOM     52  O   UNL     1       7.975   3.482  22.513  0.00  0.00    -0.340 OA
BRANCH  52  56
ATOM     53  C   UNL     1       3.851   3.536  23.328  0.00  0.00    +0.041 C 
ATOM     54  C   UNL     1       4.618   4.740  22.790  0.00  0.00    +0.149 C 
ATOM     55  O   UNL     1       5.889   4.322  22.278  0.00  0.00    -0.343 OA
ATOM     56  C   UNL     1       6.855   3.937  23.260  0.00  0.00    +0.282 C 
ATOM     57  C   UNL     1       7.159   5.154  24.162  0.00  0.00    +0.201 C 
ATOM     58  C   UNL     1       5.845   5.556  24.856  0.00  0.00    +0.179 C 
ATOM     59  C   UNL     1       4.756   5.879  23.817  0.00  0.00    +0.174 C 
BRANCH  59  60
ATOM     60  O   UNL     1       5.065   7.107  23.142  0.00  0.00    -0.387 OA
ATOM     61  H   UNL     1       4.430   7.781  23.469  0.00  0.00    +0.210 HD
ENDBRANCH  59  60
BRANCH  58  62
ATOM     62  O   UNL     1       6.062   6.636  25.768  0.00  0.00    -0.386 OA
ATOM     63  H   UNL     1       6.845   7.131  25.465  0.00  0.00    +0.210 HD
ENDBRANCH  58  62
BRANCH  57  64
ATOM     64  O   UNL     1       7.663   6.238  23.351  0.00  0.00    -0.384 OA
ATOM     65  H   UNL     1       6.893   6.598  22.864  0.00  0.00    +0.210 HD
ENDBRANCH  57  64
ENDBRANCH  52  56
ENDBRANCH  41  52
ENDBRANCH  40  45
ENDBRANCH  39  40
ENDBRANCH   1  39
TORSDOF 20
ENDMDL
MODEL 5
REMARK VINA RESULT:      -6.6      2.142      5.354
REMARK  Name = 
REMARK  22 active torsions:
REMARK  status: ('A' for Active; 'I' for Inactive)
REMARK    1  A    between atoms: C_1  and  C_2
REMARK    2  A    between atoms: C_3  and  O_61
REMARK    3  A    between atoms: C_5  and  O_60
REMARK    4  A    between atoms: C_7  and  O_59
REMARK    5  A    between atoms: C_8  and  O_11
REMARK    6  A    between atoms: O_11  and  C_12
REMARK    7  A    between atoms: C_14  and  O_58
REMARK    8  A    between atoms: C_16  and  O_57
REMARK    9  A    between atoms: C_17  and  O_22
REMARK   10  A    between atoms: C_20  and  C_21
REMARK   11  A    between atoms: O_22  and  C_23
REMARK   12  A    between atoms: C_23  and  C_24
REMARK   13  A    between atoms: C_25  and  O_56
REMARK   14  A    between atoms: C_27  and  O_55
REMARK   15  A    between atoms: C_28  and  O_54
REMARK   16  A    between atoms: C_29  and  O_32
REMARK   17  A    between atoms: O_32  and  C_33
REMARK   18  A    between atoms: C_34  and  C_46
REMARK   19  A    between atoms: C_38  and  O_45
REMARK   20  A    between atoms: C_40  and  O_44
REMARK   21  A    between atoms: C_48  and  O_53
REMARK   22  A    between atoms: C_49  and  O_52
REMARK                            x       y       z     vdW  Elec       q    Type
REMARK                         _______ _______ _______ _____ _____    ______ ____
ROOT
ATOM      1  C   UNL     1       3.661  -1.253  29.488  0.00  0.00    +0.179 C 
ATOM      2  O   UNL     1       4.464  -2.358  29.010  0.00  0.00    -0.331 OA
ATOM      3  C   UNL     1       4.942  -2.136  27.674  0.00  0.00    +0.340 C 
ATOM      4  C   UNL     1       3.747  -2.091  26.700  0.00  0.00    +0.214 C 
ATOM      5  C   UNL     1       2.698  -1.067  27.167  0.00  0.00    +0.180 C 
ATOM      6  C   UNL     1       2.365  -1.220  28.666  0.00  0.00    +0.177 C 
ENDROOT
BRANCH   6   7
ATOM      7  O   UNL     1       1.646  -2.446  28.896  0.00  0.00    -0.386 OA
ATOM      8  H   UNL     1       1.919  -2.781  29.772  0.00  0.00    +0.210 HD
ENDBRANCH   6   7
BRANCH   5   9
ATOM      9  O   UNL     1       1.510  -1.198  26.383  0.00  0.00    -0.386 OA
ATOM     10  H   UNL     1       1.099  -2.028  26.703  0.00  0.00    +0.210 HD
ENDBRANCH   5   9
BRANCH   4  11
ATOM     11  O   UNL     1       3.117  -3.388  26.614  0.00  0.00    -0.383 OA
ATOM     12  H   UNL     1       3.085  -3.634  25.669  0.00  0.00    +0.210 HD
ENDBRANCH   4  11
BRANCH   3  13
ATOM     13  O   UNL     1       5.827  -3.203  27.341  0.00  0.00    -0.453 OA
BRANCH  13  14
ATOM     14  C   UNL     1       6.669  -3.036  26.251  0.00  0.00    +0.214 A 
ATOM     15  C   UNL     1       7.648  -1.904  26.191  0.00  0.00    +0.238 A 
ATOM     16  O   UNL     1       7.897  -1.213  27.172  0.00  0.00    -0.283 OA
ATOM     17  C   UNL     1       8.340  -1.675  24.919  0.00  0.00    +0.109 A 
ATOM     18  C   UNL     1       8.265  -2.680  23.961  0.00  0.00    +0.147 A 
ATOM     19  C   UNL     1       9.025  -2.574  22.794  0.00  0.00    +0.092 A 
ATOM     20  C   UNL     1       9.836  -1.457  22.604  0.00  0.00    +0.124 A 
ATOM     21  C   UNL     1       9.872  -0.422  23.529  0.00  0.00    +0.091 A 
ATOM     22  O   UNL     1       7.474  -3.797  24.099  0.00  0.00    -0.451 OA
ATOM     23  C   UNL     1       9.115  -0.529  24.690  0.00  0.00    +0.135 A 
ATOM     24  C   UNL     1       6.662  -3.917  25.225  0.00  0.00    +0.181 A 
BRANCH  24  25
ATOM     25  C   UNL     1       5.750  -5.097  25.181  0.00  0.00    +0.025 A 
ATOM     26  C   UNL     1       5.615  -5.994  26.271  0.00  0.00    +0.015 A 
ATOM     27  C   UNL     1       4.708  -7.062  26.256  0.00  0.00    +0.050 A 
ATOM     28  C   UNL     1       3.949  -7.281  25.124  0.00  0.00    +0.158 A 
ATOM     29  C   UNL     1       4.085  -6.457  24.014  0.00  0.00    +0.159 A 
ATOM     30  C   UNL     1       4.967  -5.372  24.030  0.00  0.00    +0.060 A 
BRANCH  29  31
ATOM     31  O   UNL     1       3.319  -6.751  22.920  0.00  0.00    -0.503 OA
ATOM     32  H   UNL     1       2.383  -6.730  23.182  0.00  0.00    +0.292 HD
ENDBRANCH  29  31
BRANCH  28  33
ATOM     33  O   UNL     1       3.068  -8.323  25.107  0.00  0.00    -0.503 OA
ATOM     34  H   UNL     1       3.593  -9.098  25.386  0.00  0.00    +0.292 HD
ENDBRANCH  28  33
ENDBRANCH  24  25
BRANCH  23  35
ATOM     35  O   UNL     1       9.124   0.511  25.577  0.00  0.00    -0.506 OA
ATOM     36  H   UNL     1       8.250   0.930  25.618  0.00  0.00    +0.292 HD
ENDBRANCH  23  35
BRANCH  20  37
ATOM     37  O   UNL     1      10.631  -1.329  21.504  0.00  0.00    -0.507 OA
ATOM     38  H   UNL     1      10.982  -2.200  21.257  0.00  0.00    +0.292 HD
ENDBRANCH  20  37
ENDBRANCH  13  14
ENDBRANCH   3  13
BRANCH   1  39
ATOM     39  C   UNL     1       4.421   0.093  29.454  0.00  0.00    +0.197 C 
BRANCH  39  40
ATOM     40  O   UNL     1       4.663   0.651  28.173  0.00  0.00    -0.346 OA
BRANCH  40  45
ATOM     41  C   UNL     1       6.404   2.992  26.120  0.00  0.00    +0.181 C 
ATOM     42  C   UNL     1       5.169   2.163  25.702  0.00  0.00    +0.150 C 
ATOM     43  C   UNL     1       5.404   0.704  25.300  0.00  0.00    +0.041 C 
ATOM     44  O   UNL     1       4.100   2.306  26.651  0.00  0.00    -0.343 OA
ATOM     45  C   UNL     1       4.432   2.047  28.025  0.00  0.00    +0.282 C 
ATOM     46  C   UNL     1       5.602   2.953  28.484  0.00  0.00    +0.201 C 
ATOM     47  C   UNL     1       6.811   2.738  27.578  0.00  0.00    +0.179 C 
BRANCH  47  48
ATOM     48  O   UNL     1       7.377   1.447  27.816  0.00  0.00    -0.386 OA
ATOM     49  H   UNL     1       7.020   1.076  28.646  0.00  0.00    +0.210 HD
ENDBRANCH  47  48
BRANCH  46  50
ATOM     50  O   UNL     1       5.971   2.770  29.853  0.00  0.00    -0.384 OA
ATOM     51  H   UNL     1       5.982   1.803  30.017  0.00  0.00    +0.210 HD
ENDBRANCH  46  50
BRANCH  41  52
ATOM     52  O   UNL     1       7.567   2.865  25.315  0.00  0.00    -0.340 OA
BRANCH  52  56
ATOM     53  C   UNL     1       8.515   6.892  26.063  0.00  0.00    +0.041 C 
ATOM     54  C   UNL     1       8.093   6.367  24.694  0.00  0.00    +0.149 C 
ATOM     55  O   UNL     1       7.496   5.072  24.829  0.00  0.00    -0.343 OA
ATOM     56  C   UNL     1       8.396   4.006  25.143  0.00  0.00    +0.282 C 
ATOM     57  C   UNL     1       9.419   3.866  23.995  0.00  0.00    +0.201 C 
ATOM     58  C   UNL     1      10.196   5.191  23.902  0.00  0.00    +0.179 C 
ATOM     59  C   UNL     1       9.237   6.371  23.664  0.00  0.00    +0.174 C 
BRANCH  59  60
ATOM     60  O   UNL     1       8.696   6.308  22.337  0.00  0.00    -0.387 OA
ATOM     61  H   UNL     1       8.378   7.210  22.114  0.00  0.00    +0.210 HD
ENDBRANCH  59  60
BRANCH  58  62
ATOM     62  O   UNL     1      11.218   5.113  22.904  0.00  0.00    -0.386 OA
ATOM     63  H   UNL     1      11.026   5.788  22.227  0.00  0.00    +0.210 HD
ENDBRANCH  58  62
BRANCH  57  64
ATOM     64  O   UNL     1       8.721   3.594  22.760  0.00  0.00    -0.384 OA
ATOM     65  H   UNL     1       9.234   2.898  22.301  0.00  0.00    +0.210 HD
ENDBRANCH  57  64
ENDBRANCH  52  56
ENDBRANCH  41  52
ENDBRANCH  40  45
ENDBRANCH  39  40
ENDBRANCH   1  39
TORSDOF 20
ENDMDL
MODEL 6
REMARK VINA RESULT:      -6.5      2.354      3.605
REMARK  Name = 
REMARK  22 active torsions:
REMARK  status: ('A' for Active; 'I' for Inactive)
REMARK    1  A    between atoms: C_1  and  C_2
REMARK    2  A    between atoms: C_3  and  O_61
REMARK    3  A    between atoms: C_5  and  O_60
REMARK    4  A    between atoms: C_7  and  O_59
REMARK    5  A    between atoms: C_8  and  O_11
REMARK    6  A    between atoms: O_11  and  C_12
REMARK    7  A    between atoms: C_14  and  O_58
REMARK    8  A    between atoms: C_16  and  O_57
REMARK    9  A    between atoms: C_17  and  O_22
REMARK   10  A    between atoms: C_20  and  C_21
REMARK   11  A    between atoms: O_22  and  C_23
REMARK   12  A    between atoms: C_23  and  C_24
REMARK   13  A    between atoms: C_25  and  O_56
REMARK   14  A    between atoms: C_27  and  O_55
REMARK   15  A    between atoms: C_28  and  O_54
REMARK   16  A    between atoms: C_29  and  O_32
REMARK   17  A    between atoms: O_32  and  C_33
REMARK   18  A    between atoms: C_34  and  C_46
REMARK   19  A    between atoms: C_38  and  O_45
REMARK   20  A    between atoms: C_40  and  O_44
REMARK   21  A    between atoms: C_48  and  O_53
REMARK   22  A    between atoms: C_49  and  O_52
REMARK                            x       y       z     vdW  Elec       q    Type
REMARK                         _______ _______ _______ _____ _____    ______ ____
ROOT
ATOM      1  C   UNL     1       8.166  -2.904  24.616  0.00  0.00    +0.179 C 
ATOM      2  O   UNL     1       7.008  -3.279  25.398  0.00  0.00    -0.331 OA
ATOM      3  C   UNL     1       7.361  -3.639  26.742  0.00  0.00    +0.340 C 
ATOM      4  C   UNL     1       8.230  -4.913  26.723  0.00  0.00    +0.214 C 
ATOM      5  C   UNL     1       9.436  -4.740  25.784  0.00  0.00    +0.180 C 
ATOM      6  C   UNL     1       9.026  -4.159  24.415  0.00  0.00    +0.177 C 
ENDROOT
BRANCH   6   7
ATOM      7  O   UNL     1       8.260  -5.125  23.670  0.00  0.00    -0.386 OA
ATOM      8  H   UNL     1       8.580  -5.097  22.748  0.00  0.00    +0.210 HD
ENDBRANCH   6   7
BRANCH   5   9
ATOM      9  O   UNL     1      10.098  -5.994  25.609  0.00  0.00    -0.386 OA
ATOM     10  H   UNL     1      11.051  -5.767  25.605  0.00  0.00    +0.210 HD
ENDBRANCH   5   9
BRANCH   4  11
ATOM     11  O   UNL     1       7.454  -6.045  26.271  0.00  0.00    -0.383 OA
ATOM     12  H   UNL     1       7.766  -6.828  26.765  0.00  0.00    +0.210 HD
ENDBRANCH   4  11
BRANCH   3  13
ATOM     13  O   UNL     1       6.155  -3.859  27.470  0.00  0.00    -0.453 OA
BRANCH  13  14
ATOM     14  C   UNL     1       5.103  -2.976  27.272  0.00  0.00    +0.214 A 
ATOM     15  C   UNL     1       5.244  -1.518  27.580  0.00  0.00    +0.238 A 
ATOM     16  O   UNL     1       6.333  -1.009  27.813  0.00  0.00    -0.283 OA
ATOM     17  C   UNL     1       4.027  -0.700  27.550  0.00  0.00    +0.109 A 
ATOM     18  C   UNL     1       2.897  -1.259  26.963  0.00  0.00    +0.147 A 
ATOM     19  C   UNL     1       1.759  -0.469  26.779  0.00  0.00    +0.092 A 
ATOM     20  C   UNL     1       1.771   0.859  27.197  0.00  0.00    +0.124 A 
ATOM     21  C   UNL     1       2.876   1.407  27.836  0.00  0.00    +0.091 A 
ATOM     22  O   UNL     1       2.832  -2.566  26.541  0.00  0.00    -0.451 OA
ATOM     23  C   UNL     1       4.007   0.622  28.019  0.00  0.00    +0.135 A 
ATOM     24  C   UNL     1       3.929  -3.400  26.752  0.00  0.00    +0.181 A 
BRANCH  24  25
ATOM     25  C   UNL     1       3.676  -4.823  26.383  0.00  0.00    +0.025 A 
ATOM     26  C   UNL     1       2.854  -5.675  27.161  0.00  0.00    +0.015 A 
ATOM     27  C   UNL     1       2.561  -6.991  26.778  0.00  0.00    +0.050 A 
ATOM     28  C   UNL     1       3.129  -7.496  25.626  0.00  0.00    +0.158 A 
ATOM     29  C   UNL     1       3.981  -6.712  24.858  0.00  0.00    +0.159 A 
ATOM     30  C   UNL     1       4.256  -5.389  25.217  0.00  0.00    +0.060 A 
BRANCH  29  31
ATOM     31  O   UNL     1       4.525  -7.288  23.744  0.00  0.00    -0.503 OA
ATOM     32  H   UNL     1       4.234  -6.788  22.962  0.00  0.00    +0.292 HD
ENDBRANCH  29  31
BRANCH  28  33
ATOM     33  O   UNL     1       2.846  -8.778  25.253  0.00  0.00    -0.503 OA
ATOM     34  H   UNL     1       2.017  -8.710  24.738  0.00  0.00    +0.292 HD
ENDBRANCH  28  33
ENDBRANCH  24  25
BRANCH  23  35
ATOM     35  O   UNL     1       5.076   1.155  28.684  0.00  0.00    -0.506 OA
ATOM     36  H   UNL     1       4.921   2.092  28.879  0.00  0.00    +0.292 HD
ENDBRANCH  23  35
BRANCH  20  37
ATOM     37  O   UNL     1       0.702   1.682  26.999  0.00  0.00    -0.507 OA
ATOM     38  H   UNL     1       0.995   2.483  26.536  0.00  0.00    +0.292 HD
ENDBRANCH  20  37
ENDBRANCH  13  14
ENDBRANCH   3  13
BRANCH   1  39
ATOM     39  C   UNL     1       8.958  -1.735  25.247  0.00  0.00    +0.197 C 
BRANCH  39  40
ATOM     40  O   UNL     1       8.927  -0.501  24.550  0.00  0.00    -0.346 OA
BRANCH  40  45
ATOM     41  C   UNL     1       9.456   2.290  22.392  0.00  0.00    +0.181 C 
ATOM     42  C   UNL     1       9.670   2.274  23.922  0.00  0.00    +0.150 C 
ATOM     43  C   UNL     1       8.428   2.413  24.808  0.00  0.00    +0.041 C 
ATOM     44  O   UNL     1      10.509   1.178  24.319  0.00  0.00    -0.343 OA
ATOM     45  C   UNL     1      10.112  -0.124  23.857  0.00  0.00    +0.282 C 
ATOM     46  C   UNL     1       9.999  -0.145  22.313  0.00  0.00    +0.201 C 
ATOM     47  C   UNL     1       9.013   0.923  21.850  0.00  0.00    +0.179 C 
BRANCH  47  48
ATOM     48  O   UNL     1       7.682   0.549  22.210  0.00  0.00    -0.386 OA
ATOM     49  H   UNL     1       7.051   1.230  21.905  0.00  0.00    +0.210 HD
ENDBRANCH  47  48
BRANCH  46  50
ATOM     50  O   UNL     1       9.633  -1.420  21.778  0.00  0.00    -0.384 OA
ATOM     51  H   UNL     1       8.894  -1.264  21.152  0.00  0.00    +0.210 HD
ENDBRANCH  46  50
BRANCH  41  52
ATOM     52  O   UNL     1       8.567   3.270  21.876  0.00  0.00    -0.340 OA
BRANCH  52  56
ATOM     53  C   UNL     1       4.967   2.555  23.927  0.00  0.00    +0.041 C 
ATOM     54  C   UNL     1       5.077   3.478  22.717  0.00  0.00    +0.149 C 
ATOM     55  O   UNL     1       6.310   3.239  22.030  0.00  0.00    -0.343 OA
ATOM     56  C   UNL     1       7.489   3.701  22.696  0.00  0.00    +0.282 C 
ATOM     57  C   UNL     1       7.401   5.234  22.856  0.00  0.00    +0.201 C 
ATOM     58  C   UNL     1       6.163   5.540  23.718  0.00  0.00    +0.179 C 
ATOM     59  C   UNL     1       4.890   4.965  23.071  0.00  0.00    +0.174 C 
BRANCH  59  60
ATOM     60  O   UNL     1       4.559   5.707  21.889  0.00  0.00    -0.387 OA
ATOM     61  H   UNL     1       5.375   6.175  21.607  0.00  0.00    +0.210 HD
ENDBRANCH  59  60
BRANCH  58  62
ATOM     62  O   UNL     1       6.054   6.943  23.973  0.00  0.00    -0.386 OA
ATOM     63  H   UNL     1       6.894   7.361  23.708  0.00  0.00    +0.210 HD
ENDBRANCH  58  62
BRANCH  57  64
ATOM     64  O   UNL     1       7.281   5.847  21.553  0.00  0.00    -0.384 OA
ATOM     65  H   UNL     1       7.333   5.117  20.901  0.00  0.00    +0.210 HD
ENDBRANCH  57  64
ENDBRANCH  52  56
ENDBRANCH  41  52
ENDBRANCH  40  45
ENDBRANCH  39  40
ENDBRANCH   1  39
TORSDOF 20
ENDMDL
MODEL 7
REMARK VINA RESULT:      -6.5      2.940      9.878
REMARK  Name = 
REMARK  22 active torsions:
REMARK  status: ('A' for Active; 'I' for Inactive)
REMARK    1  A    between atoms: C_1  and  C_2
REMARK    2  A    between atoms: C_3  and  O_61
REMARK    3  A    between atoms: C_5  and  O_60
REMARK    4  A    between atoms: C_7  and  O_59
REMARK    5  A    between atoms: C_8  and  O_11
REMARK    6  A    between atoms: O_11  and  C_12
REMARK    7  A    between atoms: C_14  and  O_58
REMARK    8  A    between atoms: C_16  and  O_57
REMARK    9  A    between atoms: C_17  and  O_22
REMARK   10  A    between atoms: C_20  and  C_21
REMARK   11  A    between atoms: O_22  and  C_23
REMARK   12  A    between atoms: C_23  and  C_24
REMARK   13  A    between atoms: C_25  and  O_56
REMARK   14  A    between atoms: C_27  and  O_55
REMARK   15  A    between atoms: C_28  and  O_54
REMARK   16  A    between atoms: C_29  and  O_32
REMARK   17  A    between atoms: O_32  and  C_33
REMARK   18  A    between atoms: C_34  and  C_46
REMARK   19  A    between atoms: C_38  and  O_45
REMARK   20  A    between atoms: C_40  and  O_44
REMARK   21  A    between atoms: C_48  and  O_53
REMARK   22  A    between atoms: C_49  and  O_52
REMARK                            x       y       z     vdW  Elec       q    Type
REMARK                         _______ _______ _______ _____ _____    ______ ____
ROOT
ATOM      1  C   UNL     1       9.140  -1.622  24.870  0.00  0.00    +0.179 C 
ATOM      2  O   UNL     1       9.509  -0.234  25.043  0.00  0.00    -0.331 OA
ATOM      3  C   UNL     1       8.650   0.647  24.302  0.00  0.00    +0.340 C 
ATOM      4  C   UNL     1       8.835   0.395  22.791  0.00  0.00    +0.214 C 
ATOM      5  C   UNL     1       8.643  -1.095  22.456  0.00  0.00    +0.180 C 
ATOM      6  C   UNL     1       9.434  -2.010  23.414  0.00  0.00    +0.177 C 
ENDROOT
BRANCH   6   7
ATOM      7  O   UNL     1      10.849  -1.876  23.181  0.00  0.00    -0.386 OA
ATOM      8  H   UNL     1      11.014  -0.945  22.936  0.00  0.00    +0.210 HD
ENDBRANCH   6   7
BRANCH   5   9
ATOM      9  O   UNL     1       9.033  -1.341  21.104  0.00  0.00    -0.386 OA
ATOM     10  H   UNL     1       8.239  -1.116  20.578  0.00  0.00    +0.210 HD
ENDBRANCH   5   9
BRANCH   4  11
ATOM     11  O   UNL     1      10.158   0.794  22.371  0.00  0.00    -0.383 OA
ATOM     12  H   UNL     1      10.459   0.148  21.703  0.00  0.00    +0.210 HD
ENDBRANCH   4  11
BRANCH   3  13
ATOM     13  O   UNL     1       8.999   1.988  24.638  0.00  0.00    -0.453 OA
BRANCH  13  14
ATOM     14  C   UNL     1       8.154   3.006  24.220  0.00  0.00    +0.214 A 
ATOM     15  C   UNL     1       6.665   2.858  24.290  0.00  0.00    +0.238 A 
ATOM     16  O   UNL     1       6.135   1.939  24.902  0.00  0.00    -0.283 OA
ATOM     17  C   UNL     1       5.853   3.885  23.631  0.00  0.00    +0.109 A 
ATOM     18  C   UNL     1       6.494   5.057  23.246  0.00  0.00    +0.147 A 
ATOM     19  C   UNL     1       5.737   6.121  22.749  0.00  0.00    +0.092 A 
ATOM     20  C   UNL     1       4.355   5.985  22.634  0.00  0.00    +0.124 A 
ATOM     21  C   UNL     1       3.715   4.797  22.961  0.00  0.00    +0.091 A 
ATOM     22  O   UNL     1       7.854   5.238  23.333  0.00  0.00    -0.451 OA
ATOM     23  C   UNL     1       4.468   3.739  23.456  0.00  0.00    +0.135 A 
ATOM     24  C   UNL     1       8.650   4.183  23.777  0.00  0.00    +0.181 A 
BRANCH  24  25
ATOM     25  C   UNL     1      10.113   4.459  23.685  0.00  0.00    +0.025 A 
ATOM     26  C   UNL     1      11.010   3.585  23.022  0.00  0.00    +0.015 A 
ATOM     27  C   UNL     1      12.373   3.877  22.875  0.00  0.00    +0.050 A 
ATOM     28  C   UNL     1      12.874   5.036  23.435  0.00  0.00    +0.158 A 
ATOM     29  C   UNL     1      12.040   5.897  24.137  0.00  0.00    +0.159 A 
ATOM     30  C   UNL     1      10.674   5.627  24.264  0.00  0.00    +0.060 A 
BRANCH  29  31
ATOM     31  O   UNL     1      12.612   7.011  24.685  0.00  0.00    -0.503 OA
ATOM     32  H   UNL     1      12.581   6.931  25.654  0.00  0.00    +0.292 HD
ENDBRANCH  29  31
BRANCH  28  33
ATOM     33  O   UNL     1      14.201   5.321  23.295  0.00  0.00    -0.503 OA
ATOM     34  H   UNL     1      14.226   6.115  22.725  0.00  0.00    +0.292 HD
ENDBRANCH  28  33
ENDBRANCH  24  25
BRANCH  23  35
ATOM     35  O   UNL     1       3.838   2.559  23.738  0.00  0.00    -0.506 OA
ATOM     36  H   UNL     1       4.474   1.906  24.070  0.00  0.00    +0.292 HD
ENDBRANCH  23  35
BRANCH  20  37
ATOM     37  O   UNL     1       3.569   7.009  22.198  0.00  0.00    -0.507 OA
ATOM     38  H   UNL     1       4.010   7.462  21.461  0.00  0.00    +0.292 HD
ENDBRANCH  20  37
ENDBRANCH  13  14
ENDBRANCH   3  13
BRANCH   1  39
ATOM     39  C   UNL     1       7.676  -1.904  25.277  0.00  0.00    +0.197 C 
BRANCH  39  40
ATOM     40  O   UNL     1       7.135  -3.150  24.868  0.00  0.00    -0.346 OA
BRANCH  40  45
ATOM     41  C   UNL     1       4.199  -5.150  25.196  0.00  0.00    +0.181 C 
ATOM     42  C   UNL     1       5.498  -5.559  24.465  0.00  0.00    +0.150 C 
ATOM     43  C   UNL     1       5.710  -5.013  23.050  0.00  0.00    +0.041 C 
ATOM     44  O   UNL     1       6.649  -5.373  25.304  0.00  0.00    -0.343 OA
ATOM     45  C   UNL     1       6.799  -4.073  25.897  0.00  0.00    +0.282 C 
ATOM     46  C   UNL     1       5.542  -3.701  26.723  0.00  0.00    +0.201 C 
ATOM     47  C   UNL     1       4.302  -3.758  25.834  0.00  0.00    +0.179 C 
BRANCH  47  48
ATOM     48  O   UNL     1       4.323  -2.679  24.896  0.00  0.00    -0.386 OA
ATOM     49  H   UNL     1       4.313  -3.032  23.985  0.00  0.00    +0.210 HD
ENDBRANCH  47  48
BRANCH  46  50
ATOM     50  O   UNL     1       5.630  -2.427  27.367  0.00  0.00    -0.384 OA
ATOM     51  H   UNL     1       6.533  -2.085  27.195  0.00  0.00    +0.210 HD
ENDBRANCH  46  50
BRANCH  41  52
ATOM     52  O   UNL     1       2.996  -5.196  24.444  0.00  0.00    -0.340 OA
BRANCH  52  56
ATOM     53  C   UNL     1       0.452  -7.009  27.258  0.00  0.00    +0.041 C 
ATOM     54  C   UNL     1       1.638  -7.721  26.615  0.00  0.00    +0.149 C 
ATOM     55  O   UNL     1       2.508  -6.764  25.999  0.00  0.00    -0.343 OA
ATOM     56  C   UNL     1       2.012  -6.157  24.802  0.00  0.00    +0.282 C 
ATOM     57  C   UNL     1       1.798  -7.257  23.740  0.00  0.00    +0.201 C 
ATOM     58  C   UNL     1       0.753  -8.241  24.295  0.00  0.00    +0.179 C 
ATOM     59  C   UNL     1       1.219  -8.834  25.637  0.00  0.00    +0.174 C 
BRANCH  59  60
ATOM     60  O   UNL     1       2.317  -9.732  25.425  0.00  0.00    -0.387 OA
ATOM     61  H   UNL     1       2.437  -9.813  24.453  0.00  0.00    +0.210 HD
ENDBRANCH  59  60
BRANCH  58  62
ATOM     62  O   UNL     1       0.446  -9.254  23.333  0.00  0.00    -0.386 OA
ATOM     63  H   UNL     1       0.414  -8.832  22.454  0.00  0.00    +0.210 HD
ENDBRANCH  58  62
BRANCH  57  64
ATOM     64  O   UNL     1       3.051  -7.930  23.486  0.00  0.00    -0.384 OA
ATOM     65  H   UNL     1       2.953  -8.837  23.842  0.00  0.00    +0.210 HD
ENDBRANCH  57  64
ENDBRANCH  52  56
ENDBRANCH  41  52
ENDBRANCH  40  45
ENDBRANCH  39  40
ENDBRANCH   1  39
TORSDOF 20
ENDMDL
MODEL 8
REMARK VINA RESULT:      -6.2      2.389      9.669
REMARK  Name = 
REMARK  22 active torsions:
REMARK  status: ('A' for Active; 'I' for Inactive)
REMARK    1  A    between atoms: C_1  and  C_2
REMARK    2  A    between atoms: C_3  and  O_61
REMARK    3  A    between atoms: C_5  and  O_60
REMARK    4  A    between atoms: C_7  and  O_59
REMARK    5  A    between atoms: C_8  and  O_11
REMARK    6  A    between atoms: O_11  and  C_12
REMARK    7  A    between atoms: C_14  and  O_58
REMARK    8  A    between atoms: C_16  and  O_57
REMARK    9  A    between atoms: C_17  and  O_22
REMARK   10  A    between atoms: C_20  and  C_21
REMARK   11  A    between atoms: O_22  and  C_23
REMARK   12  A    between atoms: C_23  and  C_24
REMARK   13  A    between atoms: C_25  and  O_56
REMARK   14  A    between atoms: C_27  and  O_55
REMARK   15  A    between atoms: C_28  and  O_54
REMARK   16  A    between atoms: C_29  and  O_32
REMARK   17  A    between atoms: O_32  and  C_33
REMARK   18  A    between atoms: C_34  and  C_46
REMARK   19  A    between atoms: C_38  and  O_45
REMARK   20  A    between atoms: C_40  and  O_44
REMARK   21  A    between atoms: C_48  and  O_53
REMARK   22  A    between atoms: C_49  and  O_52
REMARK                            x       y       z     vdW  Elec       q    Type
REMARK                         _______ _______ _______ _____ _____    ______ ____
ROOT
ATOM      1  C   UNL     1       4.582   0.939  27.304  0.00  0.00    +0.179 C 
ATOM      2  O   UNL     1       5.692   0.791  26.389  0.00  0.00    -0.331 OA
ATOM      3  C   UNL     1       6.957   0.973  27.044  0.00  0.00    +0.340 C 
ATOM      4  C   UNL     1       7.074   2.428  27.543  0.00  0.00    +0.214 C 
ATOM      5  C   UNL     1       5.859   2.810  28.408  0.00  0.00    +0.180 C 
ATOM      6  C   UNL     1       4.526   2.409  27.744  0.00  0.00    +0.177 C 
ENDROOT
BRANCH   6   7
ATOM      7  O   UNL     1       4.279   3.225  26.583  0.00  0.00    -0.386 OA
ATOM      8  H   UNL     1       4.695   2.777  25.822  0.00  0.00    +0.210 HD
ENDBRANCH   6   7
BRANCH   5   9
ATOM      9  O   UNL     1       5.876   4.214  28.673  0.00  0.00    -0.386 OA
ATOM     10  H   UNL     1       5.227   4.332  29.397  0.00  0.00    +0.210 HD
ENDBRANCH   5   9
BRANCH   4  11
ATOM     11  O   UNL     1       7.146   3.340  26.425  0.00  0.00    -0.383 OA
ATOM     12  H   UNL     1       6.247   3.691  26.276  0.00  0.00    +0.210 HD
ENDBRANCH   4  11
BRANCH   3  13
ATOM     13  O   UNL     1       7.987   0.676  26.104  0.00  0.00    -0.453 OA
BRANCH  13  14
ATOM     14  C   UNL     1       7.760  -0.341  25.188  0.00  0.00    +0.214 A 
ATOM     15  C   UNL     1       7.688  -1.773  25.619  0.00  0.00    +0.238 A 
ATOM     16  O   UNL     1       7.613  -2.089  26.800  0.00  0.00    -0.283 OA
ATOM     17  C   UNL     1       7.665  -2.795  24.568  0.00  0.00    +0.109 A 
ATOM     18  C   UNL     1       7.420  -2.368  23.267  0.00  0.00    +0.147 A 
ATOM     19  C   UNL     1       7.243  -3.315  22.256  0.00  0.00    +0.092 A 
ATOM     20  C   UNL     1       7.328  -4.671  22.565  0.00  0.00    +0.124 A 
ATOM     21  C   UNL     1       7.630  -5.104  23.849  0.00  0.00    +0.091 A 
ATOM     22  O   UNL     1       7.335  -1.042  22.911  0.00  0.00    -0.451 OA
ATOM     23  C   UNL     1       7.805  -4.161  24.855  0.00  0.00    +0.135 A 
ATOM     24  C   UNL     1       7.554  -0.065  23.880  0.00  0.00    +0.181 A 
BRANCH  24  25
ATOM     25  C   UNL     1       7.578   1.323  23.335  0.00  0.00    +0.025 A 
ATOM     26  C   UNL     1       6.454   1.909  22.700  0.00  0.00    +0.015 A 
ATOM     27  C   UNL     1       6.454   3.236  22.249  0.00  0.00    +0.050 A 
ATOM     28  C   UNL     1       7.602   3.990  22.384  0.00  0.00    +0.158 A 
ATOM     29  C   UNL     1       8.743   3.441  22.955  0.00  0.00    +0.159 A 
ATOM     30  C   UNL     1       8.744   2.127  23.433  0.00  0.00    +0.060 A 
BRANCH  29  31
ATOM     31  O   UNL     1       9.850   4.240  23.031  0.00  0.00    -0.503 OA
ATOM     32  H   UNL     1       9.681   5.053  22.525  0.00  0.00    +0.292 HD
ENDBRANCH  29  31
BRANCH  28  33
ATOM     33  O   UNL     1       7.604   5.282  21.943  0.00  0.00    -0.503 OA
ATOM     34  H   UNL     1       7.879   5.809  22.719  0.00  0.00    +0.292 HD
ENDBRANCH  28  33
ENDBRANCH  24  25
BRANCH  23  35
ATOM     35  O   UNL     1       8.142  -4.592  26.107  0.00  0.00    -0.506 OA
ATOM     36  H   UNL     1       9.055  -4.341  26.319  0.00  0.00    +0.292 HD
ENDBRANCH  23  35
BRANCH  20  37
ATOM     37  O   UNL     1       7.118  -5.634  21.623  0.00  0.00    -0.507 OA
ATOM     38  H   UNL     1       6.513  -5.294  20.944  0.00  0.00    +0.292 HD
ENDBRANCH  20  37
ENDBRANCH  13  14
ENDBRANCH   3  13
BRANCH   1  39
ATOM     39  C   UNL     1       4.662  -0.037  28.500  0.00  0.00    +0.197 C 
BRANCH  39  40
ATOM     40  O   UNL     1       4.357  -1.395  28.230  0.00  0.00    -0.346 OA
BRANCH  40  45
ATOM     41  C   UNL     1       2.796  -4.536  27.583  0.00  0.00    +0.181 C 
ATOM     42  C   UNL     1       3.766  -4.229  28.746  0.00  0.00    +0.150 C 
ATOM     43  C   UNL     1       5.264  -4.214  28.427  0.00  0.00    +0.041 C 
ATOM     44  O   UNL     1       3.349  -3.067  29.479  0.00  0.00    -0.343 OA
ATOM     45  C   UNL     1       3.107  -1.880  28.705  0.00  0.00    +0.282 C 
ATOM     46  C   UNL     1       2.053  -2.153  27.603  0.00  0.00    +0.201 C 
ATOM     47  C   UNL     1       2.517  -3.302  26.713  0.00  0.00    +0.179 C 
BRANCH  47  48
ATOM     48  O   UNL     1       3.625  -2.884  25.912  0.00  0.00    -0.386 OA
ATOM     49  H   UNL     1       4.386  -2.667  26.485  0.00  0.00    +0.210 HD
ENDBRANCH  47  48
BRANCH  46  50
ATOM     50  O   UNL     1       1.740  -1.007  26.807  0.00  0.00    -0.384 OA
ATOM     51  H   UNL     1       2.563  -0.757  26.335  0.00  0.00    +0.210 HD
ENDBRANCH  46  50
BRANCH  41  52
ATOM     52  O   UNL     1       3.145  -5.608  26.719  0.00  0.00    -0.340 OA
BRANCH  52  56
ATOM     53  C   UNL     1       0.443  -4.833  23.593  0.00  0.00    +0.041 C 
ATOM     54  C   UNL     1       1.058  -6.204  23.853  0.00  0.00    +0.149 C 
ATOM     55  O   UNL     1       1.630  -6.244  25.165  0.00  0.00    -0.343 OA
ATOM     56  C   UNL     1       2.833  -5.489  25.338  0.00  0.00    +0.282 C 
ATOM     57  C   UNL     1       3.919  -6.064  24.402  0.00  0.00    +0.201 C 
ATOM     58  C   UNL     1       3.413  -5.910  22.957  0.00  0.00    +0.179 C 
ATOM     59  C   UNL     1       2.066  -6.632  22.770  0.00  0.00    +0.174 C 
BRANCH  59  60
ATOM     60  O   UNL     1       2.255  -8.053  22.817  0.00  0.00    -0.387 OA
ATOM     61  H   UNL     1       2.876  -8.234  23.556  0.00  0.00    +0.210 HD
ENDBRANCH  59  60
BRANCH  58  62
ATOM     62  O   UNL     1       4.400  -6.356  22.022  0.00  0.00    -0.386 OA
ATOM     63  H   UNL     1       5.259  -5.984  22.295  0.00  0.00    +0.210 HD
ENDBRANCH  58  62
BRANCH  57  64
ATOM     64  O   UNL     1       4.141  -7.455  24.722  0.00  0.00    -0.384 OA
ATOM     65  H   UNL     1       4.289  -7.494  25.690  0.00  0.00    +0.210 HD
ENDBRANCH  57  64
ENDBRANCH  52  56
ENDBRANCH  41  52
ENDBRANCH  40  45
ENDBRANCH  39  40
ENDBRANCH   1  39
TORSDOF 20
ENDMDL
MODEL 9
REMARK VINA RESULT:      -6.2      2.891      8.831
REMARK  Name = 
REMARK  22 active torsions:
REMARK  status: ('A' for Active; 'I' for Inactive)
REMARK    1  A    between atoms: C_1  and  C_2
REMARK    2  A    between atoms: C_3  and  O_61
REMARK    3  A    between atoms: C_5  and  O_60
REMARK    4  A    between atoms: C_7  and  O_59
REMARK    5  A    between atoms: C_8  and  O_11
REMARK    6  A    between atoms: O_11  and  C_12
REMARK    7  A    between atoms: C_14  and  O_58
REMARK    8  A    between atoms: C_16  and  O_57
REMARK    9  A    between atoms: C_17  and  O_22
REMARK   10  A    between atoms: C_20  and  C_21
REMARK   11  A    between atoms: O_22  and  C_23
REMARK   12  A    between atoms: C_23  and  C_24
REMARK   13  A    between atoms: C_25  and  O_56
REMARK   14  A    between atoms: C_27  and  O_55
REMARK   15  A    between atoms: C_28  and  O_54
REMARK   16  A    between atoms: C_29  and  O_32
REMARK   17  A    between atoms: O_32  and  C_33
REMARK   18  A    between atoms: C_34  and  C_46
REMARK   19  A    between atoms: C_38  and  O_45
REMARK   20  A    between atoms: C_40  and  O_44
REMARK   21  A    between atoms: C_48  and  O_53
REMARK   22  A    between atoms: C_49  and  O_52
REMARK                            x       y       z     vdW  Elec       q    Type
REMARK                         _______ _______ _______ _____ _____    ______ ____
ROOT
ATOM      1  C   UNL     1       9.064   0.772  24.755  0.00  0.00    +0.179 C 
ATOM      2  O   UNL     1       8.741   2.111  25.197  0.00  0.00    -0.331 OA
ATOM      3  C   UNL     1       8.017   2.847  24.199  0.00  0.00    +0.340 C 
ATOM      4  C   UNL     1       8.917   3.065  22.966  0.00  0.00    +0.214 C 
ATOM      5  C   UNL     1       9.494   1.730  22.464  0.00  0.00    +0.180 C 
ATOM      6  C   UNL     1      10.084   0.885  23.613  0.00  0.00    +0.177 C 
ENDROOT
BRANCH   6   7
ATOM      7  O   UNL     1      11.279   1.503  24.126  0.00  0.00    -0.386 OA
ATOM      8  H   UNL     1      12.027   1.169  23.594  0.00  0.00    +0.210 HD
ENDBRANCH   6   7
BRANCH   5   9
ATOM      9  O   UNL     1      10.491   1.975  21.471  0.00  0.00    -0.386 OA
ATOM     10  H   UNL     1      10.477   2.947  21.348  0.00  0.00    +0.210 HD
ENDBRANCH   5   9
BRANCH   4  11
ATOM     11  O   UNL     1      10.015   3.946  23.293  0.00  0.00    -0.383 OA
ATOM     12  H   UNL     1       9.986   4.102  24.257  0.00  0.00    +0.210 HD
ENDBRANCH   4  11
BRANCH   3  13
ATOM     13  O   UNL     1       7.626   4.093  24.768  0.00  0.00    -0.453 OA
BRANCH  13  14
ATOM     14  C   UNL     1       6.293   4.467  24.669  0.00  0.00    +0.214 A 
ATOM     15  C   UNL     1       5.776   5.187  23.462  0.00  0.00    +0.238 A 
ATOM     16  O   UNL     1       6.439   5.288  22.437  0.00  0.00    -0.283 OA
ATOM     17  C   UNL     1       4.418   5.734  23.531  0.00  0.00    +0.109 A 
ATOM     18  C   UNL     1       3.609   5.305  24.578  0.00  0.00    +0.147 A 
ATOM     19  C   UNL     1       2.264   5.683  24.605  0.00  0.00    +0.092 A 
ATOM     20  C   UNL     1       1.760   6.493  23.591  0.00  0.00    +0.124 A 
ATOM     21  C   UNL     1       2.575   6.973  22.574  0.00  0.00    +0.091 A 
ATOM     22  O   UNL     1       4.062   4.511  25.605  0.00  0.00    -0.451 OA
ATOM     23  C   UNL     1       3.912   6.597  22.547  0.00  0.00    +0.135 A 
ATOM     24  C   UNL     1       5.409   4.153  25.642  0.00  0.00    +0.181 A 
BRANCH  24  25
ATOM     25  C   UNL     1       5.798   3.417  26.880  0.00  0.00    +0.025 A 
ATOM     26  C   UNL     1       5.558   2.030  27.046  0.00  0.00    +0.015 A 
ATOM     27  C   UNL     1       5.985   1.325  28.179  0.00  0.00    +0.050 A 
ATOM     28  C   UNL     1       6.622   2.010  29.195  0.00  0.00    +0.158 A 
ATOM     29  C   UNL     1       6.833   3.380  29.096  0.00  0.00    +0.159 A 
ATOM     30  C   UNL     1       6.436   4.086  27.957  0.00  0.00    +0.060 A 
BRANCH  29  31
ATOM     31  O   UNL     1       7.447   3.994  30.152  0.00  0.00    -0.503 OA
ATOM     32  H   UNL     1       8.342   3.625  30.249  0.00  0.00    +0.292 HD
ENDBRANCH  29  31
BRANCH  28  33
ATOM     33  O   UNL     1       7.036   1.325  30.300  0.00  0.00    -0.503 OA
ATOM     34  H   UNL     1       6.308   0.701  30.493  0.00  0.00    +0.292 HD
ENDBRANCH  28  33
ENDBRANCH  24  25
BRANCH  23  35
ATOM     35  O   UNL     1       4.718   7.105  21.568  0.00  0.00    -0.506 OA
ATOM     36  H   UNL     1       5.505   7.519  21.956  0.00  0.00    +0.292 HD
ENDBRANCH  23  35
BRANCH  20  37
ATOM     37  O   UNL     1       0.445   6.851  23.548  0.00  0.00    -0.507 OA
ATOM     38  H   UNL     1      -0.075   6.229  24.082  0.00  0.00    +0.292 HD
ENDBRANCH  20  37
ENDBRANCH  13  14
ENDBRANCH   3  13
BRANCH   1  39
ATOM     39  C   UNL     1       7.812  -0.042  24.356  0.00  0.00    +0.197 C 
BRANCH  39  40
ATOM     40  O   UNL     1       7.831  -1.425  24.666  0.00  0.00    -0.346 OA
BRANCH  40  45
ATOM     41  C   UNL     1       5.895  -4.421  24.601  0.00  0.00    +0.181 C 
ATOM     42  C   UNL     1       5.383  -3.003  24.262  0.00  0.00    +0.150 C 
ATOM     43  C   UNL     1       5.040  -2.079  25.435  0.00  0.00    +0.041 C 
ATOM     44  O   UNL     1       6.223  -2.365  23.287  0.00  0.00    -0.343 OA
ATOM     45  C   UNL     1       7.628  -2.329  23.586  0.00  0.00    +0.282 C 
ATOM     46  C   UNL     1       8.173  -3.760  23.822  0.00  0.00    +0.201 C 
ATOM     47  C   UNL     1       7.391  -4.434  24.946  0.00  0.00    +0.179 C 
BRANCH  47  48
ATOM     48  O   UNL     1       7.713  -3.826  26.199  0.00  0.00    -0.386 OA
ATOM     49  H   UNL     1       7.052  -4.083  26.872  0.00  0.00    +0.210 HD
ENDBRANCH  47  48
BRANCH  46  50
ATOM     50  O   UNL     1       9.575  -3.805  24.100  0.00  0.00    -0.384 OA
ATOM     51  H   UNL     1      10.037  -3.629  23.253  0.00  0.00    +0.210 HD
ENDBRANCH  46  50
BRANCH  41  52
ATOM     52  O   UNL     1       5.207  -5.126  25.624  0.00  0.00    -0.340 OA
BRANCH  52  56
ATOM     53  C   UNL     1       1.253  -5.944  26.796  0.00  0.00    +0.041 C 
ATOM     54  C   UNL     1       2.264  -7.027  26.434  0.00  0.00    +0.149 C 
ATOM     55  O   UNL     1       3.588  -6.481  26.436  0.00  0.00    -0.343 OA
ATOM     56  C   UNL     1       3.895  -5.601  25.351  0.00  0.00    +0.282 C 
ATOM     57  C   UNL     1       3.779  -6.385  24.026  0.00  0.00    +0.201 C 
ATOM     58  C   UNL     1       2.325  -6.873  23.902  0.00  0.00    +0.179 C 
ATOM     59  C   UNL     1       1.937  -7.744  25.111  0.00  0.00    +0.174 C 
BRANCH  59  60
ATOM     60  O   UNL     1       2.626  -9.001  25.056  0.00  0.00    -0.387 OA
ATOM     61  H   UNL     1       3.232  -8.961  24.285  0.00  0.00    +0.210 HD
ENDBRANCH  59  60
BRANCH  58  62
ATOM     62  O   UNL     1       2.119  -7.550  22.659  0.00  0.00    -0.386 OA
ATOM     63  H   UNL     1       2.895  -8.118  22.496  0.00  0.00    +0.210 HD
ENDBRANCH  58  62
BRANCH  57  64
ATOM     64  O   UNL     1       4.695  -7.502  24.048  0.00  0.00    -0.384 OA
ATOM     65  H   UNL     1       4.718  -7.820  24.974  0.00  0.00    +0.210 HD
ENDBRANCH  57  64
ENDBRANCH  52  56
ENDBRANCH  41  52
ENDBRANCH  40  45
ENDBRANCH  39  40
ENDBRANCH   1  39
TORSDOF 20
ENDMDL
