MODEL 1
REMARK VINA RESULT:      -7.4      0.000      0.000
REMARK  Name = 
REMARK  20 active torsions:
REMARK  status: ('A' for Active; 'I' for Inactive)
REMARK    1  A    between atoms: C_1  and  C_2
REMARK    2  A    between atoms: C_3  and  O_54
REMARK    3  A    between atoms: C_5  and  O_53
REMARK    4  A    between atoms: C_6  and  O_52
REMARK    5  A    between atoms: C_8  and  O_11
REMARK    6  A    between atoms: O_11  and  C_12
REMARK    7  A    between atoms: C_12  and  C_13
REMARK    8  A    between atoms: C_14  and  O_47
REMARK    9  A    between atoms: C_16  and  O_46
REMARK   10  A    between atoms: C_18  and  O_45
REMARK   11  A    between atoms: C_19  and  O_22
REMARK   12  A    between atoms: O_22  and  C_23
REMARK   13  A    between atoms: C_24  and  C_36
REMARK   14  A    between atoms: C_28  and  O_35
REMARK   15  A    between atoms: C_30  and  O_34
REMARK   16  A    between atoms: C_38  and  O_43
REMARK   17  A    between atoms: C_39  and  O_42
REMARK   18  A    between atoms: O_43  and  C_44
REMARK   19  A    between atoms: O_47  and  S_48
REMARK   20  A    between atoms: S_48  and  O_51
REMARK                            x       y       z     vdW  Elec       q    Type
REMARK                         _______ _______ _______ _____ _____    ______ ____
ROOT
ATOM      1  C   UNL     1       5.466  -1.169  25.856  0.00  0.00    +0.182 C 
ATOM      2  O   UNL     1       5.954  -0.321  24.798  0.00  0.00    -0.331 OA
ATOM      3  C   UNL     1       6.259   1.043  25.099  0.00  0.00    +0.340 C 
ATOM      4  C   UNL     1       5.109   1.744  25.884  0.00  0.00    +0.214 C 
ATOM      5  C   UNL     1       4.769   0.884  27.119  0.00  0.00    +0.183 C 
ATOM      6  C   UNL     1       4.323  -0.504  26.642  0.00  0.00    +0.214 C 
ENDROOT
BRANCH   5   7
ATOM      7  O   UNL     1       3.741   1.506  27.905  0.00  0.00    -0.386 OA
ATOM      8  H   UNL     1       3.430   0.838  28.539  0.00  0.00    +0.210 HD
ENDBRANCH   5   7
BRANCH   4   9
ATOM      9  O   UNL     1       3.917   1.929  25.086  0.00  0.00    -0.383 OA
ATOM     10  H   UNL     1       3.376   1.123  25.159  0.00  0.00    +0.210 HD
ENDBRANCH   4   9
BRANCH   6  11
ATOM     11  O   UNL     1       3.846  -1.313  27.716  0.00  0.00    -0.207 OA
BRANCH  11  12
ATOM     12  S   UNL     1       2.296  -1.809  27.626  0.00  0.00    +0.208 S 
ATOM     13  O   UNL     1       1.706  -1.747  28.947  0.00  0.00    -0.118 OA
ATOM     14  O   UNL     1       2.220  -2.983  26.803  0.00  0.00    -0.118 OA
BRANCH  12  15
ATOM     15  O   UNL     1       1.617  -0.635  26.747  0.00  0.00    -0.231 OA
ATOM     16  H   UNL     1       0.828  -0.343  27.250  0.00  0.00    +0.247 HD
ENDBRANCH  12  15
ENDBRANCH  11  12
ENDBRANCH   6  11
BRANCH   3  17
ATOM     17  O   UNL     1       6.457   1.769  23.858  0.00  0.00    -0.453 OA
BRANCH  17  18
ATOM     18  C   UNL     1       7.679   2.407  23.620  0.00  0.00    +0.214 A 
ATOM     19  C   UNL     1       7.879   3.891  23.765  0.00  0.00    +0.238 A 
ATOM     20  O   UNL     1       6.936   4.666  23.833  0.00  0.00    -0.283 OA
ATOM     21  C   UNL     1       9.273   4.382  23.809  0.00  0.00    +0.109 A 
ATOM     22  C   UNL     1      10.281   3.528  23.359  0.00  0.00    +0.147 A 
ATOM     23  C   UNL     1      11.617   3.931  23.307  0.00  0.00    +0.092 A 
ATOM     24  C   UNL     1      11.942   5.219  23.736  0.00  0.00    +0.124 A 
ATOM     25  C   UNL     1      10.966   6.075  24.217  0.00  0.00    +0.091 A 
ATOM     26  O   UNL     1      10.018   2.247  22.959  0.00  0.00    -0.451 OA
ATOM     27  C   UNL     1       9.634   5.665  24.258  0.00  0.00    +0.135 A 
ATOM     28  C   UNL     1       8.787   1.706  23.280  0.00  0.00    +0.181 A 
BRANCH  28  29
ATOM     29  C   UNL     1       8.897   0.251  23.450  0.00  0.00    +0.025 A 
ATOM     30  C   UNL     1       9.558  -0.169  24.617  0.00  0.00    +0.015 A 
ATOM     31  C   UNL     1       9.894  -1.501  24.811  0.00  0.00    +0.050 A 
ATOM     32  C   UNL     1       9.416  -2.443  23.917  0.00  0.00    +0.158 A 
ATOM     33  C   UNL     1       8.661  -2.047  22.805  0.00  0.00    +0.162 A 
ATOM     34  C   UNL     1       8.503  -0.694  22.499  0.00  0.00    +0.061 A 
BRANCH  32  35
ATOM     35  O   UNL     1       9.602  -3.767  24.197  0.00  0.00    -0.503 OA
ATOM     36  H   UNL     1       9.041  -4.262  23.577  0.00  0.00    +0.292 HD
ENDBRANCH  32  35
BRANCH  33  37
ATOM     37  O   UNL     1       7.937  -2.945  22.059  0.00  0.00    -0.491 OA
ATOM     38  C   UNL     1       6.561  -2.927  22.472  0.00  0.00    +0.277 C 
ENDBRANCH  33  37
ENDBRANCH  28  29
BRANCH  27  39
ATOM     39  O   UNL     1       8.696   6.513  24.775  0.00  0.00    -0.506 OA
ATOM     40  H   UNL     1       8.094   6.032  25.358  0.00  0.00    +0.292 HD
ENDBRANCH  27  39
BRANCH  24  41
ATOM     41  O   UNL     1      13.230   5.665  23.711  0.00  0.00    -0.507 OA
ATOM     42  H   UNL     1      13.250   6.624  23.866  0.00  0.00    +0.292 HD
ENDBRANCH  24  41
ENDBRANCH  17  18
ENDBRANCH   3  17
BRANCH   1  43
ATOM     43  C   UNL     1       6.547  -2.006  26.651  0.00  0.00    +0.197 C 
BRANCH  43  44
ATOM     44  O   UNL     1       6.624  -3.424  26.429  0.00  0.00    -0.346 OA
BRANCH  44  48
ATOM     45  C   UNL     1       4.265  -4.437  30.045  0.00  0.00    +0.041 C 
ATOM     46  C   UNL     1       5.286  -5.352  29.364  0.00  0.00    +0.149 C 
ATOM     47  O   UNL     1       6.181  -4.632  28.491  0.00  0.00    -0.343 OA
ATOM     48  C   UNL     1       5.665  -4.217  27.219  0.00  0.00    +0.282 C 
ATOM     49  C   UNL     1       5.029  -5.416  26.445  0.00  0.00    +0.201 C 
ATOM     50  C   UNL     1       3.986  -6.124  27.336  0.00  0.00    +0.179 C 
ATOM     51  C   UNL     1       4.602  -6.546  28.679  0.00  0.00    +0.174 C 
BRANCH  51  52
ATOM     52  O   UNL     1       5.547  -7.604  28.450  0.00  0.00    -0.387 OA
ATOM     53  H   UNL     1       5.156  -8.415  28.830  0.00  0.00    +0.210 HD
ENDBRANCH  51  52
BRANCH  50  54
ATOM     54  O   UNL     1       3.477  -7.289  26.664  0.00  0.00    -0.386 OA
ATOM     55  H   UNL     1       3.939  -7.316  25.800  0.00  0.00    +0.210 HD
ENDBRANCH  50  54
BRANCH  49  56
ATOM     56  O   UNL     1       6.020  -6.393  26.071  0.00  0.00    -0.384 OA
ATOM     57  H   UNL     1       5.943  -6.504  25.103  0.00  0.00    +0.210 HD
ENDBRANCH  49  56
ENDBRANCH  44  48
ENDBRANCH  43  44
ENDBRANCH   1  43
TORSDOF 18
ENDMDL
MODEL 2
REMARK VINA RESULT:      -7.2      2.218      5.986
REMARK  Name = 
REMARK  20 active torsions:
REMARK  status: ('A' for Active; 'I' for Inactive)
REMARK    1  A    between atoms: C_1  and  C_2
REMARK    2  A    between atoms: C_3  and  O_54
REMARK    3  A    between atoms: C_5  and  O_53
REMARK    4  A    between atoms: C_6  and  O_52
REMARK    5  A    between atoms: C_8  and  O_11
REMARK    6  A    between atoms: O_11  and  C_12
REMARK    7  A    between atoms: C_12  and  C_13
REMARK    8  A    between atoms: C_14  and  O_47
REMARK    9  A    between atoms: C_16  and  O_46
REMARK   10  A    between atoms: C_18  and  O_45
REMARK   11  A    between atoms: C_19  and  O_22
REMARK   12  A    between atoms: O_22  and  C_23
REMARK   13  A    between atoms: C_24  and  C_36
REMARK   14  A    between atoms: C_28  and  O_35
REMARK   15  A    between atoms: C_30  and  O_34
REMARK   16  A    between atoms: C_38  and  O_43
REMARK   17  A    between atoms: C_39  and  O_42
REMARK   18  A    between atoms: O_43  and  C_44
REMARK   19  A    between atoms: O_47  and  S_48
REMARK   20  A    between atoms: S_48  and  O_51
REMARK                            x       y       z     vdW  Elec       q    Type
REMARK                         _______ _______ _______ _____ _____    ______ ____
ROOT
ATOM      1  C   UNL     1       5.232  -0.771  26.767  0.00  0.00    +0.182 C 
ATOM      2  O   UNL     1       6.370  -1.446  26.198  0.00  0.00    -0.331 OA
ATOM      3  C   UNL     1       7.622  -1.378  26.886  0.00  0.00    +0.340 C 
ATOM      4  C   UNL     1       7.991   0.081  27.294  0.00  0.00    +0.214 C 
ATOM      5  C   UNL     1       6.804   0.681  28.077  0.00  0.00    +0.183 C 
ATOM      6  C   UNL     1       5.566   0.676  27.170  0.00  0.00    +0.214 C 
ENDROOT
BRANCH   5   7
ATOM      7  O   UNL     1       7.106   2.014  28.516  0.00  0.00    -0.386 OA
ATOM      8  H   UNL     1       7.872   1.947  29.111  0.00  0.00    +0.210 HD
ENDBRANCH   5   7
BRANCH   4   9
ATOM      9  O   UNL     1       8.290   0.922  26.157  0.00  0.00    -0.383 OA
ATOM     10  H   UNL     1       9.210   1.226  26.239  0.00  0.00    +0.210 HD
ENDBRANCH   4   9
BRANCH   6  11
ATOM     11  O   UNL     1       4.462   1.354  27.767  0.00  0.00    -0.207 OA
BRANCH  11  12
ATOM     12  S   UNL     1       3.381   2.028  26.749  0.00  0.00    +0.208 S 
ATOM     13  O   UNL     1       3.169   3.406  27.136  0.00  0.00    -0.118 OA
ATOM     14  O   UNL     1       2.296   1.111  26.535  0.00  0.00    -0.118 OA
BRANCH  12  15
ATOM     15  O   UNL     1       4.198   2.046  25.355  0.00  0.00    -0.231 OA
ATOM     16  H   UNL     1       4.908   1.376  25.450  0.00  0.00    +0.247 HD
ENDBRANCH  12  15
ENDBRANCH  11  12
ENDBRANCH   6  11
BRANCH   3  17
ATOM     17  O   UNL     1       8.670  -1.874  26.014  0.00  0.00    -0.453 OA
BRANCH  17  18
ATOM     18  C   UNL     1       8.335  -2.699  24.935  0.00  0.00    +0.214 A 
ATOM     19  C   UNL     1       7.651  -4.030  25.091  0.00  0.00    +0.238 A 
ATOM     20  O   UNL     1       7.586  -4.599  26.171  0.00  0.00    -0.283 OA
ATOM     21  C   UNL     1       7.065  -4.633  23.876  0.00  0.00    +0.109 A 
ATOM     22  C   UNL     1       7.482  -4.144  22.637  0.00  0.00    +0.147 A 
ATOM     23  C   UNL     1       7.029  -4.697  21.437  0.00  0.00    +0.092 A 
ATOM     24  C   UNL     1       6.120  -5.755  21.493  0.00  0.00    +0.124 A 
ATOM     25  C   UNL     1       5.665  -6.239  22.709  0.00  0.00    +0.091 A 
ATOM     26  O   UNL     1       8.345  -3.089  22.530  0.00  0.00    -0.451 OA
ATOM     27  C   UNL     1       6.130  -5.685  23.900  0.00  0.00    +0.135 A 
ATOM     28  C   UNL     1       8.575  -2.321  23.656  0.00  0.00    +0.181 A 
BRANCH  28  29
ATOM     29  C   UNL     1       8.881  -0.936  23.275  0.00  0.00    +0.025 A 
ATOM     30  C   UNL     1      10.190  -0.509  23.558  0.00  0.00    +0.015 A 
ATOM     31  C   UNL     1      10.556   0.821  23.422  0.00  0.00    +0.050 A 
ATOM     32  C   UNL     1       9.661   1.699  22.836  0.00  0.00    +0.158 A 
ATOM     33  C   UNL     1       8.388   1.261  22.447  0.00  0.00    +0.162 A 
ATOM     34  C   UNL     1       7.948  -0.024  22.776  0.00  0.00    +0.061 A 
BRANCH  32  35
ATOM     35  O   UNL     1      10.079   2.968  22.546  0.00  0.00    -0.503 OA
ATOM     36  H   UNL     1       9.281   3.522  22.520  0.00  0.00    +0.292 HD
ENDBRANCH  32  35
BRANCH  33  37
ATOM     37  O   UNL     1       7.582   2.004  21.619  0.00  0.00    -0.491 OA
ATOM     38  C   UNL     1       6.433   2.470  22.344  0.00  0.00    +0.277 C 
ENDBRANCH  33  37
ENDBRANCH  28  29
BRANCH  27  39
ATOM     39  O   UNL     1       5.635  -6.151  25.085  0.00  0.00    -0.506 OA
ATOM     40  H   UNL     1       4.886  -6.739  24.928  0.00  0.00    +0.292 HD
ENDBRANCH  27  39
BRANCH  24  41
ATOM     41  O   UNL     1       5.640  -6.331  20.354  0.00  0.00    -0.507 OA
ATOM     42  H   UNL     1       5.702  -5.703  19.615  0.00  0.00    +0.292 HD
ENDBRANCH  24  41
ENDBRANCH  17  18
ENDBRANCH   3  17
BRANCH   1  43
ATOM     43  C   UNL     1       4.299  -1.626  27.714  0.00  0.00    +0.197 C 
BRANCH  43  44
ATOM     44  O   UNL     1       3.647  -2.789  27.177  0.00  0.00    -0.346 OA
BRANCH  44  48
ATOM     45  C   UNL     1       5.324  -5.222  30.484  0.00  0.00    +0.041 C 
ATOM     46  C   UNL     1       5.418  -5.561  28.995  0.00  0.00    +0.149 C 
ATOM     47  O   UNL     1       5.165  -4.420  28.149  0.00  0.00    -0.343 OA
ATOM     48  C   UNL     1       3.800  -4.006  27.995  0.00  0.00    +0.282 C 
ATOM     49  C   UNL     1       2.890  -5.197  27.555  0.00  0.00    +0.201 C 
ATOM     50  C   UNL     1       3.073  -6.385  28.525  0.00  0.00    +0.179 C 
ATOM     51  C   UNL     1       4.553  -6.782  28.641  0.00  0.00    +0.174 C 
BRANCH  51  52
ATOM     52  O   UNL     1       4.982  -7.359  27.397  0.00  0.00    -0.387 OA
ATOM     53  H   UNL     1       5.839  -7.795  27.573  0.00  0.00    +0.210 HD
ENDBRANCH  51  52
BRANCH  50  54
ATOM     54  O   UNL     1       2.316  -7.516  28.062  0.00  0.00    -0.386 OA
ATOM     55  H   UNL     1       1.838  -7.203  27.265  0.00  0.00    +0.210 HD
ENDBRANCH  50  54
BRANCH  49  56
ATOM     56  O   UNL     1       3.222  -5.659  26.231  0.00  0.00    -0.384 OA
ATOM     57  H   UNL     1       2.823  -5.018  25.611  0.00  0.00    +0.210 HD
ENDBRANCH  49  56
ENDBRANCH  44  48
ENDBRANCH  43  44
ENDBRANCH   1  43
TORSDOF 18
ENDMDL
MODEL 3
REMARK VINA RESULT:      -7.1      2.854      8.700
REMARK  Name = 
REMARK  20 active torsions:
REMARK  status: ('A' for Active; 'I' for Inactive)
REMARK    1  A    between atoms: C_1  and  C_2
REMARK    2  A    between atoms: C_3  and  O_54
REMARK    3  A    between atoms: C_5  and  O_53
REMARK    4  A    between atoms: C_6  and  O_52
REMARK    5  A    between atoms: C_8  and  O_11
REMARK    6  A    between atoms: O_11  and  C_12
REMARK    7  A    between atoms: C_12  and  C_13
REMARK    8  A    between atoms: C_14  and  O_47
REMARK    9  A    between atoms: C_16  and  O_46
REMARK   10  A    between atoms: C_18  and  O_45
REMARK   11  A    between atoms: C_19  and  O_22
REMARK   12  A    between atoms: O_22  and  C_23
REMARK   13  A    between atoms: C_24  and  C_36
REMARK   14  A    between atoms: C_28  and  O_35
REMARK   15  A    between atoms: C_30  and  O_34
REMARK   16  A    between atoms: C_38  and  O_43
REMARK   17  A    between atoms: C_39  and  O_42
REMARK   18  A    between atoms: O_43  and  C_44
REMARK   19  A    between atoms: O_47  and  S_48
REMARK   20  A    between atoms: S_48  and  O_51
REMARK                            x       y       z     vdW  Elec       q    Type
REMARK                         _______ _______ _______ _____ _____    ______ ____
ROOT
ATOM      1  C   UNL     1       6.762   2.038  26.031  0.00  0.00    +0.182 C 
ATOM      2  O   UNL     1       7.433   0.764  26.017  0.00  0.00    -0.331 OA
ATOM      3  C   UNL     1       7.045  -0.225  26.974  0.00  0.00    +0.340 C 
ATOM      4  C   UNL     1       6.979   0.350  28.421  0.00  0.00    +0.214 C 
ATOM      5  C   UNL     1       6.079   1.603  28.405  0.00  0.00    +0.183 C 
ATOM      6  C   UNL     1       6.690   2.634  27.448  0.00  0.00    +0.214 C 
ENDROOT
BRANCH   5   7
ATOM      7  O   UNL     1       5.947   2.152  29.725  0.00  0.00    -0.386 OA
ATOM      8  H   UNL     1       5.530   1.466  30.274  0.00  0.00    +0.210 HD
ENDBRANCH   5   7
BRANCH   4   9
ATOM      9  O   UNL     1       8.280   0.701  28.945  0.00  0.00    -0.383 OA
ATOM     10  H   UNL     1       8.447   0.155  29.733  0.00  0.00    +0.210 HD
ENDBRANCH   4   9
BRANCH   6  11
ATOM     11  O   UNL     1       6.000   3.881  27.490  0.00  0.00    -0.207 OA
BRANCH  11  12
ATOM     12  S   UNL     1       6.831   5.158  28.072  0.00  0.00    +0.208 S 
ATOM     13  O   UNL     1       7.521   4.757  29.280  0.00  0.00    -0.118 OA
ATOM     14  O   UNL     1       6.004   6.331  28.009  0.00  0.00    -0.118 OA
BRANCH  12  15
ATOM     15  O   UNL     1       7.955   5.375  26.932  0.00  0.00    -0.231 OA
ATOM     16  H   UNL     1       7.862   4.620  26.313  0.00  0.00    +0.247 HD
ENDBRANCH  12  15
ENDBRANCH  11  12
ENDBRANCH   6  11
BRANCH   3  17
ATOM     17  O   UNL     1       8.020  -1.300  26.967  0.00  0.00    -0.453 OA
BRANCH  17  18
ATOM     18  C   UNL     1       7.912  -2.322  26.018  0.00  0.00    +0.214 A 
ATOM     19  C   UNL     1       7.042  -3.535  26.205  0.00  0.00    +0.238 A 
ATOM     20  O   UNL     1       6.587  -3.841  27.298  0.00  0.00    -0.283 OA
ATOM     21  C   UNL     1       6.764  -4.357  25.009  0.00  0.00    +0.109 A 
ATOM     22  C   UNL     1       7.589  -4.189  23.895  0.00  0.00    +0.147 A 
ATOM     23  C   UNL     1       7.439  -4.966  22.744  0.00  0.00    +0.092 A 
ATOM     24  C   UNL     1       6.422  -5.922  22.714  0.00  0.00    +0.124 A 
ATOM     25  C   UNL     1       5.570  -6.088  23.793  0.00  0.00    +0.091 A 
ATOM     26  O   UNL     1       8.577  -3.244  23.864  0.00  0.00    -0.451 OA
ATOM     27  C   UNL     1       5.733  -5.312  24.939  0.00  0.00    +0.135 A 
ATOM     28  C   UNL     1       8.565  -2.259  24.834  0.00  0.00    +0.181 A 
BRANCH  28  29
ATOM     29  C   UNL     1       9.151  -1.019  24.308  0.00  0.00    +0.025 A 
ATOM     30  C   UNL     1      10.274  -0.541  25.005  0.00  0.00    +0.015 A 
ATOM     31  C   UNL     1      10.810   0.708  24.731  0.00  0.00    +0.050 A 
ATOM     32  C   UNL     1      10.330   1.412  23.641  0.00  0.00    +0.158 A 
ATOM     33  C   UNL     1       9.280   0.897  22.870  0.00  0.00    +0.162 A 
ATOM     34  C   UNL     1       8.605  -0.258  23.271  0.00  0.00    +0.061 A 
BRANCH  32  35
ATOM     35  O   UNL     1      10.967   2.563  23.269  0.00  0.00    -0.503 OA
ATOM     36  H   UNL     1      11.678   2.300  22.661  0.00  0.00    +0.292 HD
ENDBRANCH  32  35
BRANCH  33  37
ATOM     37  O   UNL     1       8.963   1.409  21.635  0.00  0.00    -0.491 OA
ATOM     38  C   UNL     1       8.717   0.338  20.710  0.00  0.00    +0.277 C 
ENDBRANCH  33  37
ENDBRANCH  28  29
BRANCH  27  39
ATOM     39  O   UNL     1       4.854  -5.465  25.974  0.00  0.00    -0.506 OA
ATOM     40  H   UNL     1       3.977  -5.691  25.639  0.00  0.00    +0.292 HD
ENDBRANCH  27  39
BRANCH  24  41
ATOM     41  O   UNL     1       6.227  -6.707  21.616  0.00  0.00    -0.507 OA
ATOM     42  H   UNL     1       6.829  -6.434  20.904  0.00  0.00    +0.292 HD
ENDBRANCH  24  41
ENDBRANCH  17  18
ENDBRANCH   3  17
BRANCH   1  43
ATOM     43  C   UNL     1       5.508   2.191  25.080  0.00  0.00    +0.197 C 
BRANCH  43  44
ATOM     44  O   UNL     1       5.697   2.747  23.768  0.00  0.00    -0.346 OA
BRANCH  44  48
ATOM     45  C   UNL     1       5.252   7.108  24.440  0.00  0.00    +0.041 C 
ATOM     46  C   UNL     1       5.554   6.441  23.096  0.00  0.00    +0.149 C 
ATOM     47  O   UNL     1       5.235   5.035  23.089  0.00  0.00    -0.343 OA
ATOM     48  C   UNL     1       6.145   4.152  23.761  0.00  0.00    +0.282 C 
ATOM     49  C   UNL     1       7.611   4.359  23.263  0.00  0.00    +0.201 C 
ATOM     50  C   UNL     1       7.998   5.850  23.373  0.00  0.00    +0.179 C 
ATOM     51  C   UNL     1       6.989   6.740  22.631  0.00  0.00    +0.174 C 
BRANCH  51  52
ATOM     52  O   UNL     1       7.117   6.514  21.217  0.00  0.00    -0.387 OA
ATOM     53  H   UNL     1       7.946   6.011  21.089  0.00  0.00    +0.210 HD
ENDBRANCH  51  52
BRANCH  50  54
ATOM     54  O   UNL     1       9.308   6.057  22.819  0.00  0.00    -0.386 OA
ATOM     55  H   UNL     1       9.158   6.416  21.919  0.00  0.00    +0.210 HD
ENDBRANCH  50  54
BRANCH  49  56
ATOM     56  O   UNL     1       7.764   3.968  21.884  0.00  0.00    -0.384 OA
ATOM     57  H   UNL     1       8.063   3.037  21.897  0.00  0.00    +0.210 HD
ENDBRANCH  49  56
ENDBRANCH  44  48
ENDBRANCH  43  44
ENDBRANCH   1  43
TORSDOF 18
ENDMDL
MODEL 4
REMARK VINA RESULT:      -7.0      2.406      9.003
REMARK  Name = 
REMARK  20 active torsions:
REMARK  status: ('A' for Active; 'I' for Inactive)
REMARK    1  A    between atoms: C_1  and  C_2
REMARK    2  A    between atoms: C_3  and  O_54
REMARK    3  A    between atoms: C_5  and  O_53
REMARK    4  A    between atoms: C_6  and  O_52
REMARK    5  A    between atoms: C_8  and  O_11
REMARK    6  A    between atoms: O_11  and  C_12
REMARK    7  A    between atoms: C_12  and  C_13
REMARK    8  A    between atoms: C_14  and  O_47
REMARK    9  A    between atoms: C_16  and  O_46
REMARK   10  A    between atoms: C_18  and  O_45
REMARK   11  A    between atoms: C_19  and  O_22
REMARK   12  A    between atoms: O_22  and  C_23
REMARK   13  A    between atoms: C_24  and  C_36
REMARK   14  A    between atoms: C_28  and  O_35
REMARK   15  A    between atoms: C_30  and  O_34
REMARK   16  A    between atoms: C_38  and  O_43
REMARK   17  A    between atoms: C_39  and  O_42
REMARK   18  A    between atoms: O_43  and  C_44
REMARK   19  A    between atoms: O_47  and  S_48
REMARK   20  A    between atoms: S_48  and  O_51
REMARK                            x       y       z     vdW  Elec       q    Type
REMARK                         _______ _______ _______ _____ _____    ______ ____
ROOT
ATOM      1  C   UNL     1       6.422  -0.507  27.056  0.00  0.00    +0.182 C 
ATOM      2  O   UNL     1       6.373  -1.931  27.266  0.00  0.00    -0.331 OA
ATOM      3  C   UNL     1       5.095  -2.570  27.339  0.00  0.00    +0.340 C 
ATOM      4  C   UNL     1       4.124  -1.833  28.311  0.00  0.00    +0.214 C 
ATOM      5  C   UNL     1       4.067  -0.346  27.906  0.00  0.00    +0.183 C 
ATOM      6  C   UNL     1       5.479   0.246  28.010  0.00  0.00    +0.214 C 
ENDROOT
BRANCH   5   7
ATOM      7  O   UNL     1       3.151   0.375  28.744  0.00  0.00    -0.386 OA
ATOM      8  H   UNL     1       2.602   0.921  28.156  0.00  0.00    +0.210 HD
ENDBRANCH   5   7
BRANCH   4   9
ATOM      9  O   UNL     1       4.531  -1.937  29.695  0.00  0.00    -0.383 OA
ATOM     10  H   UNL     1       5.419  -2.332  29.721  0.00  0.00    +0.210 HD
ENDBRANCH   4   9
BRANCH   6  11
ATOM     11  O   UNL     1       5.486   1.656  27.797  0.00  0.00    -0.207 OA
BRANCH  11  12
ATOM     12  S   UNL     1       6.538   2.525  28.691  0.00  0.00    +0.208 S 
ATOM     13  O   UNL     1       7.278   1.625  29.550  0.00  0.00    -0.118 OA
ATOM     14  O   UNL     1       5.879   3.700  29.190  0.00  0.00    -0.118 OA
BRANCH  12  15
ATOM     15  O   UNL     1       7.568   3.065  27.569  0.00  0.00    -0.231 OA
ATOM     16  H   UNL     1       7.531   2.416  26.835  0.00  0.00    +0.247 HD
ENDBRANCH  12  15
ENDBRANCH  11  12
ENDBRANCH   6  11
BRANCH   3  17
ATOM     17  O   UNL     1       5.270  -3.925  27.827  0.00  0.00    -0.453 OA
BRANCH  17  18
ATOM     18  C   UNL     1       4.696  -4.990  27.125  0.00  0.00    +0.214 A 
ATOM     19  C   UNL     1       3.304  -5.498  27.385  0.00  0.00    +0.238 A 
ATOM     20  O   UNL     1       2.687  -5.201  28.398  0.00  0.00    -0.283 OA
ATOM     21  C   UNL     1       2.710  -6.389  26.367  0.00  0.00    +0.109 A 
ATOM     22  C   UNL     1       3.567  -6.987  25.442  0.00  0.00    +0.147 A 
ATOM     23  C   UNL     1       3.102  -7.892  24.484  0.00  0.00    +0.092 A 
ATOM     24  C   UNL     1       1.737  -8.182  24.450  0.00  0.00    +0.124 A 
ATOM     25  C   UNL     1       0.859  -7.578  25.337  0.00  0.00    +0.091 A 
ATOM     26  O   UNL     1       4.906  -6.711  25.413  0.00  0.00    -0.451 OA
ATOM     27  C   UNL     1       1.336  -6.683  26.292  0.00  0.00    +0.135 A 
ATOM     28  C   UNL     1       5.358  -5.611  26.119  0.00  0.00    +0.181 A 
BRANCH  28  29
ATOM     29  C   UNL     1       6.545  -5.040  25.470  0.00  0.00    +0.025 A 
ATOM     30  C   UNL     1       7.756  -5.225  26.160  0.00  0.00    +0.015 A 
ATOM     31  C   UNL     1       8.916  -4.583  25.756  0.00  0.00    +0.050 A 
ATOM     32  C   UNL     1       8.909  -3.890  24.559  0.00  0.00    +0.158 A 
ATOM     33  C   UNL     1       7.733  -3.789  23.804  0.00  0.00    +0.162 A 
ATOM     34  C   UNL     1       6.520  -4.256  24.314  0.00  0.00    +0.061 A 
BRANCH  32  35
ATOM     35  O   UNL     1      10.091  -3.400  24.076  0.00  0.00    -0.503 OA
ATOM     36  H   UNL     1      10.791  -3.757  24.647  0.00  0.00    +0.292 HD
ENDBRANCH  32  35
BRANCH  33  37
ATOM     37  O   UNL     1       7.740  -3.365  22.497  0.00  0.00    -0.491 OA
ATOM     38  C   UNL     1       6.423  -3.485  21.937  0.00  0.00    +0.277 C 
ENDBRANCH  33  37
ENDBRANCH  28  29
BRANCH  27  39
ATOM     39  O   UNL     1       0.446  -6.069  27.127  0.00  0.00    -0.506 OA
ATOM     40  H   UNL     1       0.449  -5.115  26.979  0.00  0.00    +0.292 HD
ENDBRANCH  27  39
BRANCH  24  41
ATOM     41  O   UNL     1       1.225  -9.053  23.536  0.00  0.00    -0.507 OA
ATOM     42  H   UNL     1       1.804  -9.830  23.460  0.00  0.00    +0.292 HD
ENDBRANCH  24  41
ENDBRANCH  17  18
ENDBRANCH   3  17
BRANCH   1  43
ATOM     43  C   UNL     1       6.538  -0.014  25.558  0.00  0.00    +0.197 C 
BRANCH  43  44
ATOM     44  O   UNL     1       7.162   1.254  25.294  0.00  0.00    -0.346 OA
BRANCH  44  48
ATOM     45  C   UNL     1      10.939   2.726  23.495  0.00  0.00    +0.041 C 
ATOM     46  C   UNL     1       9.656   2.401  22.727  0.00  0.00    +0.149 C 
ATOM     47  O   UNL     1       8.495   2.350  23.582  0.00  0.00    -0.343 OA
ATOM     48  C   UNL     1       8.332   1.183  24.400  0.00  0.00    +0.282 C 
ATOM     49  C   UNL     1       8.414  -0.125  23.548  0.00  0.00    +0.201 C 
ATOM     50  C   UNL     1       9.713  -0.128  22.713  0.00  0.00    +0.179 C 
ATOM     51  C   UNL     1       9.825   1.144  21.858  0.00  0.00    +0.174 C 
BRANCH  51  52
ATOM     52  O   UNL     1       8.822   1.106  20.829  0.00  0.00    -0.387 OA
ATOM     53  H   UNL     1       9.065   1.794  20.178  0.00  0.00    +0.210 HD
ENDBRANCH  51  52
BRANCH  50  54
ATOM     54  O   UNL     1       9.738  -1.279  21.852  0.00  0.00    -0.386 OA
ATOM     55  H   UNL     1       9.290  -0.999  21.027  0.00  0.00    +0.210 HD
ENDBRANCH  50  54
BRANCH  49  56
ATOM     56  O   UNL     1       7.305  -0.233  22.633  0.00  0.00    -0.384 OA
ATOM     57  H   UNL     1       7.061   0.681  22.391  0.00  0.00    +0.210 HD
ENDBRANCH  49  56
ENDBRANCH  44  48
ENDBRANCH  43  44
ENDBRANCH   1  43
TORSDOF 18
ENDMDL
MODEL 5
REMARK VINA RESULT:      -6.8      3.223      8.466
REMARK  Name = 
REMARK  20 active torsions:
REMARK  status: ('A' for Active; 'I' for Inactive)
REMARK    1  A    between atoms: C_1  and  C_2
REMARK    2  A    between atoms: C_3  and  O_54
REMARK    3  A    between atoms: C_5  and  O_53
REMARK    4  A    between atoms: C_6  and  O_52
REMARK    5  A    between atoms: C_8  and  O_11
REMARK    6  A    between atoms: O_11  and  C_12
REMARK    7  A    between atoms: C_12  and  C_13
REMARK    8  A    between atoms: C_14  and  O_47
REMARK    9  A    between atoms: C_16  and  O_46
REMARK   10  A    between atoms: C_18  and  O_45
REMARK   11  A    between atoms: C_19  and  O_22
REMARK   12  A    between atoms: O_22  and  C_23
REMARK   13  A    between atoms: C_24  and  C_36
REMARK   14  A    between atoms: C_28  and  O_35
REMARK   15  A    between atoms: C_30  and  O_34
REMARK   16  A    between atoms: C_38  and  O_43
REMARK   17  A    between atoms: C_39  and  O_42
REMARK   18  A    between atoms: O_43  and  C_44
REMARK   19  A    between atoms: O_47  and  S_48
REMARK   20  A    between atoms: S_48  and  O_51
REMARK                            x       y       z     vdW  Elec       q    Type
REMARK                         _______ _______ _______ _____ _____    ______ ____
ROOT
ATOM      1  C   UNL     1       6.921   2.463  26.300  0.00  0.00    +0.182 C 
ATOM      2  O   UNL     1       7.645   1.237  26.084  0.00  0.00    -0.331 OA
ATOM      3  C   UNL     1       7.252   0.071  26.813  0.00  0.00    +0.340 C 
ATOM      4  C   UNL     1       7.091   0.358  28.337  0.00  0.00    +0.214 C 
ATOM      5  C   UNL     1       6.140   1.561  28.507  0.00  0.00    +0.183 C 
ATOM      6  C   UNL     1       6.755   2.775  27.797  0.00  0.00    +0.214 C 
ENDROOT
BRANCH   5   7
ATOM      7  O   UNL     1       5.921   1.844  29.897  0.00  0.00    -0.386 OA
ATOM      8  H   UNL     1       5.242   1.221  30.207  0.00  0.00    +0.210 HD
ENDBRANCH   5   7
BRANCH   4   9
ATOM      9  O   UNL     1       8.348   0.644  28.990  0.00  0.00    -0.383 OA
ATOM     10  H   UNL     1       8.275   1.514  29.419  0.00  0.00    +0.210 HD
ENDBRANCH   4   9
BRANCH   6  11
ATOM     11  O   UNL     1       6.011   3.969  28.035  0.00  0.00    -0.207 OA
BRANCH  11  12
ATOM     12  S   UNL     1       6.815   5.204  28.731  0.00  0.00    +0.208 S 
ATOM     13  O   UNL     1       5.857   6.107  29.334  0.00  0.00    -0.118 OA
ATOM     14  O   UNL     1       7.849   5.659  27.843  0.00  0.00    -0.118 OA
BRANCH  12  15
ATOM     15  O   UNL     1       7.594   4.462  29.937  0.00  0.00    -0.231 OA
ATOM     16  H   UNL     1       8.223   5.122  30.298  0.00  0.00    +0.247 HD
ENDBRANCH  12  15
ENDBRANCH  11  12
ENDBRANCH   6  11
BRANCH   3  17
ATOM     17  O   UNL     1       8.271  -0.951  26.658  0.00  0.00    -0.453 OA
BRANCH  17  18
ATOM     18  C   UNL     1       8.075  -1.984  25.736  0.00  0.00    +0.214 A 
ATOM     19  C   UNL     1       7.272  -3.220  26.036  0.00  0.00    +0.238 A 
ATOM     20  O   UNL     1       6.966  -3.529  27.179  0.00  0.00    -0.283 OA
ATOM     21  C   UNL     1       6.872  -4.060  24.888  0.00  0.00    +0.109 A 
ATOM     22  C   UNL     1       7.546  -3.877  23.679  0.00  0.00    +0.147 A 
ATOM     23  C   UNL     1       7.277  -4.669  22.560  0.00  0.00    +0.092 A 
ATOM     24  C   UNL     1       6.293  -5.654  22.661  0.00  0.00    +0.124 A 
ATOM     25  C   UNL     1       5.588  -5.835  23.840  0.00  0.00    +0.091 A 
ATOM     26  O   UNL     1       8.495  -2.905  23.520  0.00  0.00    -0.451 OA
ATOM     27  C   UNL     1       5.869  -5.044  24.952  0.00  0.00    +0.135 A 
ATOM     28  C   UNL     1       8.574  -1.912  24.479  0.00  0.00    +0.181 A 
BRANCH  28  29
ATOM     29  C   UNL     1       9.053  -0.660  23.878  0.00  0.00    +0.025 A 
ATOM     30  C   UNL     1      10.327  -0.240  24.297  0.00  0.00    +0.015 A 
ATOM     31  C   UNL     1      10.819   1.010  23.953  0.00  0.00    +0.050 A 
ATOM     32  C   UNL     1      10.110   1.775  23.045  0.00  0.00    +0.158 A 
ATOM     33  C   UNL     1       8.887   1.320  22.534  0.00  0.00    +0.162 A 
ATOM     34  C   UNL     1       8.294   0.161  23.040  0.00  0.00    +0.061 A 
BRANCH  32  35
ATOM     35  O   UNL     1      10.674   2.929  22.577  0.00  0.00    -0.503 OA
ATOM     36  H   UNL     1      10.226   3.135  21.739  0.00  0.00    +0.292 HD
ENDBRANCH  32  35
BRANCH  33  37
ATOM     37  O   UNL     1       8.295   1.898  21.438  0.00  0.00    -0.491 OA
ATOM     38  C   UNL     1       7.164   2.681  21.849  0.00  0.00    +0.277 C 
ENDBRANCH  33  37
ENDBRANCH  28  29
BRANCH  27  39
ATOM     39  O   UNL     1       5.130  -5.213  26.089  0.00  0.00    -0.506 OA
ATOM     40  H   UNL     1       4.443  -5.876  25.948  0.00  0.00    +0.292 HD
ENDBRANCH  27  39
BRANCH  24  41
ATOM     41  O   UNL     1       5.986  -6.453  21.601  0.00  0.00    -0.507 OA
ATOM     42  H   UNL     1       5.495  -7.234  21.908  0.00  0.00    +0.292 HD
ENDBRANCH  24  41
ENDBRANCH  17  18
ENDBRANCH   3  17
BRANCH   1  43
ATOM     43  C   UNL     1       5.710   2.754  25.326  0.00  0.00    +0.197 C 
BRANCH  43  44
ATOM     44  O   UNL     1       5.585   4.064  24.749  0.00  0.00    -0.346 OA
BRANCH  44  48
ATOM     45  C   UNL     1       1.290   3.302  23.947  0.00  0.00    +0.041 C 
ATOM     46  C   UNL     1       2.396   3.361  22.890  0.00  0.00    +0.149 C 
ATOM     47  O   UNL     1       3.713   3.207  23.456  0.00  0.00    -0.343 OA
ATOM     48  C   UNL     1       4.271   4.339  24.139  0.00  0.00    +0.282 C 
ATOM     49  C   UNL     1       4.229   5.620  23.246  0.00  0.00    +0.201 C 
ATOM     50  C   UNL     1       2.794   5.854  22.727  0.00  0.00    +0.179 C 
ATOM     51  C   UNL     1       2.258   4.610  22.003  0.00  0.00    +0.174 C 
BRANCH  51  52
ATOM     52  O   UNL     1       2.982   4.435  20.774  0.00  0.00    -0.387 OA
ATOM     53  H   UNL     1       3.920   4.305  21.018  0.00  0.00    +0.210 HD
ENDBRANCH  51  52
BRANCH  50  54
ATOM     54  O   UNL     1       2.776   6.971  21.823  0.00  0.00    -0.386 OA
ATOM     55  H   UNL     1       3.480   7.576  22.140  0.00  0.00    +0.210 HD
ENDBRANCH  50  54
BRANCH  49  56
ATOM     56  O   UNL     1       5.095   5.497  22.100  0.00  0.00    -0.384 OA
ATOM     57  H   UNL     1       5.192   6.397  21.734  0.00  0.00    +0.210 HD
ENDBRANCH  49  56
ENDBRANCH  44  48
ENDBRANCH  43  44
ENDBRANCH   1  43
TORSDOF 18
ENDMDL
MODEL 6
REMARK VINA RESULT:      -6.7      2.755      9.039
REMARK  Name = 
REMARK  20 active torsions:
REMARK  status: ('A' for Active; 'I' for Inactive)
REMARK    1  A    between atoms: C_1  and  C_2
REMARK    2  A    between atoms: C_3  and  O_54
REMARK    3  A    between atoms: C_5  and  O_53
REMARK    4  A    between atoms: C_6  and  O_52
REMARK    5  A    between atoms: C_8  and  O_11
REMARK    6  A    between atoms: O_11  and  C_12
REMARK    7  A    between atoms: C_12  and  C_13
REMARK    8  A    between atoms: C_14  and  O_47
REMARK    9  A    between atoms: C_16  and  O_46
REMARK   10  A    between atoms: C_18  and  O_45
REMARK   11  A    between atoms: C_19  and  O_22
REMARK   12  A    between atoms: O_22  and  C_23
REMARK   13  A    between atoms: C_24  and  C_36
REMARK   14  A    between atoms: C_28  and  O_35
REMARK   15  A    between atoms: C_30  and  O_34
REMARK   16  A    between atoms: C_38  and  O_43
REMARK   17  A    between atoms: C_39  and  O_42
REMARK   18  A    between atoms: O_43  and  C_44
REMARK   19  A    between atoms: O_47  and  S_48
REMARK   20  A    between atoms: S_48  and  O_51
REMARK                            x       y       z     vdW  Elec       q    Type
REMARK                         _______ _______ _______ _____ _____    ______ ____
ROOT
ATOM      1  C   UNL     1       5.656  -0.492  27.214  0.00  0.00    +0.182 C 
ATOM      2  O   UNL     1       5.842  -1.919  27.174  0.00  0.00    -0.331 OA
ATOM      3  C   UNL     1       4.691  -2.763  27.260  0.00  0.00    +0.340 C 
ATOM      4  C   UNL     1       3.752  -2.361  28.438  0.00  0.00    +0.214 C 
ATOM      5  C   UNL     1       3.428  -0.858  28.308  0.00  0.00    +0.183 C 
ATOM      6  C   UNL     1       4.740  -0.066  28.375  0.00  0.00    +0.214 C 
ENDROOT
BRANCH   5   7
ATOM      7  O   UNL     1       2.529  -0.440  29.346  0.00  0.00    -0.386 OA
ATOM      8  H   UNL     1       2.921  -0.725  30.189  0.00  0.00    +0.210 HD
ENDBRANCH   5   7
BRANCH   4   9
ATOM      9  O   UNL     1       4.340  -2.614  29.734  0.00  0.00    -0.383 OA
ATOM     10  H   UNL     1       3.941  -1.998  30.373  0.00  0.00    +0.210 HD
ENDBRANCH   4   9
BRANCH   6  11
ATOM     11  O   UNL     1       4.515   1.343  28.414  0.00  0.00    -0.207 OA
BRANCH  11  12
ATOM     12  S   UNL     1       5.505   2.215  29.372  0.00  0.00    +0.208 S 
ATOM     13  O   UNL     1       4.712   3.163  30.125  0.00  0.00    -0.118 OA
ATOM     14  O   UNL     1       6.667   2.605  28.623  0.00  0.00    -0.118 OA
BRANCH  12  15
ATOM     15  O   UNL     1       6.031   1.100  30.416  0.00  0.00    -0.231 OA
ATOM     16  H   UNL     1       6.955   1.348  30.633  0.00  0.00    +0.247 HD
ENDBRANCH  12  15
ENDBRANCH  11  12
ENDBRANCH   6  11
BRANCH   3  17
ATOM     17  O   UNL     1       5.121  -4.131  27.482  0.00  0.00    -0.453 OA
BRANCH  17  18
ATOM     18  C   UNL     1       4.492  -5.172  26.792  0.00  0.00    +0.214 A 
ATOM     19  C   UNL     1       3.236  -5.845  27.276  0.00  0.00    +0.238 A 
ATOM     20  O   UNL     1       2.837  -5.717  28.425  0.00  0.00    -0.283 OA
ATOM     21  C   UNL     1       2.504  -6.685  26.305  0.00  0.00    +0.109 A 
ATOM     22  C   UNL     1       3.180  -7.095  25.155  0.00  0.00    +0.147 A 
ATOM     23  C   UNL     1       2.587  -7.940  24.214  0.00  0.00    +0.092 A 
ATOM     24  C   UNL     1       1.275  -8.364  24.433  0.00  0.00    +0.124 A 
ATOM     25  C   UNL     1       0.570  -7.947  25.551  0.00  0.00    +0.091 A 
ATOM     26  O   UNL     1       4.454  -6.680  24.879  0.00  0.00    -0.451 OA
ATOM     27  C   UNL     1       1.175  -7.110  26.486  0.00  0.00    +0.135 A 
ATOM     28  C   UNL     1       4.962  -5.617  25.602  0.00  0.00    +0.181 A 
BRANCH  28  29
ATOM     29  C   UNL     1       5.928  -4.864  24.792  0.00  0.00    +0.025 A 
ATOM     30  C   UNL     1       5.367  -3.992  23.843  0.00  0.00    +0.015 A 
ATOM     31  C   UNL     1       6.156  -3.363  22.892  0.00  0.00    +0.050 A 
ATOM     32  C   UNL     1       7.531  -3.469  22.995  0.00  0.00    +0.158 A 
ATOM     33  C   UNL     1       8.109  -4.249  24.005  0.00  0.00    +0.162 A 
ATOM     34  C   UNL     1       7.312  -5.047  24.830  0.00  0.00    +0.061 A 
BRANCH  32  35
ATOM     35  O   UNL     1       8.312  -2.716  22.165  0.00  0.00    -0.503 OA
ATOM     36  H   UNL     1       7.921  -1.827  22.148  0.00  0.00    +0.292 HD
ENDBRANCH  32  35
BRANCH  33  37
ATOM     37  O   UNL     1       9.443  -4.161  24.321  0.00  0.00    -0.491 OA
ATOM     38  C   UNL     1       9.717  -4.924  25.507  0.00  0.00    +0.277 C 
ENDBRANCH  33  37
ENDBRANCH  28  29
BRANCH  27  39
ATOM     39  O   UNL     1       0.445  -6.678  27.558  0.00  0.00    -0.506 OA
ATOM     40  H   UNL     1      -0.244  -6.066  27.271  0.00  0.00    +0.292 HD
ENDBRANCH  27  39
BRANCH  24  41
ATOM     41  O   UNL     1       0.644  -9.186  23.548  0.00  0.00    -0.507 OA
ATOM     42  H   UNL     1      -0.213  -9.466  23.911  0.00  0.00    +0.292 HD
ENDBRANCH  24  41
ENDBRANCH  17  18
ENDBRANCH   3  17
BRANCH   1  43
ATOM     43  C   UNL     1       5.510   0.245  25.823  0.00  0.00    +0.197 C 
BRANCH  43  44
ATOM     44  O   UNL     1       6.080  -0.366  24.653  0.00  0.00    -0.346 OA
BRANCH  44  48
ATOM     45  C   UNL     1       8.326   2.187  21.807  0.00  0.00    +0.041 C 
ATOM     46  C   UNL     1       8.640   0.724  22.128  0.00  0.00    +0.149 C 
ATOM     47  O   UNL     1       7.530   0.040  22.745  0.00  0.00    -0.343 OA
ATOM     48  C   UNL     1       7.277   0.317  24.130  0.00  0.00    +0.282 C 
ATOM     49  C   UNL     1       8.563   0.118  24.995  0.00  0.00    +0.201 C 
ATOM     50  C   UNL     1       9.728   0.938  24.401  0.00  0.00    +0.179 C 
ATOM     51  C   UNL     1       9.951   0.593  22.921  0.00  0.00    +0.174 C 
BRANCH  51  52
ATOM     52  O   UNL     1      10.465  -0.746  22.825  0.00  0.00    -0.387 OA
ATOM     53  H   UNL     1      10.535  -1.085  23.740  0.00  0.00    +0.210 HD
ENDBRANCH  51  52
BRANCH  50  54
ATOM     54  O   UNL     1      10.936   0.674  25.135  0.00  0.00    -0.386 OA
ATOM     55  H   UNL     1      11.640   0.586  24.457  0.00  0.00    +0.210 HD
ENDBRANCH  50  54
BRANCH  49  56
ATOM     56  O   UNL     1       8.972  -1.264  25.028  0.00  0.00    -0.384 OA
ATOM     57  H   UNL     1       9.882  -1.270  25.383  0.00  0.00    +0.210 HD
ENDBRANCH  49  56
ENDBRANCH  44  48
ENDBRANCH  43  44
ENDBRANCH   1  43
TORSDOF 18
ENDMDL
MODEL 7
REMARK VINA RESULT:      -6.7      2.395      9.104
REMARK  Name = 
REMARK  20 active torsions:
REMARK  status: ('A' for Active; 'I' for Inactive)
REMARK    1  A    between atoms: C_1  and  C_2
REMARK    2  A    between atoms: C_3  and  O_54
REMARK    3  A    between atoms: C_5  and  O_53
REMARK    4  A    between atoms: C_6  and  O_52
REMARK    5  A    between atoms: C_8  and  O_11
REMARK    6  A    between atoms: O_11  and  C_12
REMARK    7  A    between atoms: C_12  and  C_13
REMARK    8  A    between atoms: C_14  and  O_47
REMARK    9  A    between atoms: C_16  and  O_46
REMARK   10  A    between atoms: C_18  and  O_45
REMARK   11  A    between atoms: C_19  and  O_22
REMARK   12  A    between atoms: O_22  and  C_23
REMARK   13  A    between atoms: C_24  and  C_36
REMARK   14  A    between atoms: C_28  and  O_35
REMARK   15  A    between atoms: C_30  and  O_34
REMARK   16  A    between atoms: C_38  and  O_43
REMARK   17  A    between atoms: C_39  and  O_42
REMARK   18  A    between atoms: O_43  and  C_44
REMARK   19  A    between atoms: O_47  and  S_48
REMARK   20  A    between atoms: S_48  and  O_51
REMARK                            x       y       z     vdW  Elec       q    Type
REMARK                         _______ _______ _______ _____ _____    ______ ____
ROOT
ATOM      1  C   UNL     1       6.964   1.871  25.543  0.00  0.00    +0.182 C 
ATOM      2  O   UNL     1       7.314   0.522  25.904  0.00  0.00    -0.331 OA
ATOM      3  C   UNL     1       6.266  -0.389  26.248  0.00  0.00    +0.340 C 
ATOM      4  C   UNL     1       5.271   0.221  27.282  0.00  0.00    +0.214 C 
ATOM      5  C   UNL     1       4.778   1.578  26.739  0.00  0.00    +0.183 C 
ATOM      6  C   UNL     1       5.989   2.501  26.553  0.00  0.00    +0.214 C 
ENDROOT
BRANCH   5   7
ATOM      7  O   UNL     1       3.823   2.168  27.634  0.00  0.00    -0.386 OA
ATOM      8  H   UNL     1       3.022   2.345  27.113  0.00  0.00    +0.210 HD
ENDBRANCH   5   7
BRANCH   4   9
ATOM      9  O   UNL     1       5.866   0.413  28.585  0.00  0.00    -0.383 OA
ATOM     10  H   UNL     1       5.629   1.304  28.897  0.00  0.00    +0.210 HD
ENDBRANCH   4   9
BRANCH   6  11
ATOM     11  O   UNL     1       5.603   3.828  26.197  0.00  0.00    -0.207 OA
BRANCH  11  12
ATOM     12  S   UNL     1       5.959   5.005  27.268  0.00  0.00    +0.208 S 
ATOM     13  O   UNL     1       5.357   4.677  28.543  0.00  0.00    -0.118 OA
ATOM     14  O   UNL     1       5.785   6.285  26.640  0.00  0.00    -0.118 OA
BRANCH  12  15
ATOM     15  O   UNL     1       7.556   4.833  27.438  0.00  0.00    -0.231 OA
ATOM     16  H   UNL     1       7.886   4.504  26.576  0.00  0.00    +0.247 HD
ENDBRANCH  12  15
ENDBRANCH  11  12
ENDBRANCH   6  11
BRANCH   3  17
ATOM     17  O   UNL     1       6.848  -1.580  26.839  0.00  0.00    -0.453 OA
BRANCH  17  18
ATOM     18  C   UNL     1       6.429  -2.841  26.402  0.00  0.00    +0.214 A 
ATOM     19  C   UNL     1       5.307  -3.609  27.046  0.00  0.00    +0.238 A 
ATOM     20  O   UNL     1       4.870  -3.311  28.148  0.00  0.00    -0.283 OA
ATOM     21  C   UNL     1       4.756  -4.755  26.293  0.00  0.00    +0.109 A 
ATOM     22  C   UNL     1       5.516  -5.274  25.244  0.00  0.00    +0.147 A 
ATOM     23  C   UNL     1       5.103  -6.395  24.520  0.00  0.00    +0.092 A 
ATOM     24  C   UNL     1       3.885  -6.991  24.853  0.00  0.00    +0.124 A 
ATOM     25  C   UNL     1       3.096  -6.478  25.869  0.00  0.00    +0.091 A 
ATOM     26  O   UNL     1       6.699  -4.706  24.859  0.00  0.00    -0.451 OA
ATOM     27  C   UNL     1       3.522  -5.363  26.590  0.00  0.00    +0.135 A 
ATOM     28  C   UNL     1       6.994  -3.439  25.326  0.00  0.00    +0.181 A 
BRANCH  28  29
ATOM     29  C   UNL     1       7.823  -2.717  24.353  0.00  0.00    +0.025 A 
ATOM     30  C   UNL     1       7.271  -2.595  23.065  0.00  0.00    +0.015 A 
ATOM     31  C   UNL     1       8.020  -2.102  22.008  0.00  0.00    +0.050 A 
ATOM     32  C   UNL     1       9.269  -1.568  22.271  0.00  0.00    +0.158 A 
ATOM     33  C   UNL     1       9.789  -1.584  23.572  0.00  0.00    +0.162 A 
ATOM     34  C   UNL     1       9.123  -2.267  24.593  0.00  0.00    +0.061 A 
BRANCH  32  35
ATOM     35  O   UNL     1       9.937  -0.931  21.262  0.00  0.00    -0.503 OA
ATOM     36  H   UNL     1       9.778  -1.449  20.456  0.00  0.00    +0.292 HD
ENDBRANCH  32  35
BRANCH  33  37
ATOM     37  O   UNL     1      10.877  -0.828  23.931  0.00  0.00    -0.491 OA
ATOM     38  C   UNL     1      10.441   0.399  24.538  0.00  0.00    +0.277 C 
ENDBRANCH  33  37
ENDBRANCH  28  29
BRANCH  27  39
ATOM     39  O   UNL     1       2.707  -4.850  27.559  0.00  0.00    -0.506 OA
ATOM     40  H   UNL     1       3.233  -4.458  28.267  0.00  0.00    +0.292 HD
ENDBRANCH  27  39
BRANCH  24  41
ATOM     41  O   UNL     1       3.429  -8.084  24.178  0.00  0.00    -0.507 OA
ATOM     42  H   UNL     1       2.466  -8.160  24.285  0.00  0.00    +0.292 HD
ENDBRANCH  24  41
ENDBRANCH  17  18
ENDBRANCH   3  17
BRANCH   1  43
ATOM     43  C   UNL     1       6.754   2.163  24.003  0.00  0.00    +0.197 C 
BRANCH  43  44
ATOM     44  O   UNL     1       7.895   2.516  23.204  0.00  0.00    -0.346 OA
BRANCH  44  48
ATOM     45  C   UNL     1       9.955   6.324  24.166  0.00  0.00    +0.041 C 
ATOM     46  C   UNL     1       8.464   6.044  24.368  0.00  0.00    +0.149 C 
ATOM     47  O   UNL     1       8.159   4.634  24.368  0.00  0.00    -0.343 OA
ATOM     48  C   UNL     1       8.139   3.967  23.098  0.00  0.00    +0.282 C 
ATOM     49  C   UNL     1       7.210   4.704  22.081  0.00  0.00    +0.201 C 
ATOM     50  C   UNL     1       7.606   6.194  21.993  0.00  0.00    +0.179 C 
ATOM     51  C   UNL     1       7.603   6.851  23.382  0.00  0.00    +0.174 C 
BRANCH  51  52
ATOM     52  O   UNL     1       6.249   6.942  23.854  0.00  0.00    -0.387 OA
ATOM     53  H   UNL     1       6.132   7.852  24.193  0.00  0.00    +0.210 HD
ENDBRANCH  51  52
BRANCH  50  54
ATOM     54  O   UNL     1       6.687   6.894  21.138  0.00  0.00    -0.386 OA
ATOM     55  H   UNL     1       7.188   7.090  20.318  0.00  0.00    +0.210 HD
ENDBRANCH  50  54
BRANCH  49  56
ATOM     56  O   UNL     1       5.828   4.642  22.483  0.00  0.00    -0.384 OA
ATOM     57  H   UNL     1       5.637   5.485  22.937  0.00  0.00    +0.210 HD
ENDBRANCH  49  56
ENDBRANCH  44  48
ENDBRANCH  43  44
ENDBRANCH   1  43
TORSDOF 18
ENDMDL
MODEL 8
REMARK VINA RESULT:      -6.7      1.911      2.957
REMARK  Name = 
REMARK  20 active torsions:
REMARK  status: ('A' for Active; 'I' for Inactive)
REMARK    1  A    between atoms: C_1  and  C_2
REMARK    2  A    between atoms: C_3  and  O_54
REMARK    3  A    between atoms: C_5  and  O_53
REMARK    4  A    between atoms: C_6  and  O_52
REMARK    5  A    between atoms: C_8  and  O_11
REMARK    6  A    between atoms: O_11  and  C_12
REMARK    7  A    between atoms: C_12  and  C_13
REMARK    8  A    between atoms: C_14  and  O_47
REMARK    9  A    between atoms: C_16  and  O_46
REMARK   10  A    between atoms: C_18  and  O_45
REMARK   11  A    between atoms: C_19  and  O_22
REMARK   12  A    between atoms: O_22  and  C_23
REMARK   13  A    between atoms: C_24  and  C_36
REMARK   14  A    between atoms: C_28  and  O_35
REMARK   15  A    between atoms: C_30  and  O_34
REMARK   16  A    between atoms: C_38  and  O_43
REMARK   17  A    between atoms: C_39  and  O_42
REMARK   18  A    between atoms: O_43  and  C_44
REMARK   19  A    between atoms: O_47  and  S_48
REMARK   20  A    between atoms: S_48  and  O_51
REMARK                            x       y       z     vdW  Elec       q    Type
REMARK                         _______ _______ _______ _____ _____    ______ ____
ROOT
ATOM      1  C   UNL     1       4.076  -2.227  26.906  0.00  0.00    +0.182 C 
ATOM      2  O   UNL     1       4.490  -1.689  25.637  0.00  0.00    -0.331 OA
ATOM      3  C   UNL     1       5.455  -0.634  25.622  0.00  0.00    +0.340 C 
ATOM      4  C   UNL     1       5.092   0.511  26.616  0.00  0.00    +0.214 C 
ATOM      5  C   UNL     1       4.855  -0.112  28.008  0.00  0.00    +0.183 C 
ATOM      6  C   UNL     1       3.701  -1.118  27.905  0.00  0.00    +0.214 C 
ENDROOT
BRANCH   5   7
ATOM      7  O   UNL     1       4.557   0.904  28.976  0.00  0.00    -0.386 OA
ATOM      8  H   UNL     1       3.622   1.142  28.856  0.00  0.00    +0.210 HD
ENDBRANCH   5   7
BRANCH   4   9
ATOM      9  O   UNL     1       3.915   1.249  26.215  0.00  0.00    -0.383 OA
ATOM     10  H   UNL     1       3.799   1.992  26.832  0.00  0.00    +0.210 HD
ENDBRANCH   4   9
BRANCH   6  11
ATOM     11  O   UNL     1       3.319  -1.628  29.181  0.00  0.00    -0.207 OA
BRANCH  11  12
ATOM     12  S   UNL     1       1.858  -1.172  29.743  0.00  0.00    +0.208 S 
ATOM     13  O   UNL     1       1.989   0.111  30.401  0.00  0.00    -0.118 OA
ATOM     14  O   UNL     1       1.217  -2.296  30.366  0.00  0.00    -0.118 OA
BRANCH  12  15
ATOM     15  O   UNL     1       1.035  -0.922  28.376  0.00  0.00    -0.231 OA
ATOM     16  H   UNL     1       0.915  -1.806  27.968  0.00  0.00    +0.247 HD
ENDBRANCH  12  15
ENDBRANCH  11  12
ENDBRANCH   6  11
BRANCH   3  17
ATOM     17  O   UNL     1       5.514  -0.063  24.289  0.00  0.00    -0.453 OA
BRANCH  17  18
ATOM     18  C   UNL     1       6.656   0.638  23.889  0.00  0.00    +0.214 A 
ATOM     19  C   UNL     1       6.827   2.121  24.083  0.00  0.00    +0.238 A 
ATOM     20  O   UNL     1       5.883   2.850  24.351  0.00  0.00    -0.283 OA
ATOM     21  C   UNL     1       8.190   2.668  23.923  0.00  0.00    +0.109 A 
ATOM     22  C   UNL     1       9.137   1.883  23.264  0.00  0.00    +0.147 A 
ATOM     23  C   UNL     1      10.431   2.345  23.014  0.00  0.00    +0.092 A 
ATOM     24  C   UNL     1      10.779   3.623  23.457  0.00  0.00    +0.124 A 
ATOM     25  C   UNL     1       9.868   4.411  24.141  0.00  0.00    +0.091 A 
ATOM     26  O   UNL     1       8.855   0.614  22.841  0.00  0.00    -0.451 OA
ATOM     27  C   UNL     1       8.578   3.942  24.379  0.00  0.00    +0.135 A 
ATOM     28  C   UNL     1       7.714   0.005  23.329  0.00  0.00    +0.181 A 
BRANCH  28  29
ATOM     29  C   UNL     1       7.901  -1.450  23.395  0.00  0.00    +0.025 A 
ATOM     30  C   UNL     1       7.313  -2.181  22.348  0.00  0.00    +0.015 A 
ATOM     31  C   UNL     1       7.255  -3.566  22.384  0.00  0.00    +0.050 A 
ATOM     32  C   UNL     1       7.938  -4.233  23.385  0.00  0.00    +0.158 A 
ATOM     33  C   UNL     1       8.622  -3.518  24.377  0.00  0.00    +0.162 A 
ATOM     34  C   UNL     1       8.504  -2.128  24.458  0.00  0.00    +0.061 A 
BRANCH  32  35
ATOM     35  O   UNL     1       8.023  -5.596  23.327  0.00  0.00    -0.503 OA
ATOM     36  H   UNL     1       8.852  -5.841  23.770  0.00  0.00    +0.292 HD
ENDBRANCH  32  35
BRANCH  33  37
ATOM     37  O   UNL     1       9.533  -4.118  25.211  0.00  0.00    -0.491 OA
ATOM     38  C   UNL     1       8.930  -4.378  26.489  0.00  0.00    +0.277 C 
ENDBRANCH  33  37
ENDBRANCH  28  29
BRANCH  27  39
ATOM     39  O   UNL     1       7.711   4.721  25.092  0.00  0.00    -0.506 OA
ATOM     40  H   UNL     1       7.897   5.656  24.941  0.00  0.00    +0.292 HD
ENDBRANCH  27  39
BRANCH  24  41
ATOM     41  O   UNL     1      12.029   4.125  23.244  0.00  0.00    -0.507 OA
ATOM     42  H   UNL     1      12.672   3.398  23.192  0.00  0.00    +0.292 HD
ENDBRANCH  24  41
ENDBRANCH  17  18
ENDBRANCH   3  17
BRANCH   1  43
ATOM     43  C   UNL     1       4.868  -3.489  27.436  0.00  0.00    +0.197 C 
BRANCH  43  44
ATOM     44  O   UNL     1       4.280  -4.791  27.281  0.00  0.00    -0.346 OA
BRANCH  44  48
ATOM     45  C   UNL     1       1.077  -4.944  24.217  0.00  0.00    +0.041 C 
ATOM     46  C   UNL     1       1.903  -6.138  24.701  0.00  0.00    +0.149 C 
ATOM     47  O   UNL     1       2.557  -5.887  25.962  0.00  0.00    -0.343 OA
ATOM     48  C   UNL     1       3.725  -5.054  25.941  0.00  0.00    +0.282 C 
ATOM     49  C   UNL     1       4.772  -5.568  24.900  0.00  0.00    +0.201 C 
ATOM     50  C   UNL     1       4.102  -5.732  23.519  0.00  0.00    +0.179 C 
ATOM     51  C   UNL     1       2.863  -6.636  23.608  0.00  0.00    +0.174 C 
BRANCH  51  52
ATOM     52  O   UNL     1       3.285  -7.982  23.884  0.00  0.00    -0.387 OA
ATOM     53  H   UNL     1       2.729  -8.302  24.623  0.00  0.00    +0.210 HD
ENDBRANCH  51  52
BRANCH  50  54
ATOM     54  O   UNL     1       5.037  -6.303  22.587  0.00  0.00    -0.386 OA
ATOM     55  H   UNL     1       4.817  -7.258  22.547  0.00  0.00    +0.210 HD
ENDBRANCH  50  54
BRANCH  49  56
ATOM     56  O   UNL     1       5.314  -6.848  25.279  0.00  0.00    -0.384 OA
ATOM     57  H   UNL     1       6.087  -6.660  25.845  0.00  0.00    +0.210 HD
ENDBRANCH  49  56
ENDBRANCH  44  48
ENDBRANCH  43  44
ENDBRANCH   1  43
TORSDOF 18
ENDMDL
MODEL 9
REMARK VINA RESULT:      -6.3      2.068      3.065
REMARK  Name = 
REMARK  20 active torsions:
REMARK  status: ('A' for Active; 'I' for Inactive)
REMARK    1  A    between atoms: C_1  and  C_2
REMARK    2  A    between atoms: C_3  and  O_54
REMARK    3  A    between atoms: C_5  and  O_53
REMARK    4  A    between atoms: C_6  and  O_52
REMARK    5  A    between atoms: C_8  and  O_11
REMARK    6  A    between atoms: O_11  and  C_12
REMARK    7  A    between atoms: C_12  and  C_13
REMARK    8  A    between atoms: C_14  and  O_47
REMARK    9  A    between atoms: C_16  and  O_46
REMARK   10  A    between atoms: C_18  and  O_45
REMARK   11  A    between atoms: C_19  and  O_22
REMARK   12  A    between atoms: O_22  and  C_23
REMARK   13  A    between atoms: C_24  and  C_36
REMARK   14  A    between atoms: C_28  and  O_35
REMARK   15  A    between atoms: C_30  and  O_34
REMARK   16  A    between atoms: C_38  and  O_43
REMARK   17  A    between atoms: C_39  and  O_42
REMARK   18  A    between atoms: O_43  and  C_44
REMARK   19  A    between atoms: O_47  and  S_48
REMARK   20  A    between atoms: S_48  and  O_51
REMARK                            x       y       z     vdW  Elec       q    Type
REMARK                         _______ _______ _______ _____ _____    ______ ____
ROOT
ATOM      1  C   UNL     1       4.816  -0.127  25.984  0.00  0.00    +0.182 C 
ATOM      2  O   UNL     1       5.411   0.645  24.924  0.00  0.00    -0.331 OA
ATOM      3  C   UNL     1       6.164   1.812  25.267  0.00  0.00    +0.340 C 
ATOM      4  C   UNL     1       5.397   2.736  26.261  0.00  0.00    +0.214 C 
ATOM      5  C   UNL     1       4.959   1.887  27.473  0.00  0.00    +0.183 C 
ATOM      6  C   UNL     1       4.044   0.760  26.976  0.00  0.00    +0.214 C 
ENDROOT
BRANCH   5   7
ATOM      7  O   UNL     1       4.282   2.698  28.445  0.00  0.00    -0.386 OA
ATOM      8  H   UNL     1       4.758   2.585  29.285  0.00  0.00    +0.210 HD
ENDBRANCH   5   7
BRANCH   4   9
ATOM      9  O   UNL     1       4.236   3.358  25.667  0.00  0.00    -0.383 OA
ATOM     10  H   UNL     1       3.633   3.621  26.384  0.00  0.00    +0.210 HD
ENDBRANCH   4   9
BRANCH   6  11
ATOM     11  O   UNL     1       3.473   0.019  28.053  0.00  0.00    -0.207 OA
BRANCH  11  12
ATOM     12  S   UNL     1       1.859  -0.207  28.010  0.00  0.00    +0.208 S 
ATOM     13  O   UNL     1       1.543  -1.465  28.654  0.00  0.00    -0.118 OA
ATOM     14  O   UNL     1       1.366   0.136  26.705  0.00  0.00    -0.118 OA
BRANCH  12  15
ATOM     15  O   UNL     1       1.329   0.970  28.983  0.00  0.00    -0.231 OA
ATOM     16  H   UNL     1       0.550   0.603  29.451  0.00  0.00    +0.247 HD
ENDBRANCH  12  15
ENDBRANCH  11  12
ENDBRANCH   6  11
BRANCH   3  17
ATOM     17  O   UNL     1       6.426   2.577  24.062  0.00  0.00    -0.453 OA
BRANCH  17  18
ATOM     18  C   UNL     1       7.553   3.404  24.002  0.00  0.00    +0.214 A 
ATOM     19  C   UNL     1       7.612   4.768  24.633  0.00  0.00    +0.238 A 
ATOM     20  O   UNL     1       6.604   5.354  25.001  0.00  0.00    -0.283 OA
ATOM     21  C   UNL     1       8.947   5.385  24.782  0.00  0.00    +0.109 A 
ATOM     22  C   UNL     1       9.997   4.861  24.026  0.00  0.00    +0.147 A 
ATOM     23  C   UNL     1      11.276   5.421  24.056  0.00  0.00    +0.092 A 
ATOM     24  C   UNL     1      11.502   6.523  24.882  0.00  0.00    +0.124 A 
ATOM     25  C   UNL     1      10.486   7.044  25.666  0.00  0.00    +0.091 A 
ATOM     26  O   UNL     1       9.834   3.763  23.227  0.00  0.00    -0.451 OA
ATOM     27  C   UNL     1       9.211   6.481  25.623  0.00  0.00    +0.135 A 
ATOM     28  C   UNL     1       8.695   2.999  23.397  0.00  0.00    +0.181 A 
BRANCH  28  29
ATOM     29  C   UNL     1       8.967   1.596  23.059  0.00  0.00    +0.025 A 
ATOM     30  C   UNL     1       9.200   1.340  21.696  0.00  0.00    +0.015 A 
ATOM     31  C   UNL     1       9.286   0.042  21.215  0.00  0.00    +0.050 A 
ATOM     32  C   UNL     1       9.312  -1.002  22.122  0.00  0.00    +0.158 A 
ATOM     33  C   UNL     1       9.190  -0.753  23.496  0.00  0.00    +0.162 A 
ATOM     34  C   UNL     1       8.894   0.531  23.960  0.00  0.00    +0.061 A 
BRANCH  32  35
ATOM     35  O   UNL     1       9.566  -2.264  21.664  0.00  0.00    -0.503 OA
ATOM     36  H   UNL     1       9.309  -2.874  22.376  0.00  0.00    +0.292 HD
ENDBRANCH  32  35
BRANCH  33  37
ATOM     37  O   UNL     1       9.489  -1.705  24.439  0.00  0.00    -0.491 OA
ATOM     38  C   UNL     1       9.225  -1.191  25.754  0.00  0.00    +0.277 C 
ENDBRANCH  33  37
ENDBRANCH  28  29
BRANCH  27  39
ATOM     39  O   UNL     1       8.237   6.986  26.437  0.00  0.00    -0.506 OA
ATOM     40  H   UNL     1       7.466   7.245  25.917  0.00  0.00    +0.292 HD
ENDBRANCH  27  39
BRANCH  24  41
ATOM     41  O   UNL     1      12.731   7.108  24.955  0.00  0.00    -0.507 OA
ATOM     42  H   UNL     1      12.667   7.952  25.432  0.00  0.00    +0.292 HD
ENDBRANCH  24  41
ENDBRANCH  17  18
ENDBRANCH   3  17
BRANCH   1  43
ATOM     43  C   UNL     1       5.667  -1.334  26.548  0.00  0.00    +0.197 C 
BRANCH  43  44
ATOM     44  O   UNL     1       5.311  -2.672  26.164  0.00  0.00    -0.346 OA
BRANCH  44  48
ATOM     45  C   UNL     1       5.876  -2.736  21.766  0.00  0.00    +0.041 C 
ATOM     46  C   UNL     1       5.468  -3.933  22.628  0.00  0.00    +0.149 C 
ATOM     47  O   UNL     1       4.963  -3.540  23.920  0.00  0.00    -0.343 OA
ATOM     48  C   UNL     1       5.924  -3.128  24.903  0.00  0.00    +0.282 C 
ATOM     49  C   UNL     1       7.049  -4.196  25.082  0.00  0.00    +0.201 C 
ATOM     50  C   UNL     1       7.672  -4.539  23.712  0.00  0.00    +0.179 C 
ATOM     51  C   UNL     1       6.594  -4.977  22.708  0.00  0.00    +0.174 C 
BRANCH  51  52
ATOM     52  O   UNL     1       6.069  -6.253  23.111  0.00  0.00    -0.387 OA
ATOM     53  H   UNL     1       6.412  -6.424  24.011  0.00  0.00    +0.210 HD
ENDBRANCH  51  52
BRANCH  50  54
ATOM     54  O   UNL     1       8.634  -5.597  23.862  0.00  0.00    -0.386 OA
ATOM     55  H   UNL     1       8.108  -6.421  23.940  0.00  0.00    +0.210 HD
ENDBRANCH  50  54
BRANCH  49  56
ATOM     56  O   UNL     1       6.536  -5.419  25.648  0.00  0.00    -0.384 OA
ATOM     57  H   UNL     1       7.110  -5.628  26.410  0.00  0.00    +0.210 HD
ENDBRANCH  49  56
ENDBRANCH  44  48
ENDBRANCH  43  44
ENDBRANCH   1  43
TORSDOF 18
ENDMDL
