MODEL 1
REMARK VINA RESULT:      -7.2      0.000      0.000
REMARK  Name = 
REMARK  10 active torsions:
REMARK  status: ('A' for Active; 'I' for Inactive)
REMARK    1  A    between atoms: C_2  and  O_35
REMARK    2  A    between atoms: C_4  and  O_34
REMARK    3  A    between atoms: C_6  and  O_33
REMARK    4  A    between atoms: C_8  and  O_11
REMARK    5  A    between atoms: O_11  and  C_12
REMARK    6  A    between atoms: C_13  and  C_25
REMARK    7  A    between atoms: C_17  and  O_24
REMARK    8  A    between atoms: C_19  and  O_23
REMARK    9  A    between atoms: C_27  and  O_32
REMARK   10  A    between atoms: C_28  and  O_31
REMARK                            x       y       z     vdW  Elec       q    Type
REMARK                         _______ _______ _______ _____ _____    ______ ____
ROOT
ATOM      1  C   UNL     1       8.029   2.954  23.095  0.00  0.00    +0.214 A 
ATOM      2  C   UNL     1       7.345   1.640  22.824  0.00  0.00    +0.238 A 
ATOM      3  O   UNL     1       6.194   1.646  22.399  0.00  0.00    -0.283 OA
ATOM      4  C   UNL     1       8.101   0.383  23.075  0.00  0.00    +0.109 A 
ATOM      5  C   UNL     1       9.355   0.507  23.653  0.00  0.00    +0.147 A 
ATOM      6  C   UNL     1      10.117  -0.616  23.994  0.00  0.00    +0.092 A 
ATOM      7  C   UNL     1       9.619  -1.884  23.735  0.00  0.00    +0.124 A 
ATOM      8  C   UNL     1       8.386  -2.045  23.120  0.00  0.00    +0.091 A 
ATOM      9  O   UNL     1       9.934   1.713  23.917  0.00  0.00    -0.451 OA
ATOM     10  C   UNL     1       7.627  -0.906  22.791  0.00  0.00    +0.135 A 
ATOM     11  C   UNL     1       9.312   2.902  23.547  0.00  0.00    +0.181 A 
ENDROOT
BRANCH  11  12
ATOM     12  C   UNL     1      10.289   4.023  23.676  0.00  0.00    +0.025 A 
ATOM     13  C   UNL     1       9.877   5.253  24.246  0.00  0.00    +0.015 A 
ATOM     14  C   UNL     1      10.791   6.268  24.550  0.00  0.00    +0.050 A 
ATOM     15  C   UNL     1      12.119   6.097  24.212  0.00  0.00    +0.158 A 
ATOM     16  C   UNL     1      12.529   4.943  23.565  0.00  0.00    +0.159 A 
ATOM     17  C   UNL     1      11.650   3.885  23.375  0.00  0.00    +0.060 A 
BRANCH  15  18
ATOM     18  O   UNL     1      13.028   7.060  24.533  0.00  0.00    -0.503 OA
ATOM     19  H   UNL     1      13.484   6.711  25.325  0.00  0.00    +0.292 HD
ENDBRANCH  15  18
BRANCH  16  20
ATOM     20  O   UNL     1      13.815   4.871  23.108  0.00  0.00    -0.503 OA
ATOM     21  H   UNL     1      14.029   3.918  23.065  0.00  0.00    +0.292 HD
ENDBRANCH  16  20
ENDBRANCH  11  12
BRANCH   7  22
ATOM     22  O   UNL     1      10.317  -3.007  24.065  0.00  0.00    -0.507 OA
ATOM     23  H   UNL     1       9.726  -3.779  24.022  0.00  0.00    +0.292 HD
ENDBRANCH   7  22
BRANCH  10  24
ATOM     24  O   UNL     1       6.420  -1.097  22.175  0.00  0.00    -0.506 OA
ATOM     25  H   UNL     1       6.526  -1.653  21.383  0.00  0.00    +0.292 HD
ENDBRANCH  10  24
BRANCH   1  26
ATOM     26  O   UNL     1       7.290   4.072  22.734  0.00  0.00    -0.453 OA
BRANCH  26  29
ATOM     27  C   UNL     1       5.789   6.555  22.283  0.00  0.00    +0.198 C 
ATOM     28  O   UNL     1       6.615   6.230  23.400  0.00  0.00    -0.337 OA
ATOM     29  C   UNL     1       6.607   4.823  23.749  0.00  0.00    +0.339 C 
ATOM     30  C   UNL     1       5.159   4.321  24.002  0.00  0.00    +0.214 C 
ATOM     31  C   UNL     1       4.187   4.739  22.884  0.00  0.00    +0.180 C 
ATOM     32  C   UNL     1       4.331   6.243  22.587  0.00  0.00    +0.171 C 
BRANCH  30  33
ATOM     33  O   UNL     1       4.704   4.880  25.251  0.00  0.00    -0.383 OA
ATOM     34  H   UNL     1       3.974   4.324  25.575  0.00  0.00    +0.210 HD
ENDBRANCH  30  33
BRANCH  31  35
ATOM     35  O   UNL     1       4.364   3.932  21.717  0.00  0.00    -0.386 OA
ATOM     36  H   UNL     1       4.134   3.004  21.906  0.00  0.00    +0.210 HD
ENDBRANCH  31  35
BRANCH  32  37
ATOM     37  O   UNL     1       3.483   6.652  21.515  0.00  0.00    -0.387 OA
ATOM     38  H   UNL     1       3.114   5.851  21.106  0.00  0.00    +0.210 HD
ENDBRANCH  32  37
ENDBRANCH  26  29
ENDBRANCH   1  26
TORSDOF 10
ENDMDL
MODEL 2
REMARK VINA RESULT:      -6.9      1.852      6.035
REMARK  Name = 
REMARK  10 active torsions:
REMARK  status: ('A' for Active; 'I' for Inactive)
REMARK    1  A    between atoms: C_2  and  O_35
REMARK    2  A    between atoms: C_4  and  O_34
REMARK    3  A    between atoms: C_6  and  O_33
REMARK    4  A    between atoms: C_8  and  O_11
REMARK    5  A    between atoms: O_11  and  C_12
REMARK    6  A    between atoms: C_13  and  C_25
REMARK    7  A    between atoms: C_17  and  O_24
REMARK    8  A    between atoms: C_19  and  O_23
REMARK    9  A    between atoms: C_27  and  O_32
REMARK   10  A    between atoms: C_28  and  O_31
REMARK                            x       y       z     vdW  Elec       q    Type
REMARK                         _______ _______ _______ _____ _____    ______ ____
ROOT
ATOM      1  C   UNL     1       8.384   2.802  24.494  0.00  0.00    +0.214 A 
ATOM      2  C   UNL     1       8.750   4.261  24.579  0.00  0.00    +0.238 A 
ATOM      3  O   UNL     1       7.915   5.059  24.993  0.00  0.00    -0.283 OA
ATOM      4  C   UNL     1      10.118   4.674  24.164  0.00  0.00    +0.109 A 
ATOM      5  C   UNL     1      10.933   3.695  23.616  0.00  0.00    +0.147 A 
ATOM      6  C   UNL     1      12.210   3.995  23.130  0.00  0.00    +0.092 A 
ATOM      7  C   UNL     1      12.684   5.296  23.211  0.00  0.00    +0.124 A 
ATOM      8  C   UNL     1      11.912   6.292  23.791  0.00  0.00    +0.091 A 
ATOM      9  O   UNL     1      10.560   2.387  23.523  0.00  0.00    -0.451 OA
ATOM     10  C   UNL     1      10.626   5.978  24.267  0.00  0.00    +0.135 A 
ATOM     11  C   UNL     1       9.347   1.949  24.047  0.00  0.00    +0.181 A 
ENDROOT
BRANCH  11  12
ATOM     12  C   UNL     1       9.341   0.456  24.078  0.00  0.00    +0.025 A 
ATOM     13  C   UNL     1       9.832  -0.273  22.968  0.00  0.00    +0.015 A 
ATOM     14  C   UNL     1      10.010  -1.660  23.016  0.00  0.00    +0.050 A 
ATOM     15  C   UNL     1       9.623  -2.346  24.150  0.00  0.00    +0.158 A 
ATOM     16  C   UNL     1       9.049  -1.666  25.212  0.00  0.00    +0.159 A 
ATOM     17  C   UNL     1       8.986  -0.279  25.216  0.00  0.00    +0.060 A 
BRANCH  15  18
ATOM     18  O   UNL     1       9.823  -3.691  24.228  0.00  0.00    -0.503 OA
ATOM     19  H   UNL     1      10.586  -3.859  23.640  0.00  0.00    +0.292 HD
ENDBRANCH  15  18
BRANCH  16  20
ATOM     20  O   UNL     1       8.538  -2.391  26.252  0.00  0.00    -0.503 OA
ATOM     21  H   UNL     1       7.714  -1.934  26.514  0.00  0.00    +0.292 HD
ENDBRANCH  16  20
ENDBRANCH  11  12
BRANCH   7  22
ATOM     22  O   UNL     1      13.914   5.639  22.736  0.00  0.00    -0.507 OA
ATOM     23  H   UNL     1      14.209   6.460  23.167  0.00  0.00    +0.292 HD
ENDBRANCH   7  22
BRANCH  10  24
ATOM     24  O   UNL     1       9.893   6.979  24.844  0.00  0.00    -0.506 OA
ATOM     25  H   UNL     1       9.462   7.522  24.160  0.00  0.00    +0.292 HD
ENDBRANCH  10  24
BRANCH   1  26
ATOM     26  O   UNL     1       7.129   2.493  24.999  0.00  0.00    -0.453 OA
BRANCH  26  29
ATOM     27  C   UNL     1       4.356   1.913  25.768  0.00  0.00    +0.198 C 
ATOM     28  O   UNL     1       5.148   1.234  24.795  0.00  0.00    -0.337 OA
ATOM     29  C   UNL     1       6.088   2.090  24.098  0.00  0.00    +0.339 C 
ATOM     30  C   UNL     1       5.359   3.292  23.437  0.00  0.00    +0.214 C 
ATOM     31  C   UNL     1       4.398   4.003  24.407  0.00  0.00    +0.180 C 
ATOM     32  C   UNL     1       3.490   2.975  25.107  0.00  0.00    +0.171 C 
BRANCH  30  33
ATOM     33  O   UNL     1       4.607   2.796  22.311  0.00  0.00    -0.383 OA
ATOM     34  H   UNL     1       4.904   1.886  22.136  0.00  0.00    +0.210 HD
ENDBRANCH  30  33
BRANCH  31  35
ATOM     35  O   UNL     1       5.112   4.824  25.335  0.00  0.00    -0.386 OA
ATOM     36  H   UNL     1       4.608   4.920  26.163  0.00  0.00    +0.210 HD
ENDBRANCH  31  35
BRANCH  32  37
ATOM     37  O   UNL     1       2.624   3.596  26.055  0.00  0.00    -0.387 OA
ATOM     38  H   UNL     1       1.750   3.693  25.639  0.00  0.00    +0.210 HD
ENDBRANCH  32  37
ENDBRANCH  26  29
ENDBRANCH   1  26
TORSDOF 10
ENDMDL
MODEL 3
REMARK VINA RESULT:      -6.9      3.184      4.505
REMARK  Name = 
REMARK  10 active torsions:
REMARK  status: ('A' for Active; 'I' for Inactive)
REMARK    1  A    between atoms: C_2  and  O_35
REMARK    2  A    between atoms: C_4  and  O_34
REMARK    3  A    between atoms: C_6  and  O_33
REMARK    4  A    between atoms: C_8  and  O_11
REMARK    5  A    between atoms: O_11  and  C_12
REMARK    6  A    between atoms: C_13  and  C_25
REMARK    7  A    between atoms: C_17  and  O_24
REMARK    8  A    between atoms: C_19  and  O_23
REMARK    9  A    between atoms: C_27  and  O_32
REMARK   10  A    between atoms: C_28  and  O_31
REMARK                            x       y       z     vdW  Elec       q    Type
REMARK                         _______ _______ _______ _____ _____    ______ ____
ROOT
ATOM      1  C   UNL     1       5.935  -0.338  25.141  0.00  0.00    +0.214 A 
ATOM      2  C   UNL     1       5.114  -1.358  25.886  0.00  0.00    +0.238 A 
ATOM      3  O   UNL     1       3.935  -1.112  26.122  0.00  0.00    -0.283 OA
ATOM      4  C   UNL     1       5.767  -2.629  26.301  0.00  0.00    +0.109 A 
ATOM      5  C   UNL     1       7.130  -2.741  26.068  0.00  0.00    +0.147 A 
ATOM      6  C   UNL     1       7.851  -3.866  26.484  0.00  0.00    +0.092 A 
ATOM      7  C   UNL     1       7.191  -4.902  27.127  0.00  0.00    +0.124 A 
ATOM      8  C   UNL     1       5.821  -4.841  27.339  0.00  0.00    +0.091 A 
ATOM      9  O   UNL     1       7.852  -1.786  25.418  0.00  0.00    -0.451 OA
ATOM     10  C   UNL     1       5.110  -3.700  26.924  0.00  0.00    +0.135 A 
ATOM     11  C   UNL     1       7.234  -0.660  24.884  0.00  0.00    +0.181 A 
ENDROOT
BRANCH  11  12
ATOM     12  C   UNL     1       8.195   0.044  23.983  0.00  0.00    +0.025 A 
ATOM     13  C   UNL     1       7.953   0.080  22.588  0.00  0.00    +0.015 A 
ATOM     14  C   UNL     1       8.722   0.869  21.726  0.00  0.00    +0.050 A 
ATOM     15  C   UNL     1       9.795   1.572  22.239  0.00  0.00    +0.158 A 
ATOM     16  C   UNL     1      10.110   1.475  23.585  0.00  0.00    +0.159 A 
ATOM     17  C   UNL     1       9.277   0.792  24.461  0.00  0.00    +0.060 A 
BRANCH  15  18
ATOM     18  O   UNL     1      10.532   2.374  21.421  0.00  0.00    -0.503 OA
ATOM     19  H   UNL     1      10.283   2.095  20.517  0.00  0.00    +0.292 HD
ENDBRANCH  15  18
BRANCH  16  20
ATOM     20  O   UNL     1      11.264   2.056  24.029  0.00  0.00    -0.503 OA
ATOM     21  H   UNL     1      11.267   1.932  24.999  0.00  0.00    +0.292 HD
ENDBRANCH  16  20
ENDBRANCH  11  12
BRANCH   7  22
ATOM     22  O   UNL     1       7.854  -6.009  27.565  0.00  0.00    -0.507 OA
ATOM     23  H   UNL     1       8.749  -5.758  27.852  0.00  0.00    +0.292 HD
ENDBRANCH   7  22
BRANCH  10  24
ATOM     24  O   UNL     1       3.759  -3.674  27.137  0.00  0.00    -0.506 OA
ATOM     25  H   UNL     1       3.547  -4.024  28.021  0.00  0.00    +0.292 HD
ENDBRANCH  10  24
BRANCH   1  26
ATOM     26  O   UNL     1       5.220   0.767  24.702  0.00  0.00    -0.453 OA
BRANCH  26  29
ATOM     27  C   UNL     1       6.295   3.305  23.690  0.00  0.00    +0.198 C 
ATOM     28  O   UNL     1       6.434   2.764  25.003  0.00  0.00    -0.337 OA
ATOM     29  C   UNL     1       5.291   1.992  25.447  0.00  0.00    +0.339 C 
ATOM     30  C   UNL     1       3.986   2.830  25.359  0.00  0.00    +0.214 C 
ATOM     31  C   UNL     1       3.831   3.537  24.000  0.00  0.00    +0.180 C 
ATOM     32  C   UNL     1       5.128   4.280  23.633  0.00  0.00    +0.171 C 
BRANCH  30  33
ATOM     33  O   UNL     1       4.022   3.825  26.402  0.00  0.00    -0.383 OA
ATOM     34  H   UNL     1       3.108   3.969  26.704  0.00  0.00    +0.210 HD
ENDBRANCH  30  33
BRANCH  31  35
ATOM     35  O   UNL     1       3.421   2.617  22.983  0.00  0.00    -0.386 OA
ATOM     36  H   UNL     1       3.290   1.728  23.360  0.00  0.00    +0.210 HD
ENDBRANCH  31  35
BRANCH  32  37
ATOM     37  O   UNL     1       5.037   4.900  22.352  0.00  0.00    -0.387 OA
ATOM     38  H   UNL     1       5.940   5.000  22.006  0.00  0.00    +0.210 HD
ENDBRANCH  32  37
ENDBRANCH  26  29
ENDBRANCH   1  26
TORSDOF 10
ENDMDL
MODEL 4
REMARK VINA RESULT:      -6.9      3.453      9.313
REMARK  Name = 
REMARK  10 active torsions:
REMARK  status: ('A' for Active; 'I' for Inactive)
REMARK    1  A    between atoms: C_2  and  O_35
REMARK    2  A    between atoms: C_4  and  O_34
REMARK    3  A    between atoms: C_6  and  O_33
REMARK    4  A    between atoms: C_8  and  O_11
REMARK    5  A    between atoms: O_11  and  C_12
REMARK    6  A    between atoms: C_13  and  C_25
REMARK    7  A    between atoms: C_17  and  O_24
REMARK    8  A    between atoms: C_19  and  O_23
REMARK    9  A    between atoms: C_27  and  O_32
REMARK   10  A    between atoms: C_28  and  O_31
REMARK                            x       y       z     vdW  Elec       q    Type
REMARK                         _______ _______ _______ _____ _____    ______ ____
ROOT
ATOM      1  C   UNL     1       7.793  -2.186  23.415  0.00  0.00    +0.214 A 
ATOM      2  C   UNL     1       8.691  -1.126  22.834  0.00  0.00    +0.238 A 
ATOM      3  O   UNL     1       9.854  -1.414  22.567  0.00  0.00    -0.283 OA
ATOM      4  C   UNL     1       8.127   0.230  22.598  0.00  0.00    +0.109 A 
ATOM      5  C   UNL     1       6.831   0.458  23.038  0.00  0.00    +0.147 A 
ATOM      6  C   UNL     1       6.234   1.719  22.928  0.00  0.00    +0.092 A 
ATOM      7  C   UNL     1       6.941   2.763  22.352  0.00  0.00    +0.124 A 
ATOM      8  C   UNL     1       8.224   2.560  21.863  0.00  0.00    +0.091 A 
ATOM      9  O   UNL     1       6.054  -0.515  23.591  0.00  0.00    -0.451 OA
ATOM     10  C   UNL     1       8.816   1.289  21.988  0.00  0.00    +0.135 A 
ATOM     11  C   UNL     1       6.505  -1.829  23.678  0.00  0.00    +0.181 A 
ENDROOT
BRANCH  11  12
ATOM     12  C   UNL     1       5.358  -2.716  24.032  0.00  0.00    +0.025 A 
ATOM     13  C   UNL     1       4.639  -2.492  25.231  0.00  0.00    +0.015 A 
ATOM     14  C   UNL     1       3.455  -3.179  25.521  0.00  0.00    +0.050 A 
ATOM     15  C   UNL     1       3.018  -4.158  24.650  0.00  0.00    +0.158 A 
ATOM     16  C   UNL     1       3.757  -4.463  23.519  0.00  0.00    +0.159 A 
ATOM     17  C   UNL     1       4.863  -3.700  23.167  0.00  0.00    +0.060 A 
BRANCH  15  18
ATOM     18  O   UNL     1       1.848  -4.810  24.898  0.00  0.00    -0.503 OA
ATOM     19  H   UNL     1       1.321  -4.176  25.424  0.00  0.00    +0.292 HD
ENDBRANCH  15  18
BRANCH  16  20
ATOM     20  O   UNL     1       3.381  -5.537  22.762  0.00  0.00    -0.503 OA
ATOM     21  H   UNL     1       2.404  -5.553  22.789  0.00  0.00    +0.292 HD
ENDBRANCH  16  20
ENDBRANCH  11  12
BRANCH   7  22
ATOM     22  O   UNL     1       6.408   4.012  22.238  0.00  0.00    -0.507 OA
ATOM     23  H   UNL     1       6.824   4.602  22.890  0.00  0.00    +0.292 HD
ENDBRANCH   7  22
BRANCH  10  24
ATOM     24  O   UNL     1      10.077   1.117  21.487  0.00  0.00    -0.506 OA
ATOM     25  H   UNL     1      10.059   0.520  20.718  0.00  0.00    +0.292 HD
ENDBRANCH  10  24
BRANCH   1  26
ATOM     26  O   UNL     1       8.370  -3.445  23.501  0.00  0.00    -0.453 OA
BRANCH  26  29
ATOM     27  C   UNL     1       7.880  -3.080  26.373  0.00  0.00    +0.198 C 
ATOM     28  O   UNL     1       9.085  -2.815  25.656  0.00  0.00    -0.337 OA
ATOM     29  C   UNL     1       9.319  -3.714  24.544  0.00  0.00    +0.339 C 
ATOM     30  C   UNL     1       9.300  -5.196  25.013  0.00  0.00    +0.214 C 
ATOM     31  C   UNL     1       8.077  -5.519  25.891  0.00  0.00    +0.180 C 
ATOM     32  C   UNL     1       7.924  -4.464  27.001  0.00  0.00    +0.171 C 
BRANCH  30  33
ATOM     33  O   UNL     1      10.501  -5.440  25.774  0.00  0.00    -0.383 OA
ATOM     34  H   UNL     1      10.432  -4.934  26.603  0.00  0.00    +0.210 HD
ENDBRANCH  30  33
BRANCH  31  35
ATOM     35  O   UNL     1       6.894  -5.655  25.099  0.00  0.00    -0.386 OA
ATOM     36  H   UNL     1       7.094  -6.112  24.261  0.00  0.00    +0.210 HD
ENDBRANCH  31  35
BRANCH  32  37
ATOM     37  O   UNL     1       6.767  -4.704  27.800  0.00  0.00    -0.387 OA
ATOM     38  H   UNL     1       6.385  -5.553  27.521  0.00  0.00    +0.210 HD
ENDBRANCH  32  37
ENDBRANCH  26  29
ENDBRANCH   1  26
TORSDOF 10
ENDMDL
MODEL 5
REMARK VINA RESULT:      -6.8      4.096      7.036
REMARK  Name = 
REMARK  10 active torsions:
REMARK  status: ('A' for Active; 'I' for Inactive)
REMARK    1  A    between atoms: C_2  and  O_35
REMARK    2  A    between atoms: C_4  and  O_34
REMARK    3  A    between atoms: C_6  and  O_33
REMARK    4  A    between atoms: C_8  and  O_11
REMARK    5  A    between atoms: O_11  and  C_12
REMARK    6  A    between atoms: C_13  and  C_25
REMARK    7  A    between atoms: C_17  and  O_24
REMARK    8  A    between atoms: C_19  and  O_23
REMARK    9  A    between atoms: C_27  and  O_32
REMARK   10  A    between atoms: C_28  and  O_31
REMARK                            x       y       z     vdW  Elec       q    Type
REMARK                         _______ _______ _______ _____ _____    ______ ____
ROOT
ATOM      1  C   UNL     1       6.452  -2.408  23.568  0.00  0.00    +0.214 A 
ATOM      2  C   UNL     1       6.231  -3.790  23.012  0.00  0.00    +0.238 A 
ATOM      3  O   UNL     1       6.663  -4.056  21.894  0.00  0.00    -0.283 OA
ATOM      4  C   UNL     1       5.502  -4.783  23.847  0.00  0.00    +0.109 A 
ATOM      5  C   UNL     1       4.973  -4.328  25.046  0.00  0.00    +0.147 A 
ATOM      6  C   UNL     1       4.210  -5.163  25.870  0.00  0.00    +0.092 A 
ATOM      7  C   UNL     1       3.989  -6.479  25.493  0.00  0.00    +0.124 A 
ATOM      8  C   UNL     1       4.538  -6.978  24.321  0.00  0.00    +0.091 A 
ATOM      9  O   UNL     1       5.164  -3.061  25.508  0.00  0.00    -0.451 OA
ATOM     10  C   UNL     1       5.295  -6.125  23.497  0.00  0.00    +0.135 A 
ATOM     11  C   UNL     1       5.973  -2.162  24.819  0.00  0.00    +0.181 A 
ENDROOT
BRANCH  11  12
ATOM     12  C   UNL     1       6.244  -0.982  25.692  0.00  0.00    +0.025 A 
ATOM     13  C   UNL     1       5.409   0.159  25.613  0.00  0.00    +0.015 A 
ATOM     14  C   UNL     1       5.511   1.214  26.526  0.00  0.00    +0.050 A 
ATOM     15  C   UNL     1       6.506   1.177  27.483  0.00  0.00    +0.158 A 
ATOM     16  C   UNL     1       7.398   0.117  27.520  0.00  0.00    +0.159 A 
ATOM     17  C   UNL     1       7.222  -0.987  26.696  0.00  0.00    +0.060 A 
BRANCH  15  18
ATOM     18  O   UNL     1       6.597   2.178  28.403  0.00  0.00    -0.503 OA
ATOM     19  H   UNL     1       6.945   1.741  29.206  0.00  0.00    +0.292 HD
ENDBRANCH  15  18
BRANCH  16  20
ATOM     20  O   UNL     1       8.460   0.186  28.376  0.00  0.00    -0.503 OA
ATOM     21  H   UNL     1       9.161   0.667  27.892  0.00  0.00    +0.292 HD
ENDBRANCH  16  20
ENDBRANCH  11  12
BRANCH   7  22
ATOM     22  O   UNL     1       3.239  -7.325  26.255  0.00  0.00    -0.507 OA
ATOM     23  H   UNL     1       3.773  -8.101  26.498  0.00  0.00    +0.292 HD
ENDBRANCH   7  22
BRANCH  10  24
ATOM     24  O   UNL     1       5.832  -6.649  22.354  0.00  0.00    -0.506 OA
ATOM     25  H   UNL     1       5.814  -5.991  21.636  0.00  0.00    +0.292 HD
ENDBRANCH  10  24
BRANCH   1  26
ATOM     26  O   UNL     1       7.231  -1.584  22.768  0.00  0.00    -0.453 OA
BRANCH  26  29
ATOM     27  C   UNL     1       9.133  -0.109  21.086  0.00  0.00    +0.198 C 
ATOM     28  O   UNL     1       9.296  -1.411  21.647  0.00  0.00    -0.337 OA
ATOM     29  C   UNL     1       8.656  -1.582  22.936  0.00  0.00    +0.339 C 
ATOM     30  C   UNL     1       9.146  -0.508  23.947  0.00  0.00    +0.214 C 
ATOM     31  C   UNL     1       9.102   0.914  23.361  0.00  0.00    +0.180 C 
ATOM     32  C   UNL     1       9.777   0.942  21.977  0.00  0.00    +0.171 C 
BRANCH  30  33
ATOM     33  O   UNL     1      10.505  -0.823  24.311  0.00  0.00    -0.383 OA
ATOM     34  H   UNL     1      10.529  -1.758  24.583  0.00  0.00    +0.210 HD
ENDBRANCH  30  33
BRANCH  31  35
ATOM     35  O   UNL     1       7.764   1.419  23.327  0.00  0.00    -0.386 OA
ATOM     36  H   UNL     1       7.140   0.715  23.076  0.00  0.00    +0.210 HD
ENDBRANCH  31  35
BRANCH  32  37
ATOM     37  O   UNL     1       9.704   2.236  21.381  0.00  0.00    -0.387 OA
ATOM     38  H   UNL     1       8.945   2.241  20.774  0.00  0.00    +0.210 HD
ENDBRANCH  32  37
ENDBRANCH  26  29
ENDBRANCH   1  26
TORSDOF 10
ENDMDL
MODEL 6
REMARK VINA RESULT:      -6.7      3.740      5.909
REMARK  Name = 
REMARK  10 active torsions:
REMARK  status: ('A' for Active; 'I' for Inactive)
REMARK    1  A    between atoms: C_2  and  O_35
REMARK    2  A    between atoms: C_4  and  O_34
REMARK    3  A    between atoms: C_6  and  O_33
REMARK    4  A    between atoms: C_8  and  O_11
REMARK    5  A    between atoms: O_11  and  C_12
REMARK    6  A    between atoms: C_13  and  C_25
REMARK    7  A    between atoms: C_17  and  O_24
REMARK    8  A    between atoms: C_19  and  O_23
REMARK    9  A    between atoms: C_27  and  O_32
REMARK   10  A    between atoms: C_28  and  O_31
REMARK                            x       y       z     vdW  Elec       q    Type
REMARK                         _______ _______ _______ _____ _____    ______ ____
ROOT
ATOM      1  C   UNL     1       7.151  -1.838  25.597  0.00  0.00    +0.214 A 
ATOM      2  C   UNL     1       6.333  -3.071  25.883  0.00  0.00    +0.238 A 
ATOM      3  O   UNL     1       5.808  -3.192  26.986  0.00  0.00    -0.283 OA
ATOM      4  C   UNL     1       6.188  -4.090  24.809  0.00  0.00    +0.109 A 
ATOM      5  C   UNL     1       6.916  -3.887  23.646  0.00  0.00    +0.147 A 
ATOM      6  C   UNL     1       6.904  -4.822  22.605  0.00  0.00    +0.092 A 
ATOM      7  C   UNL     1       6.137  -5.971  22.726  0.00  0.00    +0.124 A 
ATOM      8  C   UNL     1       5.365  -6.186  23.858  0.00  0.00    +0.091 A 
ATOM      9  O   UNL     1       7.673  -2.775  23.430  0.00  0.00    -0.451 OA
ATOM     10  C   UNL     1       5.393  -5.242  24.901  0.00  0.00    +0.135 A 
ATOM     11  C   UNL     1       7.699  -1.735  24.355  0.00  0.00    +0.181 A 
ENDROOT
BRANCH  11  12
ATOM     12  C   UNL     1       8.349  -0.544  23.732  0.00  0.00    +0.025 A 
ATOM     13  C   UNL     1       9.726  -0.299  23.951  0.00  0.00    +0.015 A 
ATOM     14  C   UNL     1      10.419   0.697  23.254  0.00  0.00    +0.050 A 
ATOM     15  C   UNL     1       9.723   1.514  22.384  0.00  0.00    +0.158 A 
ATOM     16  C   UNL     1       8.355   1.356  22.226  0.00  0.00    +0.159 A 
ATOM     17  C   UNL     1       7.690   0.293  22.822  0.00  0.00    +0.060 A 
BRANCH  15  18
ATOM     18  O   UNL     1      10.388   2.464  21.669  0.00  0.00    -0.503 OA
ATOM     19  H   UNL     1      11.262   2.065  21.488  0.00  0.00    +0.292 HD
ENDBRANCH  15  18
BRANCH  16  20
ATOM     20  O   UNL     1       7.673   2.275  21.480  0.00  0.00    -0.503 OA
ATOM     21  H   UNL     1       8.274   2.523  20.749  0.00  0.00    +0.292 HD
ENDBRANCH  16  20
ENDBRANCH  11  12
BRANCH   7  22
ATOM     22  O   UNL     1       6.108  -6.917  21.746  0.00  0.00    -0.507 OA
ATOM     23  H   UNL     1       5.203  -6.990  21.394  0.00  0.00    +0.292 HD
ENDBRANCH   7  22
BRANCH  10  24
ATOM     24  O   UNL     1       4.613  -5.477  26.000  0.00  0.00    -0.506 OA
ATOM     25  H   UNL     1       3.876  -4.842  26.037  0.00  0.00    +0.292 HD
ENDBRANCH  10  24
BRANCH   1  26
ATOM     26  O   UNL     1       7.144  -0.894  26.615  0.00  0.00    -0.453 OA
BRANCH  26  29
ATOM     27  C   UNL     1       6.840   1.143  28.706  0.00  0.00    +0.198 C 
ATOM     28  O   UNL     1       5.874   0.182  28.282  0.00  0.00    -0.337 OA
ATOM     29  C   UNL     1       5.948  -0.145  26.872  0.00  0.00    +0.339 C 
ATOM     30  C   UNL     1       5.835   1.135  25.998  0.00  0.00    +0.214 C 
ATOM     31  C   UNL     1       6.774   2.258  26.476  0.00  0.00    +0.180 C 
ATOM     32  C   UNL     1       6.624   2.470  27.993  0.00  0.00    +0.171 C 
BRANCH  30  33
ATOM     33  O   UNL     1       4.473   1.604  26.064  0.00  0.00    -0.383 OA
ATOM     34  H   UNL     1       4.498   2.558  26.256  0.00  0.00    +0.210 HD
ENDBRANCH  30  33
BRANCH  31  35
ATOM     35  O   UNL     1       8.127   1.999  26.091  0.00  0.00    -0.386 OA
ATOM     36  H   UNL     1       8.155   1.384  25.336  0.00  0.00    +0.210 HD
ENDBRANCH  31  35
BRANCH  32  37
ATOM     37  O   UNL     1       7.521   3.467  28.478  0.00  0.00    -0.387 OA
ATOM     38  H   UNL     1       7.064   4.324  28.436  0.00  0.00    +0.210 HD
ENDBRANCH  32  37
ENDBRANCH  26  29
ENDBRANCH   1  26
TORSDOF 10
ENDMDL
MODEL 7
REMARK VINA RESULT:      -6.7      3.853      6.887
REMARK  Name = 
REMARK  10 active torsions:
REMARK  status: ('A' for Active; 'I' for Inactive)
REMARK    1  A    between atoms: C_2  and  O_35
REMARK    2  A    between atoms: C_4  and  O_34
REMARK    3  A    between atoms: C_6  and  O_33
REMARK    4  A    between atoms: C_8  and  O_11
REMARK    5  A    between atoms: O_11  and  C_12
REMARK    6  A    between atoms: C_13  and  C_25
REMARK    7  A    between atoms: C_17  and  O_24
REMARK    8  A    between atoms: C_19  and  O_23
REMARK    9  A    between atoms: C_27  and  O_32
REMARK   10  A    between atoms: C_28  and  O_31
REMARK                            x       y       z     vdW  Elec       q    Type
REMARK                         _______ _______ _______ _____ _____    ______ ____
ROOT
ATOM      1  C   UNL     1       7.789  -1.746  25.473  0.00  0.00    +0.214 A 
ATOM      2  C   UNL     1       8.026  -3.198  25.796  0.00  0.00    +0.238 A 
ATOM      3  O   UNL     1       8.985  -3.770  25.286  0.00  0.00    -0.283 OA
ATOM      4  C   UNL     1       7.091  -3.878  26.731  0.00  0.00    +0.109 A 
ATOM      5  C   UNL     1       5.988  -3.152  27.157  0.00  0.00    +0.147 A 
ATOM      6  C   UNL     1       5.011  -3.724  27.981  0.00  0.00    +0.092 A 
ATOM      7  C   UNL     1       5.152  -5.039  28.397  0.00  0.00    +0.124 A 
ATOM      8  C   UNL     1       6.264  -5.781  28.024  0.00  0.00    +0.091 A 
ATOM      9  O   UNL     1       5.784  -1.848  26.821  0.00  0.00    -0.451 OA
ATOM     10  C   UNL     1       7.233  -5.197  27.188  0.00  0.00    +0.135 A 
ATOM     11  C   UNL     1       6.726  -1.145  26.075  0.00  0.00    +0.181 A 
ENDROOT
BRANCH  11  12
ATOM     12  C   UNL     1       6.395   0.311  26.119  0.00  0.00    +0.025 A 
ATOM     13  C   UNL     1       5.260   0.795  25.424  0.00  0.00    +0.015 A 
ATOM     14  C   UNL     1       4.808   2.111  25.576  0.00  0.00    +0.050 A 
ATOM     15  C   UNL     1       5.535   2.982  26.364  0.00  0.00    +0.158 A 
ATOM     16  C   UNL     1       6.703   2.558  26.975  0.00  0.00    +0.159 A 
ATOM     17  C   UNL     1       7.085   1.224  26.927  0.00  0.00    +0.060 A 
BRANCH  15  18
ATOM     18  O   UNL     1       5.089   4.256  26.551  0.00  0.00    -0.503 OA
ATOM     19  H   UNL     1       5.297   4.452  27.486  0.00  0.00    +0.292 HD
ENDBRANCH  15  18
BRANCH  16  20
ATOM     20  O   UNL     1       7.477   3.482  27.619  0.00  0.00    -0.503 OA
ATOM     21  H   UNL     1       7.861   4.042  26.916  0.00  0.00    +0.292 HD
ENDBRANCH  16  20
ENDBRANCH  11  12
BRANCH   7  22
ATOM     22  O   UNL     1       4.219  -5.643  29.185  0.00  0.00    -0.507 OA
ATOM     23  H   UNL     1       4.548  -5.686  30.100  0.00  0.00    +0.292 HD
ENDBRANCH   7  22
BRANCH  10  24
ATOM     24  O   UNL     1       8.323  -5.950  26.847  0.00  0.00    -0.506 OA
ATOM     25  H   UNL     1       8.102  -6.898  26.868  0.00  0.00    +0.292 HD
ENDBRANCH  10  24
BRANCH   1  26
ATOM     26  O   UNL     1       8.768  -1.165  24.679  0.00  0.00    -0.453 OA
BRANCH  26  29
ATOM     27  C   UNL     1       7.717   0.671  22.643  0.00  0.00    +0.198 C 
ATOM     28  O   UNL     1       7.624  -0.753  22.660  0.00  0.00    -0.337 OA
ATOM     29  C   UNL     1       8.765  -1.411  23.265  0.00  0.00    +0.339 C 
ATOM     30  C   UNL     1      10.087  -0.979  22.572  0.00  0.00    +0.214 C 
ATOM     31  C   UNL     1      10.198   0.548  22.418  0.00  0.00    +0.180 C 
ATOM     32  C   UNL     1       8.906   1.118  21.806  0.00  0.00    +0.171 C 
BRANCH  30  33
ATOM     33  O   UNL     1      10.126  -1.586  21.264  0.00  0.00    -0.383 OA
ATOM     34  H   UNL     1      10.188  -0.870  20.608  0.00  0.00    +0.210 HD
ENDBRANCH  30  33
BRANCH  31  35
ATOM     35  O   UNL     1      10.536   1.170  23.661  0.00  0.00    -0.386 OA
ATOM     36  H   UNL     1       9.765   1.182  24.257  0.00  0.00    +0.210 HD
ENDBRANCH  31  35
BRANCH  32  37
ATOM     37  O   UNL     1       8.955   2.540  21.701  0.00  0.00    -0.387 OA
ATOM     38  H   UNL     1       9.473   2.875  22.452  0.00  0.00    +0.210 HD
ENDBRANCH  32  37
ENDBRANCH  26  29
ENDBRANCH   1  26
TORSDOF 10
ENDMDL
MODEL 8
REMARK VINA RESULT:      -6.7      3.978      8.568
REMARK  Name = 
REMARK  10 active torsions:
REMARK  status: ('A' for Active; 'I' for Inactive)
REMARK    1  A    between atoms: C_2  and  O_35
REMARK    2  A    between atoms: C_4  and  O_34
REMARK    3  A    between atoms: C_6  and  O_33
REMARK    4  A    between atoms: C_8  and  O_11
REMARK    5  A    between atoms: O_11  and  C_12
REMARK    6  A    between atoms: C_13  and  C_25
REMARK    7  A    between atoms: C_17  and  O_24
REMARK    8  A    between atoms: C_19  and  O_23
REMARK    9  A    between atoms: C_27  and  O_32
REMARK   10  A    between atoms: C_28  and  O_31
REMARK                            x       y       z     vdW  Elec       q    Type
REMARK                         _______ _______ _______ _____ _____    ______ ____
ROOT
ATOM      1  C   UNL     1       6.817  -1.325  24.751  0.00  0.00    +0.214 A 
ATOM      2  C   UNL     1       7.271   0.052  25.160  0.00  0.00    +0.238 A 
ATOM      3  O   UNL     1       6.833   0.536  26.199  0.00  0.00    -0.283 OA
ATOM      4  C   UNL     1       8.242   0.767  24.289  0.00  0.00    +0.109 A 
ATOM      5  C   UNL     1       8.580   0.156  23.090  0.00  0.00    +0.147 A 
ATOM      6  C   UNL     1       9.429   0.778  22.168  0.00  0.00    +0.092 A 
ATOM      7  C   UNL     1       9.962   2.024  22.461  0.00  0.00    +0.124 A 
ATOM      8  C   UNL     1       9.678   2.645  23.669  0.00  0.00    +0.091 A 
ATOM      9  O   UNL     1       8.126  -1.078  22.733  0.00  0.00    -0.451 OA
ATOM     10  C   UNL     1       8.815   2.012  24.583  0.00  0.00    +0.135 A 
ATOM     11  C   UNL     1       7.342  -1.832  23.601  0.00  0.00    +0.181 A 
ENDROOT
BRANCH  11  12
ATOM     12  C   UNL     1       7.252  -3.231  23.087  0.00  0.00    +0.025 A 
ATOM     13  C   UNL     1       7.836  -4.290  23.823  0.00  0.00    +0.015 A 
ATOM     14  C   UNL     1       7.629  -5.631  23.479  0.00  0.00    +0.050 A 
ATOM     15  C   UNL     1       6.900  -5.926  22.344  0.00  0.00    +0.158 A 
ATOM     16  C   UNL     1       6.401  -4.904  21.553  0.00  0.00    +0.159 A 
ATOM     17  C   UNL     1       6.499  -3.579  21.959  0.00  0.00    +0.060 A 
BRANCH  15  18
ATOM     18  O   UNL     1       6.658  -7.225  22.014  0.00  0.00    -0.503 OA
ATOM     19  H   UNL     1       7.183  -7.373  21.203  0.00  0.00    +0.292 HD
ENDBRANCH  15  18
BRANCH  16  20
ATOM     20  O   UNL     1       5.818  -5.226  20.359  0.00  0.00    -0.503 OA
ATOM     21  H   UNL     1       6.473  -4.990  19.672  0.00  0.00    +0.292 HD
ENDBRANCH  16  20
ENDBRANCH  11  12
BRANCH   7  22
ATOM     22  O   UNL     1      10.780   2.676  21.587  0.00  0.00    -0.507 OA
ATOM     23  H   UNL     1      10.736   2.241  20.718  0.00  0.00    +0.292 HD
ENDBRANCH   7  22
BRANCH  10  24
ATOM     24  O   UNL     1       8.563   2.645  25.769  0.00  0.00    -0.506 OA
ATOM     25  H   UNL     1       8.543   2.002  26.501  0.00  0.00    +0.292 HD
ENDBRANCH  10  24
BRANCH   1  26
ATOM     26  O   UNL     1       5.996  -1.959  25.673  0.00  0.00    -0.453 OA
BRANCH  26  29
ATOM     27  C   UNL     1       4.381  -4.380  25.286  0.00  0.00    +0.198 C 
ATOM     28  O   UNL     1       4.233  -3.122  24.629  0.00  0.00    -0.337 OA
ATOM     29  C   UNL     1       4.578  -1.981  25.454  0.00  0.00    +0.339 C 
ATOM     30  C   UNL     1       3.761  -1.985  26.776  0.00  0.00    +0.214 C 
ATOM     31  C   UNL     1       3.786  -3.353  27.480  0.00  0.00    +0.180 C 
ATOM     32  C   UNL     1       3.444  -4.473  26.481  0.00  0.00    +0.171 C 
BRANCH  30  33
ATOM     33  O   UNL     1       2.396  -1.646  26.459  0.00  0.00    -0.383 OA
ATOM     34  H   UNL     1       2.248  -1.861  25.521  0.00  0.00    +0.210 HD
ENDBRANCH  30  33
BRANCH  31  35
ATOM     35  O   UNL     1       5.036  -3.572  28.141  0.00  0.00    -0.386 OA
ATOM     36  H   UNL     1       4.985  -3.284  29.070  0.00  0.00    +0.210 HD
ENDBRANCH  31  35
BRANCH  32  37
ATOM     37  O   UNL     1       3.513  -5.762  27.089  0.00  0.00    -0.387 OA
ATOM     38  H   UNL     1       3.170  -5.681  27.995  0.00  0.00    +0.210 HD
ENDBRANCH  32  37
ENDBRANCH  26  29
ENDBRANCH   1  26
TORSDOF 10
ENDMDL
MODEL 9
REMARK VINA RESULT:      -6.6      5.252      9.769
REMARK  Name = 
REMARK  10 active torsions:
REMARK  status: ('A' for Active; 'I' for Inactive)
REMARK    1  A    between atoms: C_2  and  O_35
REMARK    2  A    between atoms: C_4  and  O_34
REMARK    3  A    between atoms: C_6  and  O_33
REMARK    4  A    between atoms: C_8  and  O_11
REMARK    5  A    between atoms: O_11  and  C_12
REMARK    6  A    between atoms: C_13  and  C_25
REMARK    7  A    between atoms: C_17  and  O_24
REMARK    8  A    between atoms: C_19  and  O_23
REMARK    9  A    between atoms: C_27  and  O_32
REMARK   10  A    between atoms: C_28  and  O_31
REMARK                            x       y       z     vdW  Elec       q    Type
REMARK                         _______ _______ _______ _____ _____    ______ ____
ROOT
ATOM      1  C   UNL     1       6.776  -3.979  24.456  0.00  0.00    +0.214 A 
ATOM      2  C   UNL     1       7.385  -3.114  23.385  0.00  0.00    +0.238 A 
ATOM      3  O   UNL     1       7.097  -3.331  22.211  0.00  0.00    -0.283 OA
ATOM      4  C   UNL     1       8.308  -2.021  23.794  0.00  0.00    +0.109 A 
ATOM      5  C   UNL     1       8.634  -1.944  25.140  0.00  0.00    +0.147 A 
ATOM      6  C   UNL     1       9.548  -0.998  25.618  0.00  0.00    +0.092 A 
ATOM      7  C   UNL     1      10.130  -0.102  24.733  0.00  0.00    +0.124 A 
ATOM      8  C   UNL     1       9.794  -0.123  23.387  0.00  0.00    +0.091 A 
ATOM      9  O   UNL     1       8.090  -2.764  26.083  0.00  0.00    -0.451 OA
ATOM     10  C   UNL     1       8.881  -1.086  22.919  0.00  0.00    +0.135 A 
ATOM     11  C   UNL     1       7.108  -3.691  25.745  0.00  0.00    +0.181 A 
ENDROOT
BRANCH  11  12
ATOM     12  C   UNL     1       6.488  -4.222  26.996  0.00  0.00    +0.025 A 
ATOM     13  C   UNL     1       5.467  -3.485  27.643  0.00  0.00    +0.015 A 
ATOM     14  C   UNL     1       4.736  -4.017  28.711  0.00  0.00    +0.050 A 
ATOM     15  C   UNL     1       5.073  -5.266  29.197  0.00  0.00    +0.158 A 
ATOM     16  C   UNL     1       6.132  -5.965  28.642  0.00  0.00    +0.159 A 
ATOM     17  C   UNL     1       6.777  -5.494  27.507  0.00  0.00    +0.060 A 
BRANCH  15  18
ATOM     18  O   UNL     1       4.348  -5.815  30.211  0.00  0.00    -0.503 OA
ATOM     19  H   UNL     1       4.869  -6.594  30.489  0.00  0.00    +0.292 HD
ENDBRANCH  15  18
BRANCH  16  20
ATOM     20  O   UNL     1       6.537  -7.124  29.243  0.00  0.00    -0.503 OA
ATOM     21  H   UNL     1       6.181  -7.090  30.153  0.00  0.00    +0.292 HD
ENDBRANCH  16  20
ENDBRANCH  11  12
BRANCH   7  22
ATOM     22  O   UNL     1      11.037   0.826  25.148  0.00  0.00    -0.507 OA
ATOM     23  H   UNL     1      10.573   1.647  25.386  0.00  0.00    +0.292 HD
ENDBRANCH   7  22
BRANCH  10  24
ATOM     24  O   UNL     1       8.562  -1.075  21.589  0.00  0.00    -0.506 OA
ATOM     25  H   UNL     1       8.165  -0.220  21.341  0.00  0.00    +0.292 HD
ENDBRANCH  10  24
BRANCH   1  26
ATOM     26  O   UNL     1       5.849  -4.902  23.993  0.00  0.00    -0.453 OA
BRANCH  26  29
ATOM     27  C   UNL     1       3.749  -6.491  22.696  0.00  0.00    +0.198 C 
ATOM     28  O   UNL     1       3.907  -5.074  22.669  0.00  0.00    -0.337 OA
ATOM     29  C   UNL     1       4.470  -4.520  23.885  0.00  0.00    +0.339 C 
ATOM     30  C   UNL     1       3.628  -4.933  25.124  0.00  0.00    +0.214 C 
ATOM     31  C   UNL     1       3.323  -6.441  25.153  0.00  0.00    +0.180 C 
ATOM     32  C   UNL     1       2.774  -6.900  23.790  0.00  0.00    +0.171 C 
BRANCH  30  33
ATOM     33  O   UNL     1       2.384  -4.204  25.083  0.00  0.00    -0.383 OA
ATOM     34  H   UNL     1       1.663  -4.854  25.020  0.00  0.00    +0.210 HD
ENDBRANCH  30  33
BRANCH  31  35
ATOM     35  O   UNL     1       4.469  -7.193  25.563  0.00  0.00    -0.386 OA
ATOM     36  H   UNL     1       4.734  -6.944  26.467  0.00  0.00    +0.210 HD
ENDBRANCH  31  35
BRANCH  32  37
ATOM     37  O   UNL     1       2.533  -8.306  23.765  0.00  0.00    -0.387 OA
ATOM     38  H   UNL     1       3.146  -8.723  24.395  0.00  0.00    +0.210 HD
ENDBRANCH  32  37
ENDBRANCH  26  29
ENDBRANCH   1  26
TORSDOF 10
ENDMDL
