MODEL 1
REMARK VINA RESULT:      -7.9      0.000      0.000
REMARK  Name = 
REMARK  17 active torsions:
REMARK  status: ('A' for Active; 'I' for Inactive)
REMARK    1  A    between atoms: C_3  and  O_50
REMARK    2  A    between atoms: C_4  and  O_49
REMARK    3  A    between atoms: C_6  and  C_7
REMARK    4  A    between atoms: C_8  and  C_9
REMARK    5  A    between atoms: C_9  and  O_11
REMARK    6  A    between atoms: O_11  and  C_12
REMARK    7  A    between atoms: C_12  and  C_13
REMARK    8  A    between atoms: C_15  and  O_48
REMARK    9  A    between atoms: C_17  and  O_47
REMARK   10  A    between atoms: C_19  and  O_46
REMARK   11  A    between atoms: C_21  and  O_24
REMARK   12  A    between atoms: O_24  and  C_25
REMARK   13  A    between atoms: C_26  and  C_38
REMARK   14  A    between atoms: C_30  and  O_37
REMARK   15  A    between atoms: C_32  and  O_36
REMARK   16  A    between atoms: C_40  and  O_45
REMARK   17  A    between atoms: C_41  and  O_44
REMARK                            x       y       z     vdW  Elec       q    Type
REMARK                         _______ _______ _______ _____ _____    ______ ____
ROOT
ATOM      1  C   UNL     1       6.490  -5.249  27.824  0.00  0.00    +0.191 C 
ATOM      2  O   UNL     1       5.713  -4.188  27.220  0.00  0.00    -0.330 OA
ATOM      3  C   UNL     1       4.523  -3.826  27.986  0.00  0.00    +0.340 C 
ATOM      4  C   UNL     1       3.594  -5.070  28.138  0.00  0.00    +0.214 C 
ATOM      5  C   UNL     1       4.381  -6.264  28.685  0.00  0.00    +0.180 C 
ATOM      6  C   UNL     1       5.640  -6.524  27.859  0.00  0.00    +0.178 C 
ENDROOT
BRANCH   6   7
ATOM      7  O   UNL     1       5.285  -6.945  26.534  0.00  0.00    -0.386 OA
ATOM      8  H   UNL     1       5.590  -7.864  26.409  0.00  0.00    +0.210 HD
ENDBRANCH   6   7
BRANCH   5   9
ATOM      9  O   UNL     1       3.530  -7.419  28.726  0.00  0.00    -0.386 OA
ATOM     10  H   UNL     1       2.662  -7.168  28.366  0.00  0.00    +0.210 HD
ENDBRANCH   5   9
BRANCH   4  11
ATOM     11  O   UNL     1       2.457  -4.857  28.990  0.00  0.00    -0.383 OA
ATOM     12  H   UNL     1       1.763  -4.410  28.465  0.00  0.00    +0.210 HD
ENDBRANCH   4  11
BRANCH   3  13
ATOM     13  O   UNL     1       3.848  -2.753  27.283  0.00  0.00    -0.453 OA
BRANCH  13  14
ATOM     14  C   UNL     1       4.606  -1.910  26.468  0.00  0.00    +0.214 A 
ATOM     15  C   UNL     1       5.221  -0.639  26.973  0.00  0.00    +0.238 A 
ATOM     16  O   UNL     1       5.283  -0.413  28.175  0.00  0.00    -0.283 OA
ATOM     17  C   UNL     1       5.689   0.328  25.962  0.00  0.00    +0.109 A 
ATOM     18  C   UNL     1       5.888  -0.142  24.667  0.00  0.00    +0.147 A 
ATOM     19  C   UNL     1       6.426   0.685  23.676  0.00  0.00    +0.092 A 
ATOM     20  C   UNL     1       6.732   2.004  23.988  0.00  0.00    +0.124 A 
ATOM     21  C   UNL     1       6.474   2.516  25.256  0.00  0.00    +0.091 A 
ATOM     22  O   UNL     1       5.559  -1.419  24.287  0.00  0.00    -0.451 OA
ATOM     23  C   UNL     1       5.944   1.678  26.241  0.00  0.00    +0.135 A 
ATOM     24  C   UNL     1       4.816  -2.191  25.163  0.00  0.00    +0.181 A 
BRANCH  24  25
ATOM     25  C   UNL     1       4.256  -3.386  24.512  0.00  0.00    +0.025 A 
ATOM     26  C   UNL     1       2.906  -3.720  24.700  0.00  0.00    +0.015 A 
ATOM     27  C   UNL     1       2.370  -4.865  24.101  0.00  0.00    +0.050 A 
ATOM     28  C   UNL     1       3.191  -5.666  23.321  0.00  0.00    +0.158 A 
ATOM     29  C   UNL     1       4.520  -5.317  23.096  0.00  0.00    +0.159 A 
ATOM     30  C   UNL     1       5.062  -4.177  23.684  0.00  0.00    +0.060 A 
BRANCH  29  31
ATOM     31  O   UNL     1       5.263  -6.136  22.288  0.00  0.00    -0.503 OA
ATOM     32  H   UNL     1       6.204  -5.965  22.471  0.00  0.00    +0.292 HD
ENDBRANCH  29  31
BRANCH  28  33
ATOM     33  O   UNL     1       2.686  -6.816  22.788  0.00  0.00    -0.503 OA
ATOM     34  H   UNL     1       3.205  -7.530  23.209  0.00  0.00    +0.292 HD
ENDBRANCH  28  33
ENDBRANCH  24  25
BRANCH  23  35
ATOM     35  O   UNL     1       5.644   2.209  27.465  0.00  0.00    -0.506 OA
ATOM     36  H   UNL     1       4.724   1.997  27.698  0.00  0.00    +0.292 HD
ENDBRANCH  23  35
BRANCH  20  37
ATOM     37  O   UNL     1       7.283   2.849  23.070  0.00  0.00    -0.507 OA
ATOM     38  H   UNL     1       7.429   3.717  23.481  0.00  0.00    +0.292 HD
ENDBRANCH  20  37
ENDBRANCH  13  14
ENDBRANCH   3  13
BRANCH   1  39
ATOM     39  C   UNL     1       7.800  -5.500  27.045  0.00  0.00    +0.266 C 
BRANCH  39  40
ATOM     40  O   UNL     1       7.693  -5.145  25.643  0.00  0.00    -0.459 OA
BRANCH  40  41
ATOM     41  C   UNL     1       8.851  -4.921  24.970  0.00  0.00    +0.332 C 
ATOM     42  O   UNL     1       9.793  -5.684  24.899  0.00  0.00    -0.246 OA
BRANCH  41  44
ATOM     43  C   UNL     1       9.865  -2.852  24.085  0.00  0.00    +0.015 C 
ATOM     44  C   UNL     1       8.763  -3.596  24.297  0.00  0.00    +0.092 C 
BRANCH  43  46
ATOM     45  C   UNL     1       9.473  -1.441  22.069  0.00  0.00    +0.012 A 
ATOM     46  C   UNL     1       9.883  -1.535  23.412  0.00  0.00    -0.021 A 
ATOM     47  C   UNL     1      10.237  -0.356  24.082  0.00  0.00    +0.057 A 
ATOM     48  C   UNL     1      10.217   0.861  23.408  0.00  0.00    +0.159 A 
ATOM     49  C   UNL     1       9.834   0.938  22.073  0.00  0.00    +0.158 A 
ATOM     50  C   UNL     1       9.452  -0.210  21.395  0.00  0.00    +0.050 A 
BRANCH  49  51
ATOM     51  O   UNL     1       9.845   2.169  21.476  0.00  0.00    -0.503 OA
ATOM     52  H   UNL     1       9.472   2.815  22.100  0.00  0.00    +0.292 HD
ENDBRANCH  49  51
BRANCH  48  53
ATOM     53  O   UNL     1      10.578   1.996  24.078  0.00  0.00    -0.503 OA
ATOM     54  H   UNL     1      10.152   2.723  23.579  0.00  0.00    +0.292 HD
ENDBRANCH  48  53
ENDBRANCH  43  46
ENDBRANCH  41  44
ENDBRANCH  40  41
ENDBRANCH  39  40
ENDBRANCH   1  39
TORSDOF 17
ENDMDL
MODEL 2
REMARK VINA RESULT:      -7.5      2.714      9.051
REMARK  Name = 
REMARK  17 active torsions:
REMARK  status: ('A' for Active; 'I' for Inactive)
REMARK    1  A    between atoms: C_3  and  O_50
REMARK    2  A    between atoms: C_4  and  O_49
REMARK    3  A    between atoms: C_6  and  C_7
REMARK    4  A    between atoms: C_8  and  C_9
REMARK    5  A    between atoms: C_9  and  O_11
REMARK    6  A    between atoms: O_11  and  C_12
REMARK    7  A    between atoms: C_12  and  C_13
REMARK    8  A    between atoms: C_15  and  O_48
REMARK    9  A    between atoms: C_17  and  O_47
REMARK   10  A    between atoms: C_19  and  O_46
REMARK   11  A    between atoms: C_21  and  O_24
REMARK   12  A    between atoms: O_24  and  C_25
REMARK   13  A    between atoms: C_26  and  C_38
REMARK   14  A    between atoms: C_30  and  O_37
REMARK   15  A    between atoms: C_32  and  O_36
REMARK   16  A    between atoms: C_40  and  O_45
REMARK   17  A    between atoms: C_41  and  O_44
REMARK                            x       y       z     vdW  Elec       q    Type
REMARK                         _______ _______ _______ _____ _____    ______ ____
ROOT
ATOM      1  C   UNL     1       5.652   3.444  25.637  0.00  0.00    +0.191 C 
ATOM      2  O   UNL     1       6.654   3.252  24.611  0.00  0.00    -0.330 OA
ATOM      3  C   UNL     1       6.725   4.350  23.650  0.00  0.00    +0.340 C 
ATOM      4  C   UNL     1       5.346   4.522  22.943  0.00  0.00    +0.214 C 
ATOM      5  C   UNL     1       4.222   4.634  23.976  0.00  0.00    +0.180 C 
ATOM      6  C   UNL     1       4.270   3.478  24.975  0.00  0.00    +0.178 C 
ENDROOT
BRANCH   6   7
ATOM      7  O   UNL     1       3.982   2.239  24.312  0.00  0.00    -0.386 OA
ATOM      8  H   UNL     1       3.070   1.973  24.534  0.00  0.00    +0.210 HD
ENDBRANCH   6   7
BRANCH   5   9
ATOM      9  O   UNL     1       2.957   4.696  23.302  0.00  0.00    -0.386 OA
ATOM     10  H   UNL     1       3.038   4.214  22.462  0.00  0.00    +0.210 HD
ENDBRANCH   5   9
BRANCH   4  11
ATOM     11  O   UNL     1       5.267   5.663  22.073  0.00  0.00    -0.383 OA
ATOM     12  H   UNL     1       4.485   6.190  22.332  0.00  0.00    +0.210 HD
ENDBRANCH   4  11
BRANCH   3  13
ATOM     13  O   UNL     1       7.768   4.041  22.694  0.00  0.00    -0.453 OA
BRANCH  13  14
ATOM     14  C   UNL     1       8.383   2.788  22.758  0.00  0.00    +0.214 A 
ATOM     15  C   UNL     1       7.656   1.517  22.432  0.00  0.00    +0.238 A 
ATOM     16  O   UNL     1       6.570   1.548  21.869  0.00  0.00    -0.283 OA
ATOM     17  C   UNL     1       8.285   0.255  22.866  0.00  0.00    +0.109 A 
ATOM     18  C   UNL     1       9.640   0.289  23.183  0.00  0.00    +0.147 A 
ATOM     19  C   UNL     1      10.333  -0.883  23.505  0.00  0.00    +0.092 A 
ATOM     20  C   UNL     1       9.643  -2.089  23.540  0.00  0.00    +0.124 A 
ATOM     21  C   UNL     1       8.274  -2.136  23.298  0.00  0.00    +0.091 A 
ATOM     22  O   UNL     1      10.363   1.455  23.214  0.00  0.00    -0.451 OA
ATOM     23  C   UNL     1       7.594  -0.960  22.969  0.00  0.00    +0.135 A 
ATOM     24  C   UNL     1       9.674   2.652  23.132  0.00  0.00    +0.181 A 
BRANCH  24  25
ATOM     25  C   UNL     1      10.511   3.802  23.509  0.00  0.00    +0.025 A 
ATOM     26  C   UNL     1       9.954   4.870  24.229  0.00  0.00    +0.015 A 
ATOM     27  C   UNL     1      10.738   5.976  24.574  0.00  0.00    +0.050 A 
ATOM     28  C   UNL     1      12.073   6.003  24.195  0.00  0.00    +0.158 A 
ATOM     29  C   UNL     1      12.642   4.927  23.518  0.00  0.00    +0.159 A 
ATOM     30  C   UNL     1      11.870   3.820  23.174  0.00  0.00    +0.060 A 
BRANCH  29  31
ATOM     31  O   UNL     1      13.972   5.006  23.205  0.00  0.00    -0.503 OA
ATOM     32  H   UNL     1      14.205   5.948  23.116  0.00  0.00    +0.292 HD
ENDBRANCH  29  31
BRANCH  28  33
ATOM     33  O   UNL     1      12.822   7.108  24.476  0.00  0.00    -0.503 OA
ATOM     34  H   UNL     1      12.831   7.618  23.642  0.00  0.00    +0.292 HD
ENDBRANCH  28  33
ENDBRANCH  24  25
BRANCH  23  35
ATOM     35  O   UNL     1       6.240  -1.013  22.788  0.00  0.00    -0.506 OA
ATOM     36  H   UNL     1       5.892  -0.115  22.646  0.00  0.00    +0.292 HD
ENDBRANCH  23  35
BRANCH  20  37
ATOM     37  O   UNL     1      10.272  -3.266  23.821  0.00  0.00    -0.507 OA
ATOM     38  H   UNL     1      10.522  -3.279  24.760  0.00  0.00    +0.292 HD
ENDBRANCH  20  37
ENDBRANCH  13  14
ENDBRANCH   3  13
BRANCH   1  39
ATOM     39  C   UNL     1       5.710   2.321  26.697  0.00  0.00    +0.266 C 
BRANCH  39  40
ATOM     40  O   UNL     1       6.084   1.038  26.131  0.00  0.00    -0.459 OA
BRANCH  40  41
ATOM     41  C   UNL     1       6.669   0.140  26.966  0.00  0.00    +0.332 C 
ATOM     42  O   UNL     1       7.118   0.379  28.068  0.00  0.00    -0.246 OA
BRANCH  41  44
ATOM     43  C   UNL     1       5.469  -1.840  26.112  0.00  0.00    +0.015 C 
ATOM     44  C   UNL     1       6.635  -1.201  26.321  0.00  0.00    +0.092 C 
BRANCH  43  46
ATOM     45  C   UNL     1       6.150  -4.227  25.890  0.00  0.00    +0.012 A 
ATOM     46  C   UNL     1       5.330  -3.164  25.466  0.00  0.00    -0.021 A 
ATOM     47  C   UNL     1       4.366  -3.421  24.483  0.00  0.00    +0.057 A 
ATOM     48  C   UNL     1       4.263  -4.691  23.922  0.00  0.00    +0.159 A 
ATOM     49  C   UNL     1       5.097  -5.727  24.332  0.00  0.00    +0.158 A 
ATOM     50  C   UNL     1       6.041  -5.506  25.323  0.00  0.00    +0.050 A 
BRANCH  49  51
ATOM     51  O   UNL     1       4.940  -6.946  23.731  0.00  0.00    -0.503 OA
ATOM     52  H   UNL     1       4.669  -7.589  24.408  0.00  0.00    +0.292 HD
ENDBRANCH  49  51
BRANCH  48  53
ATOM     53  O   UNL     1       3.324  -4.915  22.956  0.00  0.00    -0.503 OA
ATOM     54  H   UNL     1       2.937  -4.034  22.778  0.00  0.00    +0.292 HD
ENDBRANCH  48  53
ENDBRANCH  43  46
ENDBRANCH  41  44
ENDBRANCH  40  41
ENDBRANCH  39  40
ENDBRANCH   1  39
TORSDOF 17
ENDMDL
MODEL 3
REMARK VINA RESULT:      -7.4      2.117      7.632
REMARK  Name = 
REMARK  17 active torsions:
REMARK  status: ('A' for Active; 'I' for Inactive)
REMARK    1  A    between atoms: C_3  and  O_50
REMARK    2  A    between atoms: C_4  and  O_49
REMARK    3  A    between atoms: C_6  and  C_7
REMARK    4  A    between atoms: C_8  and  C_9
REMARK    5  A    between atoms: C_9  and  O_11
REMARK    6  A    between atoms: O_11  and  C_12
REMARK    7  A    between atoms: C_12  and  C_13
REMARK    8  A    between atoms: C_15  and  O_48
REMARK    9  A    between atoms: C_17  and  O_47
REMARK   10  A    between atoms: C_19  and  O_46
REMARK   11  A    between atoms: C_21  and  O_24
REMARK   12  A    between atoms: O_24  and  C_25
REMARK   13  A    between atoms: C_26  and  C_38
REMARK   14  A    between atoms: C_30  and  O_37
REMARK   15  A    between atoms: C_32  and  O_36
REMARK   16  A    between atoms: C_40  and  O_45
REMARK   17  A    between atoms: C_41  and  O_44
REMARK                            x       y       z     vdW  Elec       q    Type
REMARK                         _______ _______ _______ _____ _____    ______ ____
ROOT
ATOM      1  C   UNL     1       8.051   1.794  22.560  0.00  0.00    +0.191 C 
ATOM      2  O   UNL     1       8.342   1.333  23.901  0.00  0.00    -0.330 OA
ATOM      3  C   UNL     1       7.282   1.624  24.862  0.00  0.00    +0.340 C 
ATOM      4  C   UNL     1       7.038   3.163  24.929  0.00  0.00    +0.214 C 
ATOM      5  C   UNL     1       6.818   3.734  23.526  0.00  0.00    +0.180 C 
ATOM      6  C   UNL     1       7.943   3.323  22.577  0.00  0.00    +0.178 C 
ENDROOT
BRANCH   6   7
ATOM      7  O   UNL     1       9.180   3.924  22.985  0.00  0.00    -0.386 OA
ATOM      8  H   UNL     1       9.628   3.321  23.608  0.00  0.00    +0.210 HD
ENDBRANCH   6   7
BRANCH   5   9
ATOM      9  O   UNL     1       6.691   5.161  23.605  0.00  0.00    -0.386 OA
ATOM     10  H   UNL     1       6.395   5.487  22.737  0.00  0.00    +0.210 HD
ENDBRANCH   5   9
BRANCH   4  11
ATOM     11  O   UNL     1       5.922   3.548  25.748  0.00  0.00    -0.383 OA
ATOM     12  H   UNL     1       5.400   2.746  25.948  0.00  0.00    +0.210 HD
ENDBRANCH   4  11
BRANCH   3  13
ATOM     13  O   UNL     1       7.691   1.103  26.151  0.00  0.00    -0.453 OA
BRANCH  13  14
ATOM     14  C   UNL     1       7.352  -0.212  26.477  0.00  0.00    +0.214 A 
ATOM     15  C   UNL     1       8.268  -1.370  26.216  0.00  0.00    +0.238 A 
ATOM     16  O   UNL     1       9.443  -1.180  25.926  0.00  0.00    -0.283 OA
ATOM     17  C   UNL     1       7.678  -2.720  26.274  0.00  0.00    +0.109 A 
ATOM     18  C   UNL     1       6.456  -2.859  26.927  0.00  0.00    +0.147 A 
ATOM     19  C   UNL     1       5.880  -4.119  27.113  0.00  0.00    +0.092 A 
ATOM     20  C   UNL     1       6.525  -5.241  26.606  0.00  0.00    +0.124 A 
ATOM     21  C   UNL     1       7.709  -5.118  25.886  0.00  0.00    +0.091 A 
ATOM     22  O   UNL     1       5.748  -1.785  27.405  0.00  0.00    -0.451 OA
ATOM     23  C   UNL     1       8.281  -3.854  25.714  0.00  0.00    +0.135 A 
ATOM     24  C   UNL     1       6.162  -0.516  27.041  0.00  0.00    +0.181 A 
BRANCH  24  25
ATOM     25  C   UNL     1       5.144   0.506  27.335  0.00  0.00    +0.025 A 
ATOM     26  C   UNL     1       5.269   1.314  28.475  0.00  0.00    +0.015 A 
ATOM     27  C   UNL     1       4.296   2.275  28.773  0.00  0.00    +0.050 A 
ATOM     28  C   UNL     1       3.205   2.414  27.927  0.00  0.00    +0.158 A 
ATOM     29  C   UNL     1       3.096   1.644  26.772  0.00  0.00    +0.159 A 
ATOM     30  C   UNL     1       4.062   0.689  26.465  0.00  0.00    +0.060 A 
BRANCH  29  31
ATOM     31  O   UNL     1       2.011   1.858  25.966  0.00  0.00    -0.503 OA
ATOM     32  H   UNL     1       1.557   2.660  26.279  0.00  0.00    +0.292 HD
ENDBRANCH  29  31
BRANCH  28  33
ATOM     33  O   UNL     1       2.223   3.306  28.249  0.00  0.00    -0.503 OA
ATOM     34  H   UNL     1       2.250   3.358  29.225  0.00  0.00    +0.292 HD
ENDBRANCH  28  33
ENDBRANCH  24  25
BRANCH  23  35
ATOM     35  O   UNL     1       9.415  -3.743  24.958  0.00  0.00    -0.506 OA
ATOM     36  H   UNL     1       9.884  -4.596  24.944  0.00  0.00    +0.292 HD
ENDBRANCH  23  35
BRANCH  20  37
ATOM     37  O   UNL     1       6.023  -6.496  26.780  0.00  0.00    -0.507 OA
ATOM     38  H   UNL     1       6.600  -6.990  27.388  0.00  0.00    +0.292 HD
ENDBRANCH  20  37
ENDBRANCH  13  14
ENDBRANCH   3  13
BRANCH   1  39
ATOM     39  C   UNL     1       9.143   1.345  21.562  0.00  0.00    +0.266 C 
BRANCH  39  40
ATOM     40  O   UNL     1       9.068  -0.069  21.252  0.00  0.00    -0.459 OA
BRANCH  40  41
ATOM     41  C   UNL     1       9.664  -0.927  22.120  0.00  0.00    +0.332 C 
ATOM     42  O   UNL     1      10.695  -0.723  22.729  0.00  0.00    -0.246 OA
BRANCH  41  44
ATOM     43  C   UNL     1       7.533  -2.072  22.610  0.00  0.00    +0.015 C 
ATOM     44  C   UNL     1       8.824  -2.150  22.235  0.00  0.00    +0.092 C 
BRANCH  43  46
ATOM     45  C   UNL     1       5.353  -3.038  23.335  0.00  0.00    +0.012 A 
ATOM     46  C   UNL     1       6.615  -3.224  22.737  0.00  0.00    -0.021 A 
ATOM     47  C   UNL     1       6.926  -4.491  22.227  0.00  0.00    +0.057 A 
ATOM     48  C   UNL     1       6.017  -5.537  22.354  0.00  0.00    +0.159 A 
ATOM     49  C   UNL     1       4.784  -5.346  22.970  0.00  0.00    +0.158 A 
ATOM     50  C   UNL     1       4.439  -4.095  23.458  0.00  0.00    +0.050 A 
BRANCH  49  51
ATOM     51  O   UNL     1       3.945  -6.423  23.063  0.00  0.00    -0.503 OA
ATOM     52  H   UNL     1       3.293  -6.245  23.762  0.00  0.00    +0.292 HD
ENDBRANCH  49  51
BRANCH  48  53
ATOM     53  O   UNL     1       6.347  -6.767  21.860  0.00  0.00    -0.503 OA
ATOM     54  H   UNL     1       6.878  -7.183  22.568  0.00  0.00    +0.292 HD
ENDBRANCH  48  53
ENDBRANCH  43  46
ENDBRANCH  41  44
ENDBRANCH  40  41
ENDBRANCH  39  40
ENDBRANCH   1  39
TORSDOF 17
ENDMDL
MODEL 4
REMARK VINA RESULT:      -7.4      2.333      4.084
REMARK  Name = 
REMARK  17 active torsions:
REMARK  status: ('A' for Active; 'I' for Inactive)
REMARK    1  A    between atoms: C_3  and  O_50
REMARK    2  A    between atoms: C_4  and  O_49
REMARK    3  A    between atoms: C_6  and  C_7
REMARK    4  A    between atoms: C_8  and  C_9
REMARK    5  A    between atoms: C_9  and  O_11
REMARK    6  A    between atoms: O_11  and  C_12
REMARK    7  A    between atoms: C_12  and  C_13
REMARK    8  A    between atoms: C_15  and  O_48
REMARK    9  A    between atoms: C_17  and  O_47
REMARK   10  A    between atoms: C_19  and  O_46
REMARK   11  A    between atoms: C_21  and  O_24
REMARK   12  A    between atoms: O_24  and  C_25
REMARK   13  A    between atoms: C_26  and  C_38
REMARK   14  A    between atoms: C_30  and  O_37
REMARK   15  A    between atoms: C_32  and  O_36
REMARK   16  A    between atoms: C_40  and  O_45
REMARK   17  A    between atoms: C_41  and  O_44
REMARK                            x       y       z     vdW  Elec       q    Type
REMARK                         _______ _______ _______ _____ _____    ______ ____
ROOT
ATOM      1  C   UNL     1       9.797  -2.888  24.737  0.00  0.00    +0.191 C 
ATOM      2  O   UNL     1       8.528  -2.415  25.247  0.00  0.00    -0.330 OA
ATOM      3  C   UNL     1       8.166  -2.991  26.540  0.00  0.00    +0.340 C 
ATOM      4  C   UNL     1       8.083  -4.543  26.421  0.00  0.00    +0.214 C 
ATOM      5  C   UNL     1       9.362  -5.104  25.796  0.00  0.00    +0.180 C 
ATOM      6  C   UNL     1       9.694  -4.396  24.482  0.00  0.00    +0.178 C 
ENDROOT
BRANCH   6   7
ATOM      7  O   UNL     1       8.693  -4.687  23.497  0.00  0.00    -0.386 OA
ATOM      8  H   UNL     1       9.057  -5.340  22.869  0.00  0.00    +0.210 HD
ENDBRANCH   6   7
BRANCH   5   9
ATOM      9  O   UNL     1       9.223  -6.520  25.610  0.00  0.00    -0.386 OA
ATOM     10  H   UNL     1      10.013  -6.843  25.143  0.00  0.00    +0.210 HD
ENDBRANCH   5   9
BRANCH   4  11
ATOM     11  O   UNL     1       7.863  -5.220  27.670  0.00  0.00    -0.383 OA
ATOM     12  H   UNL     1       8.204  -4.650  28.389  0.00  0.00    +0.210 HD
ENDBRANCH   4  11
BRANCH   3  13
ATOM     13  O   UNL     1       6.892  -2.428  26.939  0.00  0.00    -0.453 OA
BRANCH  13  14
ATOM     14  C   UNL     1       6.518  -1.187  26.419  0.00  0.00    +0.214 A 
ATOM     15  C   UNL     1       6.950   0.110  27.036  0.00  0.00    +0.238 A 
ATOM     16  O   UNL     1       7.841   0.132  27.877  0.00  0.00    -0.283 OA
ATOM     17  C   UNL     1       6.224   1.325  26.623  0.00  0.00    +0.109 A 
ATOM     18  C   UNL     1       5.482   1.261  25.447  0.00  0.00    +0.147 A 
ATOM     19  C   UNL     1       4.847   2.397  24.935  0.00  0.00    +0.092 A 
ATOM     20  C   UNL     1       4.935   3.595  25.634  0.00  0.00    +0.124 A 
ATOM     21  C   UNL     1       5.610   3.664  26.849  0.00  0.00    +0.091 A 
ATOM     22  O   UNL     1       5.318   0.096  24.740  0.00  0.00    -0.451 OA
ATOM     23  C   UNL     1       6.247   2.525  27.347  0.00  0.00    +0.135 A 
ATOM     24  C   UNL     1       5.728  -1.087  25.327  0.00  0.00    +0.181 A 
BRANCH  24  25
ATOM     25  C   UNL     1       5.200  -2.268  24.625  0.00  0.00    +0.025 A 
ATOM     26  C   UNL     1       4.160  -3.017  25.197  0.00  0.00    +0.015 A 
ATOM     27  C   UNL     1       3.665  -4.152  24.545  0.00  0.00    +0.050 A 
ATOM     28  C   UNL     1       4.216  -4.527  23.329  0.00  0.00    +0.158 A 
ATOM     29  C   UNL     1       5.218  -3.763  22.736  0.00  0.00    +0.159 A 
ATOM     30  C   UNL     1       5.715  -2.629  23.375  0.00  0.00    +0.060 A 
BRANCH  29  31
ATOM     31  O   UNL     1       5.693  -4.173  21.519  0.00  0.00    -0.503 OA
ATOM     32  H   UNL     1       5.491  -3.479  20.868  0.00  0.00    +0.292 HD
ENDBRANCH  29  31
BRANCH  28  33
ATOM     33  O   UNL     1       3.777  -5.668  22.723  0.00  0.00    -0.503 OA
ATOM     34  H   UNL     1       4.408  -6.358  23.012  0.00  0.00    +0.292 HD
ENDBRANCH  28  33
ENDBRANCH  24  25
BRANCH  23  35
ATOM     35  O   UNL     1       6.859   2.595  28.568  0.00  0.00    -0.506 OA
ATOM     36  H   UNL     1       6.727   1.760  29.050  0.00  0.00    +0.292 HD
ENDBRANCH  23  35
BRANCH  20  37
ATOM     37  O   UNL     1       4.359   4.740  25.169  0.00  0.00    -0.507 OA
ATOM     38  H   UNL     1       5.054   5.389  24.967  0.00  0.00    +0.292 HD
ENDBRANCH  20  37
ENDBRANCH  13  14
ENDBRANCH   3  13
BRANCH   1  39
ATOM     39  C   UNL     1      10.191  -2.151  23.438  0.00  0.00    +0.266 C 
BRANCH  39  40
ATOM     40  O   UNL     1       9.051  -1.877  22.584  0.00  0.00    -0.459 OA
BRANCH  40  41
ATOM     41  C   UNL     1       9.123  -0.778  21.788  0.00  0.00    +0.332 C 
ATOM     42  O   UNL     1       9.443  -0.767  20.617  0.00  0.00    -0.246 OA
BRANCH  41  44
ATOM     43  C   UNL     1       8.619   1.628  22.007  0.00  0.00    +0.015 C 
ATOM     44  C   UNL     1       8.705   0.411  22.579  0.00  0.00    +0.092 C 
BRANCH  43  46
ATOM     45  C   UNL     1       8.869   3.256  23.877  0.00  0.00    +0.012 A 
ATOM     46  C   UNL     1       8.199   2.864  22.702  0.00  0.00    -0.021 A 
ATOM     47  C   UNL     1       7.193   3.701  22.201  0.00  0.00    +0.057 A 
ATOM     48  C   UNL     1       6.851   4.864  22.884  0.00  0.00    +0.159 A 
ATOM     49  C   UNL     1       7.503   5.228  24.058  0.00  0.00    +0.158 A 
ATOM     50  C   UNL     1       8.521   4.431  24.560  0.00  0.00    +0.050 A 
BRANCH  49  51
ATOM     51  O   UNL     1       7.107   6.383  24.675  0.00  0.00    -0.503 OA
ATOM     52  H   UNL     1       7.108   6.234  25.636  0.00  0.00    +0.292 HD
ENDBRANCH  49  51
BRANCH  48  53
ATOM     53  O   UNL     1       5.858   5.659  22.383  0.00  0.00    -0.503 OA
ATOM     54  H   UNL     1       6.318   6.277  21.779  0.00  0.00    +0.292 HD
ENDBRANCH  48  53
ENDBRANCH  43  46
ENDBRANCH  41  44
ENDBRANCH  40  41
ENDBRANCH  39  40
ENDBRANCH   1  39
TORSDOF 17
ENDMDL
MODEL 5
REMARK VINA RESULT:      -7.2      2.165      5.997
REMARK  Name = 
REMARK  17 active torsions:
REMARK  status: ('A' for Active; 'I' for Inactive)
REMARK    1  A    between atoms: C_3  and  O_50
REMARK    2  A    between atoms: C_4  and  O_49
REMARK    3  A    between atoms: C_6  and  C_7
REMARK    4  A    between atoms: C_8  and  C_9
REMARK    5  A    between atoms: C_9  and  O_11
REMARK    6  A    between atoms: O_11  and  C_12
REMARK    7  A    between atoms: C_12  and  C_13
REMARK    8  A    between atoms: C_15  and  O_48
REMARK    9  A    between atoms: C_17  and  O_47
REMARK   10  A    between atoms: C_19  and  O_46
REMARK   11  A    between atoms: C_21  and  O_24
REMARK   12  A    between atoms: O_24  and  C_25
REMARK   13  A    between atoms: C_26  and  C_38
REMARK   14  A    between atoms: C_30  and  O_37
REMARK   15  A    between atoms: C_32  and  O_36
REMARK   16  A    between atoms: C_40  and  O_45
REMARK   17  A    between atoms: C_41  and  O_44
REMARK                            x       y       z     vdW  Elec       q    Type
REMARK                         _______ _______ _______ _____ _____    ______ ____
ROOT
ATOM      1  C   UNL     1       8.108  -2.590  24.724  0.00  0.00    +0.191 C 
ATOM      2  O   UNL     1       6.914  -2.902  25.479  0.00  0.00    -0.330 OA
ATOM      3  C   UNL     1       7.176  -3.664  26.698  0.00  0.00    +0.340 C 
ATOM      4  C   UNL     1       7.878  -5.009  26.338  0.00  0.00    +0.214 C 
ATOM      5  C   UNL     1       9.102  -4.758  25.453  0.00  0.00    +0.180 C 
ATOM      6  C   UNL     1       8.742  -3.899  24.241  0.00  0.00    +0.178 C 
ENDROOT
BRANCH   6   7
ATOM      7  O   UNL     1       7.853  -4.616  23.373  0.00  0.00    -0.386 OA
ATOM      8  H   UNL     1       8.073  -4.391  22.449  0.00  0.00    +0.210 HD
ENDBRANCH   6   7
BRANCH   5   9
ATOM      9  O   UNL     1       9.673  -6.013  25.059  0.00  0.00    -0.386 OA
ATOM     10  H   UNL     1       9.285  -6.267  24.204  0.00  0.00    +0.210 HD
ENDBRANCH   5   9
BRANCH   4  11
ATOM     11  O   UNL     1       8.301  -5.777  27.477  0.00  0.00    -0.383 OA
ATOM     12  H   UNL     1       7.925  -6.676  27.394  0.00  0.00    +0.210 HD
ENDBRANCH   4  11
BRANCH   3  13
ATOM     13  O   UNL     1       5.909  -3.897  27.361  0.00  0.00    -0.453 OA
BRANCH  13  14
ATOM     14  C   UNL     1       4.785  -4.167  26.577  0.00  0.00    +0.214 A 
ATOM     15  C   UNL     1       4.580  -5.484  25.889  0.00  0.00    +0.238 A 
ATOM     16  O   UNL     1       5.270  -6.452  26.182  0.00  0.00    -0.283 OA
ATOM     17  C   UNL     1       3.559  -5.534  24.827  0.00  0.00    +0.109 A 
ATOM     18  C   UNL     1       2.613  -4.512  24.796  0.00  0.00    +0.147 A 
ATOM     19  C   UNL     1       1.553  -4.541  23.884  0.00  0.00    +0.092 A 
ATOM     20  C   UNL     1       1.469  -5.589  22.976  0.00  0.00    +0.124 A 
ATOM     21  C   UNL     1       2.444  -6.582  22.940  0.00  0.00    +0.091 A 
ATOM     22  O   UNL     1       2.671  -3.427  25.634  0.00  0.00    -0.451 OA
ATOM     23  C   UNL     1       3.494  -6.548  23.862  0.00  0.00    +0.135 A 
ATOM     24  C   UNL     1       3.819  -3.242  26.385  0.00  0.00    +0.181 A 
BRANCH  24  25
ATOM     25  C   UNL     1       3.889  -1.894  26.970  0.00  0.00    +0.025 A 
ATOM     26  C   UNL     1       3.291  -1.637  28.213  0.00  0.00    +0.015 A 
ATOM     27  C   UNL     1       3.335  -0.353  28.767  0.00  0.00    +0.050 A 
ATOM     28  C   UNL     1       3.975   0.662  28.071  0.00  0.00    +0.158 A 
ATOM     29  C   UNL     1       4.608   0.403  26.857  0.00  0.00    +0.159 A 
ATOM     30  C   UNL     1       4.573  -0.873  26.299  0.00  0.00    +0.060 A 
BRANCH  29  31
ATOM     31  O   UNL     1       5.249   1.443  26.241  0.00  0.00    -0.503 OA
ATOM     32  H   UNL     1       4.964   2.269  26.670  0.00  0.00    +0.292 HD
ENDBRANCH  29  31
BRANCH  28  33
ATOM     33  O   UNL     1       3.965   1.928  28.580  0.00  0.00    -0.503 OA
ATOM     34  H   UNL     1       3.215   2.366  28.132  0.00  0.00    +0.292 HD
ENDBRANCH  28  33
ENDBRANCH  24  25
BRANCH  23  35
ATOM     35  O   UNL     1       4.472  -7.499  23.778  0.00  0.00    -0.506 OA
ATOM     36  H   UNL     1       5.063  -7.431  24.548  0.00  0.00    +0.292 HD
ENDBRANCH  23  35
BRANCH  20  37
ATOM     37  O   UNL     1       0.444  -5.683  22.082  0.00  0.00    -0.507 OA
ATOM     38  H   UNL     1      -0.304  -6.143  22.500  0.00  0.00    +0.292 HD
ENDBRANCH  20  37
ENDBRANCH  13  14
ENDBRANCH   3  13
BRANCH   1  39
ATOM     39  C   UNL     1       7.788  -1.674  23.521  0.00  0.00    +0.266 C 
BRANCH  39  40
ATOM     40  O   UNL     1       8.662  -1.914  22.388  0.00  0.00    -0.459 OA
BRANCH  40  41
ATOM     41  C   UNL     1       9.861  -1.274  22.384  0.00  0.00    +0.332 C 
ATOM     42  O   UNL     1      10.948  -1.799  22.252  0.00  0.00    -0.246 OA
BRANCH  41  44
ATOM     43  C   UNL     1      10.209   0.891  23.515  0.00  0.00    +0.015 C 
ATOM     44  C   UNL     1       9.621   0.187  22.529  0.00  0.00    +0.092 C 
BRANCH  43  46
ATOM     45  C   UNL     1       8.955   2.813  24.487  0.00  0.00    +0.012 A 
ATOM     46  C   UNL     1      10.048   2.345  23.732  0.00  0.00    -0.021 A 
ATOM     47  C   UNL     1      10.980   3.281  23.264  0.00  0.00    +0.057 A 
ATOM     48  C   UNL     1      10.792   4.637  23.514  0.00  0.00    +0.159 A 
ATOM     49  C   UNL     1       9.694   5.089  24.240  0.00  0.00    +0.158 A 
ATOM     50  C   UNL     1       8.771   4.181  24.738  0.00  0.00    +0.050 A 
BRANCH  49  51
ATOM     51  O   UNL     1       9.574   6.437  24.440  0.00  0.00    -0.503 OA
ATOM     52  H   UNL     1       9.249   6.585  25.345  0.00  0.00    +0.292 HD
ENDBRANCH  49  51
BRANCH  48  53
ATOM     53  O   UNL     1      11.707   5.533  23.038  0.00  0.00    -0.503 OA
ATOM     54  H   UNL     1      11.856   6.152  23.781  0.00  0.00    +0.292 HD
ENDBRANCH  48  53
ENDBRANCH  43  46
ENDBRANCH  41  44
ENDBRANCH  40  41
ENDBRANCH  39  40
ENDBRANCH   1  39
TORSDOF 17
ENDMDL
MODEL 6
REMARK VINA RESULT:      -7.2      3.316      7.504
REMARK  Name = 
REMARK  17 active torsions:
REMARK  status: ('A' for Active; 'I' for Inactive)
REMARK    1  A    between atoms: C_3  and  O_50
REMARK    2  A    between atoms: C_4  and  O_49
REMARK    3  A    between atoms: C_6  and  C_7
REMARK    4  A    between atoms: C_8  and  C_9
REMARK    5  A    between atoms: C_9  and  O_11
REMARK    6  A    between atoms: O_11  and  C_12
REMARK    7  A    between atoms: C_12  and  C_13
REMARK    8  A    between atoms: C_15  and  O_48
REMARK    9  A    between atoms: C_17  and  O_47
REMARK   10  A    between atoms: C_19  and  O_46
REMARK   11  A    between atoms: C_21  and  O_24
REMARK   12  A    between atoms: O_24  and  C_25
REMARK   13  A    between atoms: C_26  and  C_38
REMARK   14  A    between atoms: C_30  and  O_37
REMARK   15  A    between atoms: C_32  and  O_36
REMARK   16  A    between atoms: C_40  and  O_45
REMARK   17  A    between atoms: C_41  and  O_44
REMARK                            x       y       z     vdW  Elec       q    Type
REMARK                         _______ _______ _______ _____ _____    ______ ____
ROOT
ATOM      1  C   UNL     1       6.577   3.262  27.373  0.00  0.00    +0.191 C 
ATOM      2  O   UNL     1       7.486   2.397  26.651  0.00  0.00    -0.330 OA
ATOM      3  C   UNL     1       6.966   1.049  26.437  0.00  0.00    +0.340 C 
ATOM      4  C   UNL     1       6.659   0.378  27.811  0.00  0.00    +0.214 C 
ATOM      5  C   UNL     1       5.775   1.287  28.668  0.00  0.00    +0.180 C 
ATOM      6  C   UNL     1       6.368   2.691  28.781  0.00  0.00    +0.178 C 
ENDROOT
BRANCH   6   7
ATOM      7  O   UNL     1       7.602   2.651  29.511  0.00  0.00    -0.386 OA
ATOM      8  H   UNL     1       7.917   1.727  29.537  0.00  0.00    +0.210 HD
ENDBRANCH   6   7
BRANCH   5   9
ATOM      9  O   UNL     1       5.586   0.690  29.960  0.00  0.00    -0.386 OA
ATOM     10  H   UNL     1       4.830   1.128  30.387  0.00  0.00    +0.210 HD
ENDBRANCH   5   9
BRANCH   4  11
ATOM     11  O   UNL     1       6.016  -0.904  27.711  0.00  0.00    -0.383 OA
ATOM     12  H   UNL     1       5.049  -0.763  27.752  0.00  0.00    +0.210 HD
ENDBRANCH   4  11
BRANCH   3  13
ATOM     13  O   UNL     1       7.960   0.298  25.698  0.00  0.00    -0.453 OA
BRANCH  13  14
ATOM     14  C   UNL     1       7.530  -0.724  24.849  0.00  0.00    +0.214 A 
ATOM     15  C   UNL     1       7.673  -2.175  25.196  0.00  0.00    +0.238 A 
ATOM     16  O   UNL     1       7.954  -2.516  26.339  0.00  0.00    -0.283 OA
ATOM     17  C   UNL     1       7.512  -3.147  24.099  0.00  0.00    +0.109 A 
ATOM     18  C   UNL     1       6.876  -2.710  22.941  0.00  0.00    +0.147 A 
ATOM     19  C   UNL     1       6.595  -3.596  21.896  0.00  0.00    +0.092 A 
ATOM     20  C   UNL     1       6.992  -4.922  22.008  0.00  0.00    +0.124 A 
ATOM     21  C   UNL     1       7.694  -5.365  23.124  0.00  0.00    +0.091 A 
ATOM     22  O   UNL     1       6.505  -1.402  22.752  0.00  0.00    -0.451 OA
ATOM     23  C   UNL     1       7.962  -4.473  24.167  0.00  0.00    +0.135 A 
ATOM     24  C   UNL     1       6.967  -0.456  23.650  0.00  0.00    +0.181 A 
BRANCH  24  25
ATOM     25  C   UNL     1       6.782   0.917  23.153  0.00  0.00    +0.025 A 
ATOM     26  C   UNL     1       7.760   1.505  22.337  0.00  0.00    +0.015 A 
ATOM     27  C   UNL     1       7.602   2.817  21.876  0.00  0.00    +0.050 A 
ATOM     28  C   UNL     1       6.468   3.529  22.240  0.00  0.00    +0.158 A 
ATOM     29  C   UNL     1       5.474   2.936  23.014  0.00  0.00    +0.159 A 
ATOM     30  C   UNL     1       5.620   1.629  23.474  0.00  0.00    +0.060 A 
BRANCH  29  31
ATOM     31  O   UNL     1       4.366   3.685  23.307  0.00  0.00    -0.503 OA
ATOM     32  H   UNL     1       3.611   3.307  22.823  0.00  0.00    +0.292 HD
ENDBRANCH  29  31
BRANCH  28  33
ATOM     33  O   UNL     1       6.342   4.828  21.844  0.00  0.00    -0.503 OA
ATOM     34  H   UNL     1       6.387   5.343  22.674  0.00  0.00    +0.292 HD
ENDBRANCH  28  33
ENDBRANCH  24  25
BRANCH  23  35
ATOM     35  O   UNL     1       8.700  -4.909  25.232  0.00  0.00    -0.506 OA
ATOM     36  H   UNL     1       9.605  -4.558  25.169  0.00  0.00    +0.292 HD
ENDBRANCH  23  35
BRANCH  20  37
ATOM     37  O   UNL     1       6.721  -5.836  21.033  0.00  0.00    -0.507 OA
ATOM     38  H   UNL     1       7.495  -5.921  20.450  0.00  0.00    +0.292 HD
ENDBRANCH  20  37
ENDBRANCH  13  14
ENDBRANCH   3  13
BRANCH   1  39
ATOM     39  C   UNL     1       7.121   4.705  27.456  0.00  0.00    +0.266 C 
BRANCH  39  40
ATOM     40  O   UNL     1       6.252   5.667  26.804  0.00  0.00    -0.459 OA
BRANCH  40  41
ATOM     41  C   UNL     1       6.406   5.833  25.465  0.00  0.00    +0.332 C 
ATOM     42  O   UNL     1       5.511   5.879  24.645  0.00  0.00    -0.246 OA
BRANCH  41  44
ATOM     43  C   UNL     1       8.566   4.979  24.632  0.00  0.00    +0.015 C 
ATOM     44  C   UNL     1       7.855   5.990  25.167  0.00  0.00    +0.092 C 
BRANCH  43  46
ATOM     45  C   UNL     1      10.548   4.066  23.428  0.00  0.00    +0.012 A 
ATOM     46  C   UNL     1      10.002   5.041  24.286  0.00  0.00    -0.021 A 
ATOM     47  C   UNL     1      10.837   6.074  24.732  0.00  0.00    +0.057 A 
ATOM     48  C   UNL     1      12.178   6.097  24.359  0.00  0.00    +0.159 A 
ATOM     49  C   UNL     1      12.711   5.114  23.532  0.00  0.00    +0.158 A 
ATOM     50  C   UNL     1      11.900   4.095  23.054  0.00  0.00    +0.050 A 
BRANCH  49  51
ATOM     51  O   UNL     1      14.039   5.200  23.214  0.00  0.00    -0.503 OA
ATOM     52  H   UNL     1      14.116   5.341  22.254  0.00  0.00    +0.292 HD
ENDBRANCH  49  51
BRANCH  48  53
ATOM     53  O   UNL     1      12.976   7.108  24.816  0.00  0.00    -0.503 OA
ATOM     54  H   UNL     1      13.828   6.675  25.024  0.00  0.00    +0.292 HD
ENDBRANCH  48  53
ENDBRANCH  43  46
ENDBRANCH  41  44
ENDBRANCH  40  41
ENDBRANCH  39  40
ENDBRANCH   1  39
TORSDOF 17
ENDMDL
MODEL 7
REMARK VINA RESULT:      -7.2      2.596      4.548
REMARK  Name = 
REMARK  17 active torsions:
REMARK  status: ('A' for Active; 'I' for Inactive)
REMARK    1  A    between atoms: C_3  and  O_50
REMARK    2  A    between atoms: C_4  and  O_49
REMARK    3  A    between atoms: C_6  and  C_7
REMARK    4  A    between atoms: C_8  and  C_9
REMARK    5  A    between atoms: C_9  and  O_11
REMARK    6  A    between atoms: O_11  and  C_12
REMARK    7  A    between atoms: C_12  and  C_13
REMARK    8  A    between atoms: C_15  and  O_48
REMARK    9  A    between atoms: C_17  and  O_47
REMARK   10  A    between atoms: C_19  and  O_46
REMARK   11  A    between atoms: C_21  and  O_24
REMARK   12  A    between atoms: O_24  and  C_25
REMARK   13  A    between atoms: C_26  and  C_38
REMARK   14  A    between atoms: C_30  and  O_37
REMARK   15  A    between atoms: C_32  and  O_36
REMARK   16  A    between atoms: C_40  and  O_45
REMARK   17  A    between atoms: C_41  and  O_44
REMARK                            x       y       z     vdW  Elec       q    Type
REMARK                         _______ _______ _______ _____ _____    ______ ____
ROOT
ATOM      1  C   UNL     1       9.738  -1.869  24.668  0.00  0.00    +0.191 C 
ATOM      2  O   UNL     1       8.458  -1.699  25.322  0.00  0.00    -0.330 OA
ATOM      3  C   UNL     1       8.258  -2.595  26.458  0.00  0.00    +0.340 C 
ATOM      4  C   UNL     1       8.359  -4.078  25.985  0.00  0.00    +0.214 C 
ATOM      5  C   UNL     1       9.652  -4.304  25.198  0.00  0.00    +0.180 C 
ATOM      6  C   UNL     1       9.804  -3.280  24.073  0.00  0.00    +0.178 C 
ENDROOT
BRANCH   6   7
ATOM      7  O   UNL     1       8.781  -3.474  23.086  0.00  0.00    -0.386 OA
ATOM      8  H   UNL     1       8.773  -4.416  22.830  0.00  0.00    +0.210 HD
ENDBRANCH   6   7
BRANCH   5   9
ATOM      9  O   UNL     1       9.677  -5.647  24.693  0.00  0.00    -0.386 OA
ATOM     10  H   UNL     1       8.896  -6.114  25.038  0.00  0.00    +0.210 HD
ENDBRANCH   5   9
BRANCH   4  11
ATOM     11  O   UNL     1       8.310  -5.042  27.049  0.00  0.00    -0.383 OA
ATOM     12  H   UNL     1       8.264  -4.557  27.897  0.00  0.00    +0.210 HD
ENDBRANCH   4  11
BRANCH   3  13
ATOM     13  O   UNL     1       6.955  -2.315  27.025  0.00  0.00    -0.453 OA
BRANCH  13  14
ATOM     14  C   UNL     1       6.339  -1.101  26.714  0.00  0.00    +0.214 A 
ATOM     15  C   UNL     1       6.636   0.168  27.457  0.00  0.00    +0.238 A 
ATOM     16  O   UNL     1       7.603   0.238  28.205  0.00  0.00    -0.283 OA
ATOM     17  C   UNL     1       5.690   1.285  27.282  0.00  0.00    +0.109 A 
ATOM     18  C   UNL     1       4.836   1.238  26.183  0.00  0.00    +0.147 A 
ATOM     19  C   UNL     1       3.981   2.305  25.890  0.00  0.00    +0.092 A 
ATOM     20  C   UNL     1       3.964   3.410  26.733  0.00  0.00    +0.124 A 
ATOM     21  C   UNL     1       4.755   3.447  27.876  0.00  0.00    +0.091 A 
ATOM     22  O   UNL     1       4.772   0.154  25.344  0.00  0.00    -0.451 OA
ATOM     23  C   UNL     1       5.612   2.379  28.154  0.00  0.00    +0.135 A 
ATOM     24  C   UNL     1       5.423  -1.006  25.725  0.00  0.00    +0.181 A 
BRANCH  24  25
ATOM     25  C   UNL     1       5.004  -2.167  24.923  0.00  0.00    +0.025 A 
ATOM     26  C   UNL     1       3.988  -3.014  25.392  0.00  0.00    +0.015 A 
ATOM     27  C   UNL     1       3.597  -4.131  24.646  0.00  0.00    +0.050 A 
ATOM     28  C   UNL     1       4.228  -4.391  23.438  0.00  0.00    +0.158 A 
ATOM     29  C   UNL     1       5.207  -3.531  22.947  0.00  0.00    +0.159 A 
ATOM     30  C   UNL     1       5.600  -2.414  23.681  0.00  0.00    +0.060 A 
BRANCH  29  31
ATOM     31  O   UNL     1       5.764  -3.830  21.733  0.00  0.00    -0.503 OA
ATOM     32  H   UNL     1       6.544  -4.390  21.889  0.00  0.00    +0.292 HD
ENDBRANCH  29  31
BRANCH  28  33
ATOM     33  O   UNL     1       3.891  -5.514  22.740  0.00  0.00    -0.503 OA
ATOM     34  H   UNL     1       2.915  -5.486  22.687  0.00  0.00    +0.292 HD
ENDBRANCH  28  33
ENDBRANCH  24  25
BRANCH  23  35
ATOM     35  O   UNL     1       6.342   2.405  29.311  0.00  0.00    -0.506 OA
ATOM     36  H   UNL     1       5.822   2.017  30.036  0.00  0.00    +0.292 HD
ENDBRANCH  23  35
BRANCH  20  37
ATOM     37  O   UNL     1       3.170   4.490  26.482  0.00  0.00    -0.507 OA
ATOM     38  H   UNL     1       3.575   5.283  26.874  0.00  0.00    +0.292 HD
ENDBRANCH  20  37
ENDBRANCH  13  14
ENDBRANCH   3  13
BRANCH   1  39
ATOM     39  C   UNL     1       9.948  -0.811  23.562  0.00  0.00    +0.266 C 
BRANCH  39  40
ATOM     40  O   UNL     1       8.747  -0.568  22.786  0.00  0.00    -0.459 OA
BRANCH  40  41
ATOM     41  C   UNL     1       8.071   0.584  23.034  0.00  0.00    +0.332 C 
ATOM     42  O   UNL     1       6.879   0.757  22.882  0.00  0.00    -0.246 OA
BRANCH  41  44
ATOM     43  C   UNL     1       9.191   2.781  22.951  0.00  0.00    +0.015 C 
ATOM     44  C   UNL     1       9.027   1.593  23.564  0.00  0.00    +0.092 C 
BRANCH  43  46
ATOM     45  C   UNL     1      11.479   3.752  23.132  0.00  0.00    +0.012 A 
ATOM     46  C   UNL     1      10.102   3.854  23.407  0.00  0.00    -0.021 A 
ATOM     47  C   UNL     1       9.638   5.006  24.055  0.00  0.00    +0.057 A 
ATOM     48  C   UNL     1      10.535   5.996  24.444  0.00  0.00    +0.159 A 
ATOM     49  C   UNL     1      11.898   5.872  24.190  0.00  0.00    +0.158 A 
ATOM     50  C   UNL     1      12.379   4.753  23.526  0.00  0.00    +0.050 A 
BRANCH  49  51
ATOM     51  O   UNL     1      12.718   6.883  24.608  0.00  0.00    -0.503 OA
ATOM     52  H   UNL     1      13.482   6.490  25.065  0.00  0.00    +0.292 HD
ENDBRANCH  49  51
BRANCH  48  53
ATOM     53  O   UNL     1      10.062   7.106  25.085  0.00  0.00    -0.503 OA
ATOM     54  H   UNL     1      10.226   7.840  24.460  0.00  0.00    +0.292 HD
ENDBRANCH  48  53
ENDBRANCH  43  46
ENDBRANCH  41  44
ENDBRANCH  40  41
ENDBRANCH  39  40
ENDBRANCH   1  39
TORSDOF 17
ENDMDL
MODEL 8
REMARK VINA RESULT:      -7.1      2.203      7.840
REMARK  Name = 
REMARK  17 active torsions:
REMARK  status: ('A' for Active; 'I' for Inactive)
REMARK    1  A    between atoms: C_3  and  O_50
REMARK    2  A    between atoms: C_4  and  O_49
REMARK    3  A    between atoms: C_6  and  C_7
REMARK    4  A    between atoms: C_8  and  C_9
REMARK    5  A    between atoms: C_9  and  O_11
REMARK    6  A    between atoms: O_11  and  C_12
REMARK    7  A    between atoms: C_12  and  C_13
REMARK    8  A    between atoms: C_15  and  O_48
REMARK    9  A    between atoms: C_17  and  O_47
REMARK   10  A    between atoms: C_19  and  O_46
REMARK   11  A    between atoms: C_21  and  O_24
REMARK   12  A    between atoms: O_24  and  C_25
REMARK   13  A    between atoms: C_26  and  C_38
REMARK   14  A    between atoms: C_30  and  O_37
REMARK   15  A    between atoms: C_32  and  O_36
REMARK   16  A    between atoms: C_40  and  O_45
REMARK   17  A    between atoms: C_41  and  O_44
REMARK                            x       y       z     vdW  Elec       q    Type
REMARK                         _______ _______ _______ _____ _____    ______ ____
ROOT
ATOM      1  C   UNL     1       4.429   0.575  27.742  0.00  0.00    +0.191 C 
ATOM      2  O   UNL     1       5.362   0.270  26.679  0.00  0.00    -0.330 OA
ATOM      3  C   UNL     1       6.646  -0.240  27.156  0.00  0.00    +0.340 C 
ATOM      4  C   UNL     1       7.316   0.812  28.092  0.00  0.00    +0.214 C 
ATOM      5  C   UNL     1       6.343   1.253  29.188  0.00  0.00    +0.180 C 
ATOM      6  C   UNL     1       5.009   1.707  28.597  0.00  0.00    +0.178 C 
ENDROOT
BRANCH   6   7
ATOM      7  O   UNL     1       5.191   2.900  27.822  0.00  0.00    -0.386 OA
ATOM      8  H   UNL     1       5.358   2.645  26.895  0.00  0.00    +0.210 HD
ENDBRANCH   6   7
BRANCH   5   9
ATOM      9  O   UNL     1       6.949   2.288  29.977  0.00  0.00    -0.386 OA
ATOM     10  H   UNL     1       7.831   1.982  30.250  0.00  0.00    +0.210 HD
ENDBRANCH   5   9
BRANCH   4  11
ATOM     11  O   UNL     1       8.524   0.356  28.723  0.00  0.00    -0.383 OA
ATOM     12  H   UNL     1       9.281   0.788  28.280  0.00  0.00    +0.210 HD
ENDBRANCH   4  11
BRANCH   3  13
ATOM     13  O   UNL     1       7.475  -0.515  26.000  0.00  0.00    -0.453 OA
BRANCH  13  14
ATOM     14  C   UNL     1       6.985  -1.378  25.017  0.00  0.00    +0.214 A 
ATOM     15  C   UNL     1       6.652  -2.813  25.297  0.00  0.00    +0.238 A 
ATOM     16  O   UNL     1       6.569  -3.218  26.450  0.00  0.00    -0.283 OA
ATOM     17  C   UNL     1       6.482  -3.702  24.133  0.00  0.00    +0.109 A 
ATOM     18  C   UNL     1       6.260  -3.105  22.895  0.00  0.00    +0.147 A 
ATOM     19  C   UNL     1       5.990  -3.879  21.762  0.00  0.00    +0.092 A 
ATOM     20  C   UNL     1       5.980  -5.263  21.874  0.00  0.00    +0.124 A 
ATOM     21  C   UNL     1       6.272  -5.883  23.085  0.00  0.00    +0.091 A 
ATOM     22  O   UNL     1       6.307  -1.745  22.712  0.00  0.00    -0.451 OA
ATOM     23  C   UNL     1       6.531  -5.100  24.213  0.00  0.00    +0.135 A 
ATOM     24  C   UNL     1       6.795  -0.964  23.744  0.00  0.00    +0.181 A 
BRANCH  24  25
ATOM     25  C   UNL     1       7.102   0.407  23.306  0.00  0.00    +0.025 A 
ATOM     26  C   UNL     1       6.202   1.448  23.577  0.00  0.00    +0.015 A 
ATOM     27  C   UNL     1       6.476   2.751  23.146  0.00  0.00    +0.050 A 
ATOM     28  C   UNL     1       7.648   2.998  22.446  0.00  0.00    +0.158 A 
ATOM     29  C   UNL     1       8.565   1.977  22.211  0.00  0.00    +0.159 A 
ATOM     30  C   UNL     1       8.303   0.678  22.639  0.00  0.00    +0.060 A 
BRANCH  29  31
ATOM     31  O   UNL     1       9.716   2.299  21.543  0.00  0.00    -0.503 OA
ATOM     32  H   UNL     1      10.449   1.803  21.949  0.00  0.00    +0.292 HD
ENDBRANCH  29  31
BRANCH  28  33
ATOM     33  O   UNL     1       7.887   4.255  21.971  0.00  0.00    -0.503 OA
ATOM     34  H   UNL     1       8.697   4.543  22.436  0.00  0.00    +0.292 HD
ENDBRANCH  28  33
ENDBRANCH  24  25
BRANCH  23  35
ATOM     35  O   UNL     1       6.870  -5.724  25.382  0.00  0.00    -0.506 OA
ATOM     36  H   UNL     1       7.490  -5.166  25.883  0.00  0.00    +0.292 HD
ENDBRANCH  23  35
BRANCH  20  37
ATOM     37  O   UNL     1       5.697  -6.066  20.809  0.00  0.00    -0.507 OA
ATOM     38  H   UNL     1       4.747  -6.009  20.608  0.00  0.00    +0.292 HD
ENDBRANCH  20  37
ENDBRANCH  13  14
ENDBRANCH   3  13
BRANCH   1  39
ATOM     39  C   UNL     1       3.049   0.983  27.178  0.00  0.00    +0.266 C 
BRANCH  39  40
ATOM     40  O   UNL     1       2.274  -0.155  26.721  0.00  0.00    -0.459 OA
BRANCH  40  41
ATOM     41  C   UNL     1       1.832  -1.024  27.667  0.00  0.00    +0.332 C 
ATOM     42  O   UNL     1       1.445  -0.730  28.779  0.00  0.00    -0.246 OA
BRANCH  41  44
ATOM     43  C   UNL     1       2.902  -2.817  26.351  0.00  0.00    +0.015 C 
ATOM     44  C   UNL     1       1.865  -2.400  27.101  0.00  0.00    +0.092 C 
BRANCH  43  46
ATOM     45  C   UNL     1       3.432  -5.242  26.578  0.00  0.00    +0.012 A 
ATOM     46  C   UNL     1       3.035  -4.166  25.760  0.00  0.00    -0.021 A 
ATOM     47  C   UNL     1       2.719  -4.433  24.421  0.00  0.00    +0.057 A 
ATOM     48  C   UNL     1       2.841  -5.726  23.920  0.00  0.00    +0.159 A 
ATOM     49  C   UNL     1       3.259  -6.775  24.732  0.00  0.00    +0.158 A 
ATOM     50  C   UNL     1       3.551  -6.543  26.068  0.00  0.00    +0.050 A 
BRANCH  49  51
ATOM     51  O   UNL     1       3.360  -8.017  24.167  0.00  0.00    -0.503 OA
ATOM     52  H   UNL     1       3.161  -7.940  23.219  0.00  0.00    +0.292 HD
ENDBRANCH  49  51
BRANCH  48  53
ATOM     53  O   UNL     1       2.540  -5.960  22.608  0.00  0.00    -0.503 OA
ATOM     54  H   UNL     1       1.731  -5.434  22.443  0.00  0.00    +0.292 HD
ENDBRANCH  48  53
ENDBRANCH  43  46
ENDBRANCH  41  44
ENDBRANCH  40  41
ENDBRANCH  39  40
ENDBRANCH   1  39
TORSDOF 17
ENDMDL
MODEL 9
REMARK VINA RESULT:      -7.0      1.764      4.130
REMARK  Name = 
REMARK  17 active torsions:
REMARK  status: ('A' for Active; 'I' for Inactive)
REMARK    1  A    between atoms: C_3  and  O_50
REMARK    2  A    between atoms: C_4  and  O_49
REMARK    3  A    between atoms: C_6  and  C_7
REMARK    4  A    between atoms: C_8  and  C_9
REMARK    5  A    between atoms: C_9  and  O_11
REMARK    6  A    between atoms: O_11  and  C_12
REMARK    7  A    between atoms: C_12  and  C_13
REMARK    8  A    between atoms: C_15  and  O_48
REMARK    9  A    between atoms: C_17  and  O_47
REMARK   10  A    between atoms: C_19  and  O_46
REMARK   11  A    between atoms: C_21  and  O_24
REMARK   12  A    between atoms: O_24  and  C_25
REMARK   13  A    between atoms: C_26  and  C_38
REMARK   14  A    between atoms: C_30  and  O_37
REMARK   15  A    between atoms: C_32  and  O_36
REMARK   16  A    between atoms: C_40  and  O_45
REMARK   17  A    between atoms: C_41  and  O_44
REMARK                            x       y       z     vdW  Elec       q    Type
REMARK                         _______ _______ _______ _____ _____    ______ ____
ROOT
ATOM      1  C   UNL     1       3.473  -2.881  28.188  0.00  0.00    +0.191 C 
ATOM      2  O   UNL     1       4.618  -3.641  27.733  0.00  0.00    -0.330 OA
ATOM      3  C   UNL     1       4.279  -4.977  27.249  0.00  0.00    +0.340 C 
ATOM      4  C   UNL     1       3.589  -5.790  28.387  0.00  0.00    +0.214 C 
ATOM      5  C   UNL     1       2.422  -4.999  28.982  0.00  0.00    +0.180 C 
ATOM      6  C   UNL     1       2.859  -3.594  29.398  0.00  0.00    +0.178 C 
ENDROOT
BRANCH   6   7
ATOM      7  O   UNL     1       3.792  -3.668  30.485  0.00  0.00    -0.386 OA
ATOM      8  H   UNL     1       4.148  -2.773  30.649  0.00  0.00    +0.210 HD
ENDBRANCH   6   7
BRANCH   5   9
ATOM      9  O   UNL     1       1.865  -5.726  30.087  0.00  0.00    -0.386 OA
ATOM     10  H   UNL     1       2.281  -5.401  30.904  0.00  0.00    +0.210 HD
ENDBRANCH   5   9
BRANCH   4  11
ATOM     11  O   UNL     1       3.093  -7.075  27.977  0.00  0.00    -0.383 OA
ATOM     12  H   UNL     1       2.403  -6.932  27.299  0.00  0.00    +0.210 HD
ENDBRANCH   4  11
BRANCH   3  13
ATOM     13  O   UNL     1       5.503  -5.620  26.816  0.00  0.00    -0.453 OA
BRANCH  13  14
ATOM     14  C   UNL     1       6.188  -5.083  25.723  0.00  0.00    +0.214 A 
ATOM     15  C   UNL     1       7.467  -4.314  25.872  0.00  0.00    +0.238 A 
ATOM     16  O   UNL     1       8.084  -4.332  26.930  0.00  0.00    -0.283 OA
ATOM     17  C   UNL     1       7.904  -3.510  24.716  0.00  0.00    +0.109 A 
ATOM     18  C   UNL     1       7.345  -3.808  23.477  0.00  0.00    +0.147 A 
ATOM     19  C   UNL     1       7.781  -3.161  22.316  0.00  0.00    +0.092 A 
ATOM     20  C   UNL     1       8.762  -2.182  22.415  0.00  0.00    +0.124 A 
ATOM     21  C   UNL     1       9.282  -1.815  23.652  0.00  0.00    +0.091 A 
ATOM     22  O   UNL     1       6.339  -4.729  23.323  0.00  0.00    -0.451 OA
ATOM     23  C   UNL     1       8.846  -2.475  24.804  0.00  0.00    +0.135 A 
ATOM     24  C   UNL     1       5.723  -5.219  24.462  0.00  0.00    +0.181 A 
BRANCH  24  25
ATOM     25  C   UNL     1       4.468  -5.922  24.154  0.00  0.00    +0.025 A 
ATOM     26  C   UNL     1       3.524  -5.333  23.299  0.00  0.00    +0.015 A 
ATOM     27  C   UNL     1       2.319  -5.985  23.016  0.00  0.00    +0.050 A 
ATOM     28  C   UNL     1       2.069  -7.221  23.595  0.00  0.00    +0.158 A 
ATOM     29  C   UNL     1       3.019  -7.831  24.410  0.00  0.00    +0.159 A 
ATOM     30  C   UNL     1       4.224  -7.191  24.694  0.00  0.00    +0.060 A 
BRANCH  29  31
ATOM     31  O   UNL     1       2.720  -9.065  24.920  0.00  0.00    -0.503 OA
ATOM     32  H   UNL     1       3.384  -9.279  25.600  0.00  0.00    +0.292 HD
ENDBRANCH  29  31
BRANCH  28  33
ATOM     33  O   UNL     1       0.869  -7.830  23.371  0.00  0.00    -0.503 OA
ATOM     34  H   UNL     1       0.858  -8.004  22.408  0.00  0.00    +0.292 HD
ENDBRANCH  28  33
ENDBRANCH  24  25
BRANCH  23  35
ATOM     35  O   UNL     1       9.326  -2.066  26.017  0.00  0.00    -0.506 OA
ATOM     36  H   UNL     1       8.621  -2.122  26.685  0.00  0.00    +0.292 HD
ENDBRANCH  23  35
BRANCH  20  37
ATOM     37  O   UNL     1       9.244  -1.537  21.314  0.00  0.00    -0.507 OA
ATOM     38  H   UNL     1      10.203  -1.413  21.410  0.00  0.00    +0.292 HD
ENDBRANCH  20  37
ENDBRANCH  13  14
ENDBRANCH   3  13
BRANCH   1  39
ATOM     39  C   UNL     1       3.871  -1.436  28.563  0.00  0.00    +0.266 C 
BRANCH  39  40
ATOM     40  O   UNL     1       4.975  -0.936  27.767  0.00  0.00    -0.459 OA
BRANCH  40  41
ATOM     41  C   UNL     1       4.667  -0.129  26.718  0.00  0.00    +0.332 C 
ATOM     42  O   UNL     1       3.549   0.199  26.376  0.00  0.00    -0.246 OA
BRANCH  41  44
ATOM     43  C   UNL     1       5.938   0.804  24.820  0.00  0.00    +0.015 C 
ATOM     44  C   UNL     1       5.932   0.322  26.077  0.00  0.00    +0.092 C 
BRANCH  43  46
ATOM     45  C   UNL     1       8.181   1.890  24.833  0.00  0.00    +0.012 A 
ATOM     46  C   UNL     1       7.137   1.291  24.103  0.00  0.00    -0.021 A 
ATOM     47  C   UNL     1       7.304   1.125  22.722  0.00  0.00    +0.057 A 
ATOM     48  C   UNL     1       8.461   1.583  22.099  0.00  0.00    +0.159 A 
ATOM     49  C   UNL     1       9.475   2.196  22.829  0.00  0.00    +0.158 A 
ATOM     50  C   UNL     1       9.347   2.348  24.201  0.00  0.00    +0.050 A 
BRANCH  49  51
ATOM     51  O   UNL     1      10.580   2.625  22.146  0.00  0.00    -0.503 OA
ATOM     52  H   UNL     1      10.391   3.505  21.778  0.00  0.00    +0.292 HD
ENDBRANCH  49  51
BRANCH  48  53
ATOM     53  O   UNL     1       8.597   1.421  20.750  0.00  0.00    -0.503 OA
ATOM     54  H   UNL     1       9.452   0.956  20.642  0.00  0.00    +0.292 HD
ENDBRANCH  48  53
ENDBRANCH  43  46
ENDBRANCH  41  44
ENDBRANCH  40  41
ENDBRANCH  39  40
ENDBRANCH   1  39
TORSDOF 17
ENDMDL
