MODEL 1
REMARK VINA RESULT:      -7.3      0.000      0.000
REMARK  Name = 
REMARK  22 active torsions:
REMARK  status: ('A' for Active; 'I' for Inactive)
REMARK    1  A    between atoms: C_1  and  C_2
REMARK    2  A    between atoms: C_3  and  O_60
REMARK    3  A    between atoms: C_5  and  O_59
REMARK    4  A    between atoms: C_6  and  O_58
REMARK    5  A    between atoms: C_8  and  O_11
REMARK    6  A    between atoms: O_11  and  C_12
REMARK    7  A    between atoms: C_12  and  C_13
REMARK    8  A    between atoms: C_14  and  O_57
REMARK    9  A    between atoms: C_16  and  O_56
REMARK   10  A    between atoms: C_18  and  O_44
REMARK   11  A    between atoms: C_19  and  O_22
REMARK   12  A    between atoms: O_22  and  C_23
REMARK   13  A    between atoms: C_24  and  C_36
REMARK   14  A    between atoms: C_28  and  O_35
REMARK   15  A    between atoms: C_30  and  O_34
REMARK   16  A    between atoms: C_38  and  O_43
REMARK   17  A    between atoms: C_39  and  O_42
REMARK   18  A    between atoms: O_44  and  C_45
REMARK   19  A    between atoms: C_45  and  C_47
REMARK   20  A    between atoms: C_49  and  O_55
REMARK   21  A    between atoms: C_50  and  O_54
REMARK   22  A    between atoms: C_51  and  O_53
REMARK                            x       y       z     vdW  Elec       q    Type
REMARK                         _______ _______ _______ _____ _____    ______ ____
ROOT
ATOM      1  C   UNL     1       7.793  -0.194  22.736  0.00  0.00    +0.179 C 
ATOM      2  O   UNL     1       7.068  -0.572  23.924  0.00  0.00    -0.330 OA
ATOM      3  C   UNL     1       7.782  -1.141  25.034  0.00  0.00    +0.352 C 
ATOM      4  C   UNL     1       8.857  -2.206  24.647  0.00  0.00    +0.276 C 
ATOM      5  C   UNL     1       9.713  -1.638  23.507  0.00  0.00    +0.192 C 
ATOM      6  C   UNL     1       8.829  -1.250  22.325  0.00  0.00    +0.178 C 
ENDROOT
BRANCH   6   7
ATOM      7  O   UNL     1       9.636  -0.850  21.214  0.00  0.00    -0.386 OA
ATOM      8  H   UNL     1      10.131  -1.640  20.928  0.00  0.00    +0.210 HD
ENDBRANCH   6   7
BRANCH   5   9
ATOM      9  O   UNL     1      10.693  -2.593  23.070  0.00  0.00    -0.385 OA
ATOM     10  H   UNL     1      10.934  -3.091  23.878  0.00  0.00    +0.210 HD
ENDBRANCH   5   9
BRANCH   4  11
ATOM     11  O   UNL     1       8.282  -3.496  24.239  0.00  0.00    -0.449 OA
BRANCH  11  12
ATOM     12  C   UNL     1       8.680  -4.584  24.967  0.00  0.00    +0.340 C 
ATOM     13  O   UNL     1       9.807  -5.066  24.972  0.00  0.00    -0.245 OA
BRANCH  12  14
ATOM     14  C   UNL     1       7.578  -5.205  25.770  0.00  0.00    +0.066 A 
ATOM     15  C   UNL     1       7.502  -5.103  27.159  0.00  0.00    +0.064 A 
ATOM     16  C   UNL     1       6.426  -5.686  27.820  0.00  0.00    +0.163 A 
ATOM     17  C   UNL     1       5.428  -6.365  27.135  0.00  0.00    +0.201 A 
ATOM     18  C   UNL     1       5.501  -6.481  25.759  0.00  0.00    +0.163 A 
ATOM     19  C   UNL     1       6.568  -5.911  25.067  0.00  0.00    +0.064 A 
BRANCH  18  20
ATOM     20  O   UNL     1       4.491  -7.164  25.128  0.00  0.00    -0.503 OA
ATOM     21  H   UNL     1       3.703  -7.143  25.701  0.00  0.00    +0.292 HD
ENDBRANCH  18  20
BRANCH  17  22
ATOM     22  O   UNL     1       4.384  -6.909  27.834  0.00  0.00    -0.501 OA
ATOM     23  H   UNL     1       3.992  -7.560  27.216  0.00  0.00    +0.292 HD
ENDBRANCH  17  22
BRANCH  16  24
ATOM     24  O   UNL     1       6.346  -5.581  29.194  0.00  0.00    -0.503 OA
ATOM     25  H   UNL     1       6.031  -6.463  29.484  0.00  0.00    +0.292 HD
ENDBRANCH  16  24
ENDBRANCH  12  14
ENDBRANCH  11  12
ENDBRANCH   4  11
BRANCH   3  26
ATOM     26  O   UNL     1       6.864  -1.791  25.946  0.00  0.00    -0.452 OA
BRANCH  26  27
ATOM     27  C   UNL     1       5.821  -1.114  26.570  0.00  0.00    +0.214 A 
ATOM     28  C   UNL     1       5.998   0.164  27.331  0.00  0.00    +0.238 A 
ATOM     29  O   UNL     1       7.105   0.571  27.649  0.00  0.00    -0.283 OA
ATOM     30  C   UNL     1       4.771   0.909  27.707  0.00  0.00    +0.109 A 
ATOM     31  C   UNL     1       3.546   0.259  27.583  0.00  0.00    +0.147 A 
ATOM     32  C   UNL     1       2.351   0.886  27.967  0.00  0.00    +0.092 A 
ATOM     33  C   UNL     1       2.392   2.186  28.460  0.00  0.00    +0.124 A 
ATOM     34  C   UNL     1       3.599   2.865  28.565  0.00  0.00    +0.091 A 
ATOM     35  O   UNL     1       3.436  -1.004  27.067  0.00  0.00    -0.451 OA
ATOM     36  C   UNL     1       4.786   2.229  28.191  0.00  0.00    +0.135 A 
ATOM     37  C   UNL     1       4.549  -1.561  26.462  0.00  0.00    +0.181 A 
BRANCH  37  38
ATOM     38  C   UNL     1       4.180  -2.560  25.443  0.00  0.00    +0.025 A 
ATOM     39  C   UNL     1       3.029  -3.312  25.739  0.00  0.00    +0.015 A 
ATOM     40  C   UNL     1       2.613  -4.344  24.911  0.00  0.00    +0.050 A 
ATOM     41  C   UNL     1       3.291  -4.557  23.723  0.00  0.00    +0.158 A 
ATOM     42  C   UNL     1       4.420  -3.805  23.391  0.00  0.00    +0.159 A 
ATOM     43  C   UNL     1       4.909  -2.839  24.276  0.00  0.00    +0.060 A 
BRANCH  41  44
ATOM     44  O   UNL     1       2.788  -5.483  22.858  0.00  0.00    -0.503 OA
ATOM     45  H   UNL     1       3.439  -5.517  22.134  0.00  0.00    +0.292 HD
ENDBRANCH  41  44
BRANCH  42  46
ATOM     46  O   UNL     1       4.984  -4.007  22.162  0.00  0.00    -0.503 OA
ATOM     47  H   UNL     1       5.942  -3.876  22.217  0.00  0.00    +0.292 HD
ENDBRANCH  42  46
ENDBRANCH  37  38
BRANCH  36  48
ATOM     48  O   UNL     1       5.955   2.925  28.286  0.00  0.00    -0.506 OA
ATOM     49  H   UNL     1       6.310   2.868  29.187  0.00  0.00    +0.292 HD
ENDBRANCH  36  48
BRANCH  33  50
ATOM     50  O   UNL     1       1.267   2.850  28.847  0.00  0.00    -0.507 OA
ATOM     51  H   UNL     1       0.766   3.125  28.061  0.00  0.00    +0.292 HD
ENDBRANCH  33  50
ENDBRANCH  26  27
ENDBRANCH   3  26
BRANCH   1  52
ATOM     52  C   UNL     1       8.150   1.346  22.541  0.00  0.00    +0.197 C 
BRANCH  52  53
ATOM     53  O   UNL     1       8.857   2.031  23.586  0.00  0.00    -0.346 OA
BRANCH  53  57
ATOM     54  C   UNL     1       8.620   6.407  23.021  0.00  0.00    +0.041 C 
ATOM     55  C   UNL     1       9.053   5.715  24.318  0.00  0.00    +0.149 C 
ATOM     56  O   UNL     1       9.439   4.335  24.125  0.00  0.00    -0.343 OA
ATOM     57  C   UNL     1       8.382   3.386  23.909  0.00  0.00    +0.282 C 
ATOM     58  C   UNL     1       7.310   3.468  25.044  0.00  0.00    +0.201 C 
ATOM     59  C   UNL     1       6.821   4.927  25.204  0.00  0.00    +0.179 C 
ATOM     60  C   UNL     1       7.997   5.888  25.423  0.00  0.00    +0.174 C 
BRANCH  58  61
ATOM     61  O   UNL     1       7.837   3.034  26.316  0.00  0.00    -0.384 OA
ATOM     62  H   UNL     1       8.242   3.829  26.712  0.00  0.00    +0.210 HD
ENDBRANCH  58  61
BRANCH  59  63
ATOM     63  O   UNL     1       5.915   5.019  26.317  0.00  0.00    -0.386 OA
ATOM     64  H   UNL     1       5.145   5.529  25.989  0.00  0.00    +0.210 HD
ENDBRANCH  59  63
BRANCH  60  65
ATOM     65  O   UNL     1       8.578   5.630  26.713  0.00  0.00    -0.387 OA
ATOM     66  H   UNL     1       9.364   6.213  26.782  0.00  0.00    +0.210 HD
ENDBRANCH  60  65
ENDBRANCH  53  57
ENDBRANCH  52  53
ENDBRANCH   1  52
TORSDOF 21
ENDMDL
MODEL 2
REMARK VINA RESULT:      -7.3      1.724      3.195
REMARK  Name = 
REMARK  22 active torsions:
REMARK  status: ('A' for Active; 'I' for Inactive)
REMARK    1  A    between atoms: C_1  and  C_2
REMARK    2  A    between atoms: C_3  and  O_60
REMARK    3  A    between atoms: C_5  and  O_59
REMARK    4  A    between atoms: C_6  and  O_58
REMARK    5  A    between atoms: C_8  and  O_11
REMARK    6  A    between atoms: O_11  and  C_12
REMARK    7  A    between atoms: C_12  and  C_13
REMARK    8  A    between atoms: C_14  and  O_57
REMARK    9  A    between atoms: C_16  and  O_56
REMARK   10  A    between atoms: C_18  and  O_44
REMARK   11  A    between atoms: C_19  and  O_22
REMARK   12  A    between atoms: O_22  and  C_23
REMARK   13  A    between atoms: C_24  and  C_36
REMARK   14  A    between atoms: C_28  and  O_35
REMARK   15  A    between atoms: C_30  and  O_34
REMARK   16  A    between atoms: C_38  and  O_43
REMARK   17  A    between atoms: C_39  and  O_42
REMARK   18  A    between atoms: O_44  and  C_45
REMARK   19  A    between atoms: C_45  and  C_47
REMARK   20  A    between atoms: C_49  and  O_55
REMARK   21  A    between atoms: C_50  and  O_54
REMARK   22  A    between atoms: C_51  and  O_53
REMARK                            x       y       z     vdW  Elec       q    Type
REMARK                         _______ _______ _______ _____ _____    ______ ____
ROOT
ATOM      1  C   UNL     1       8.612  -1.175  23.470  0.00  0.00    +0.179 C 
ATOM      2  O   UNL     1       7.300  -1.139  24.067  0.00  0.00    -0.330 OA
ATOM      3  C   UNL     1       7.063  -1.851  25.293  0.00  0.00    +0.352 C 
ATOM      4  C   UNL     1       7.687  -3.281  25.352  0.00  0.00    +0.276 C 
ATOM      5  C   UNL     1       9.147  -3.192  24.889  0.00  0.00    +0.192 C 
ATOM      6  C   UNL     1       9.222  -2.584  23.491  0.00  0.00    +0.178 C 
ENDROOT
BRANCH   6   7
ATOM      7  O   UNL     1      10.566  -2.627  23.005  0.00  0.00    -0.386 OA
ATOM      8  H   UNL     1      10.603  -2.039  22.228  0.00  0.00    +0.210 HD
ENDBRANCH   6   7
BRANCH   5   9
ATOM      9  O   UNL     1       9.766  -4.488  24.874  0.00  0.00    -0.385 OA
ATOM     10  H   UNL     1       9.019  -5.121  24.894  0.00  0.00    +0.210 HD
ENDBRANCH   5   9
BRANCH   4  11
ATOM     11  O   UNL     1       6.968  -4.268  24.534  0.00  0.00    -0.449 OA
BRANCH  11  12
ATOM     12  C   UNL     1       6.529  -5.384  25.193  0.00  0.00    +0.340 C 
ATOM     13  O   UNL     1       7.179  -6.039  25.999  0.00  0.00    -0.245 OA
BRANCH  12  14
ATOM     14  C   UNL     1       5.139  -5.798  24.814  0.00  0.00    +0.066 A 
ATOM     15  C   UNL     1       4.282  -4.986  24.071  0.00  0.00    +0.064 A 
ATOM     16  C   UNL     1       3.019  -5.465  23.740  0.00  0.00    +0.163 A 
ATOM     17  C   UNL     1       2.590  -6.726  24.128  0.00  0.00    +0.201 A 
ATOM     18  C   UNL     1       3.429  -7.533  24.875  0.00  0.00    +0.163 A 
ATOM     19  C   UNL     1       4.700  -7.082  25.227  0.00  0.00    +0.064 A 
BRANCH  18  20
ATOM     20  O   UNL     1       2.958  -8.771  25.236  0.00  0.00    -0.503 OA
ATOM     21  H   UNL     1       2.862  -8.792  26.206  0.00  0.00    +0.292 HD
ENDBRANCH  18  20
BRANCH  17  22
ATOM     22  O   UNL     1       1.342  -7.153  23.763  0.00  0.00    -0.501 OA
ATOM     23  H   UNL     1       0.751  -6.409  24.002  0.00  0.00    +0.292 HD
ENDBRANCH  17  22
BRANCH  16  24
ATOM     24  O   UNL     1       2.172  -4.666  22.999  0.00  0.00    -0.503 OA
ATOM     25  H   UNL     1       2.489  -3.754  23.173  0.00  0.00    +0.292 HD
ENDBRANCH  16  24
ENDBRANCH  12  14
ENDBRANCH  11  12
ENDBRANCH   4  11
BRANCH   3  26
ATOM     26  O   UNL     1       5.641  -2.009  25.519  0.00  0.00    -0.452 OA
BRANCH  26  27
ATOM     27  C   UNL     1       4.921  -1.183  26.377  0.00  0.00    +0.214 A 
ATOM     28  C   UNL     1       4.516   0.218  26.035  0.00  0.00    +0.238 A 
ATOM     29  O   UNL     1       4.988   0.805  25.074  0.00  0.00    -0.283 OA
ATOM     30  C   UNL     1       3.529   0.878  26.926  0.00  0.00    +0.109 A 
ATOM     31  C   UNL     1       3.254   0.282  28.155  0.00  0.00    +0.147 A 
ATOM     32  C   UNL     1       2.370   0.878  29.067  0.00  0.00    +0.092 A 
ATOM     33  C   UNL     1       1.743   2.072  28.726  0.00  0.00    +0.124 A 
ATOM     34  C   UNL     1       1.980   2.669  27.495  0.00  0.00    +0.091 A 
ATOM     35  O   UNL     1       3.807  -0.913  28.529  0.00  0.00    -0.451 OA
ATOM     36  C   UNL     1       2.871   2.075  26.597  0.00  0.00    +0.135 A 
ATOM     37  C   UNL     1       4.490  -1.644  27.573  0.00  0.00    +0.181 A 
BRANCH  37  38
ATOM     38  C   UNL     1       4.475  -3.088  27.870  0.00  0.00    +0.025 A 
ATOM     39  C   UNL     1       3.254  -3.735  27.607  0.00  0.00    +0.015 A 
ATOM     40  C   UNL     1       3.070  -5.074  27.919  0.00  0.00    +0.050 A 
ATOM     41  C   UNL     1       4.148  -5.799  28.397  0.00  0.00    +0.158 A 
ATOM     42  C   UNL     1       5.380  -5.188  28.638  0.00  0.00    +0.159 A 
ATOM     43  C   UNL     1       5.537  -3.813  28.432  0.00  0.00    +0.060 A 
BRANCH  41  44
ATOM     44  O   UNL     1       3.989  -7.142  28.568  0.00  0.00    -0.503 OA
ATOM     45  H   UNL     1       4.693  -7.393  29.192  0.00  0.00    +0.292 HD
ENDBRANCH  41  44
BRANCH  42  46
ATOM     46  O   UNL     1       6.424  -5.982  29.022  0.00  0.00    -0.503 OA
ATOM     47  H   UNL     1       7.259  -5.586  28.734  0.00  0.00    +0.292 HD
ENDBRANCH  42  46
ENDBRANCH  37  38
BRANCH  36  48
ATOM     48  O   UNL     1       3.070   2.672  25.387  0.00  0.00    -0.506 OA
ATOM     49  H   UNL     1       3.984   2.538  25.091  0.00  0.00    +0.292 HD
ENDBRANCH  36  48
BRANCH  33  50
ATOM     50  O   UNL     1       0.873   2.698  29.567  0.00  0.00    -0.507 OA
ATOM     51  H   UNL     1       0.739   2.152  30.360  0.00  0.00    +0.292 HD
ENDBRANCH  33  50
ENDBRANCH  26  27
ENDBRANCH   3  26
BRANCH   1  52
ATOM     52  C   UNL     1       9.568   0.078  23.700  0.00  0.00    +0.197 C 
BRANCH  52  53
ATOM     53  O   UNL     1       9.667   1.072  22.669  0.00  0.00    -0.346 OA
BRANCH  53  57
ATOM     54  C   UNL     1       9.265   5.135  24.361  0.00  0.00    +0.041 C 
ATOM     55  C   UNL     1       8.304   3.973  24.637  0.00  0.00    +0.149 C 
ATOM     56  O   UNL     1       8.867   2.681  24.315  0.00  0.00    -0.343 OA
ATOM     57  C   UNL     1       8.962   2.340  22.923  0.00  0.00    +0.282 C 
ATOM     58  C   UNL     1       7.581   2.493  22.208  0.00  0.00    +0.201 C 
ATOM     59  C   UNL     1       7.005   3.905  22.470  0.00  0.00    +0.179 C 
ATOM     60  C   UNL     1       6.937   4.209  23.973  0.00  0.00    +0.174 C 
BRANCH  58  61
ATOM     61  O   UNL     1       6.619   1.526  22.680  0.00  0.00    -0.384 OA
ATOM     62  H   UNL     1       6.905   0.672  22.302  0.00  0.00    +0.210 HD
ENDBRANCH  58  61
BRANCH  59  63
ATOM     63  O   UNL     1       5.688   4.009  21.902  0.00  0.00    -0.386 OA
ATOM     64  H   UNL     1       5.084   4.143  22.662  0.00  0.00    +0.210 HD
ENDBRANCH  59  63
BRANCH  60  65
ATOM     65  O   UNL     1       5.938   3.367  24.575  0.00  0.00    -0.387 OA
ATOM     66  H   UNL     1       5.214   3.964  24.863  0.00  0.00    +0.210 HD
ENDBRANCH  60  65
ENDBRANCH  53  57
ENDBRANCH  52  53
ENDBRANCH   1  52
TORSDOF 21
ENDMDL
MODEL 3
REMARK VINA RESULT:      -7.3      1.707      2.411
REMARK  Name = 
REMARK  22 active torsions:
REMARK  status: ('A' for Active; 'I' for Inactive)
REMARK    1  A    between atoms: C_1  and  C_2
REMARK    2  A    between atoms: C_3  and  O_60
REMARK    3  A    between atoms: C_5  and  O_59
REMARK    4  A    between atoms: C_6  and  O_58
REMARK    5  A    between atoms: C_8  and  O_11
REMARK    6  A    between atoms: O_11  and  C_12
REMARK    7  A    between atoms: C_12  and  C_13
REMARK    8  A    between atoms: C_14  and  O_57
REMARK    9  A    between atoms: C_16  and  O_56
REMARK   10  A    between atoms: C_18  and  O_44
REMARK   11  A    between atoms: C_19  and  O_22
REMARK   12  A    between atoms: O_22  and  C_23
REMARK   13  A    between atoms: C_24  and  C_36
REMARK   14  A    between atoms: C_28  and  O_35
REMARK   15  A    between atoms: C_30  and  O_34
REMARK   16  A    between atoms: C_38  and  O_43
REMARK   17  A    between atoms: C_39  and  O_42
REMARK   18  A    between atoms: O_44  and  C_45
REMARK   19  A    between atoms: C_45  and  C_47
REMARK   20  A    between atoms: C_49  and  O_55
REMARK   21  A    between atoms: C_50  and  O_54
REMARK   22  A    between atoms: C_51  and  O_53
REMARK                            x       y       z     vdW  Elec       q    Type
REMARK                         _______ _______ _______ _____ _____    ______ ____
ROOT
ATOM      1  C   UNL     1       8.719  -0.359  22.816  0.00  0.00    +0.179 C 
ATOM      2  O   UNL     1       7.689  -0.292  23.822  0.00  0.00    -0.330 OA
ATOM      3  C   UNL     1       7.926  -0.875  25.114  0.00  0.00    +0.352 C 
ATOM      4  C   UNL     1       8.617  -2.275  25.086  0.00  0.00    +0.276 C 
ATOM      5  C   UNL     1       9.825  -2.200  24.142  0.00  0.00    +0.192 C 
ATOM      6  C   UNL     1       9.383  -1.743  22.755  0.00  0.00    +0.178 C 
ENDROOT
BRANCH   6   7
ATOM      7  O   UNL     1      10.482  -1.805  21.841  0.00  0.00    -0.386 OA
ATOM      8  H   UNL     1      10.930  -0.940  21.882  0.00  0.00    +0.210 HD
ENDBRANCH   6   7
BRANCH   5   9
ATOM      9  O   UNL     1      10.477  -3.475  24.034  0.00  0.00    -0.385 OA
ATOM     10  H   UNL     1      10.073  -4.022  24.739  0.00  0.00    +0.210 HD
ENDBRANCH   5   9
BRANCH   4  11
ATOM     11  O   UNL     1       7.722  -3.361  24.660  0.00  0.00    -0.449 OA
BRANCH  11  12
ATOM     12  C   UNL     1       7.453  -4.316  25.602  0.00  0.00    +0.340 C 
ATOM     13  O   UNL     1       8.043  -4.455  26.667  0.00  0.00    -0.245 OA
BRANCH  12  14
ATOM     14  C   UNL     1       6.356  -5.258  25.206  0.00  0.00    +0.066 A 
ATOM     15  C   UNL     1       5.612  -5.988  26.133  0.00  0.00    +0.064 A 
ATOM     16  C   UNL     1       4.593  -6.816  25.677  0.00  0.00    +0.163 A 
ATOM     17  C   UNL     1       4.296  -6.935  24.326  0.00  0.00    +0.201 A 
ATOM     18  C   UNL     1       5.037  -6.224  23.399  0.00  0.00    +0.163 A 
ATOM     19  C   UNL     1       6.068  -5.388  23.823  0.00  0.00    +0.064 A 
BRANCH  18  20
ATOM     20  O   UNL     1       4.707  -6.377  22.075  0.00  0.00    -0.503 OA
ATOM     21  H   UNL     1       3.826  -6.792  22.025  0.00  0.00    +0.292 HD
ENDBRANCH  18  20
BRANCH  17  22
ATOM     22  O   UNL     1       3.273  -7.754  23.932  0.00  0.00    -0.501 OA
ATOM     23  H   UNL     1       2.973  -7.375  23.080  0.00  0.00    +0.292 HD
ENDBRANCH  17  22
BRANCH  16  24
ATOM     24  O   UNL     1       3.851  -7.534  26.593  0.00  0.00    -0.503 OA
ATOM     25  H   UNL     1       4.524  -7.975  27.153  0.00  0.00    +0.292 HD
ENDBRANCH  16  24
ENDBRANCH  12  14
ENDBRANCH  11  12
ENDBRANCH   4  11
BRANCH   3  26
ATOM     26  O   UNL     1       6.677  -1.043  25.830  0.00  0.00    -0.452 OA
BRANCH  26  27
ATOM     27  C   UNL     1       6.243  -0.146  26.801  0.00  0.00    +0.214 A 
ATOM     28  C   UNL     1       6.759   1.255  26.928  0.00  0.00    +0.238 A 
ATOM     29  O   UNL     1       7.758   1.626  26.333  0.00  0.00    -0.283 OA
ATOM     30  C   UNL     1       6.018   2.175  27.827  0.00  0.00    +0.109 A 
ATOM     31  C   UNL     1       5.078   1.626  28.697  0.00  0.00    +0.147 A 
ATOM     32  C   UNL     1       4.378   2.431  29.608  0.00  0.00    +0.092 A 
ATOM     33  C   UNL     1       4.612   3.801  29.626  0.00  0.00    +0.124 A 
ATOM     34  C   UNL     1       5.523   4.375  28.748  0.00  0.00    +0.091 A 
ATOM     35  O   UNL     1       4.774   0.291  28.698  0.00  0.00    -0.451 OA
ATOM     36  C   UNL     1       6.224   3.564  27.851  0.00  0.00    +0.135 A 
ATOM     37  C   UNL     1       5.261  -0.490  27.665  0.00  0.00    +0.181 A 
BRANCH  37  38
ATOM     38  C   UNL     1       4.407  -1.666  27.414  0.00  0.00    +0.025 A 
ATOM     39  C   UNL     1       4.041  -2.389  28.563  0.00  0.00    +0.015 A 
ATOM     40  C   UNL     1       3.311  -3.564  28.469  0.00  0.00    +0.050 A 
ATOM     41  C   UNL     1       2.853  -3.963  27.225  0.00  0.00    +0.158 A 
ATOM     42  C   UNL     1       3.178  -3.248  26.072  0.00  0.00    +0.159 A 
ATOM     43  C   UNL     1       4.008  -2.125  26.149  0.00  0.00    +0.060 A 
BRANCH  41  44
ATOM     44  O   UNL     1       2.023  -5.044  27.167  0.00  0.00    -0.503 OA
ATOM     45  H   UNL     1       1.306  -4.833  27.792  0.00  0.00    +0.292 HD
ENDBRANCH  41  44
BRANCH  42  46
ATOM     46  O   UNL     1       2.616  -3.647  24.891  0.00  0.00    -0.503 OA
ATOM     47  H   UNL     1       1.715  -3.966  25.049  0.00  0.00    +0.292 HD
ENDBRANCH  42  46
ENDBRANCH  37  38
BRANCH  36  48
ATOM     48  O   UNL     1       7.099   4.156  26.987  0.00  0.00    -0.506 OA
ATOM     49  H   UNL     1       7.918   3.639  26.928  0.00  0.00    +0.292 HD
ENDBRANCH  36  48
BRANCH  33  50
ATOM     50  O   UNL     1       3.963   4.635  30.485  0.00  0.00    -0.507 OA
ATOM     51  H   UNL     1       4.597   5.266  30.865  0.00  0.00    +0.292 HD
ENDBRANCH  33  50
ENDBRANCH  26  27
ENDBRANCH   3  26
BRANCH   1  52
ATOM     52  C   UNL     1       9.620   0.933  22.586  0.00  0.00    +0.197 C 
BRANCH  52  53
ATOM     53  O   UNL     1       9.701   1.916  23.629  0.00  0.00    -0.346 OA
BRANCH  53  57
ATOM     54  C   UNL     1       9.526   6.327  23.416  0.00  0.00    +0.041 C 
ATOM     55  C   UNL     1       8.568   5.452  24.231  0.00  0.00    +0.149 C 
ATOM     56  O   UNL     1       9.075   4.118  24.465  0.00  0.00    -0.343 OA
ATOM     57  C   UNL     1       9.046   3.206  23.355  0.00  0.00    +0.282 C 
ATOM     58  C   UNL     1       7.613   3.113  22.737  0.00  0.00    +0.201 C 
ATOM     59  C   UNL     1       7.091   4.529  22.399  0.00  0.00    +0.179 C 
ATOM     60  C   UNL     1       7.156   5.454  23.623  0.00  0.00    +0.174 C 
BRANCH  58  61
ATOM     61  O   UNL     1       6.674   2.498  23.644  0.00  0.00    -0.384 OA
ATOM     62  H   UNL     1       6.342   1.708  23.176  0.00  0.00    +0.210 HD
ENDBRANCH  58  61
BRANCH  59  63
ATOM     63  O   UNL     1       5.734   4.452  21.931  0.00  0.00    -0.386 OA
ATOM     64  H   UNL     1       5.180   4.764  22.677  0.00  0.00    +0.210 HD
ENDBRANCH  59  63
BRANCH  60  65
ATOM     65  O   UNL     1       6.193   5.010  24.596  0.00  0.00    -0.387 OA
ATOM     66  H   UNL     1       5.337   4.936  24.120  0.00  0.00    +0.210 HD
ENDBRANCH  60  65
ENDBRANCH  53  57
ENDBRANCH  52  53
ENDBRANCH   1  52
TORSDOF 21
ENDMDL
MODEL 4
REMARK VINA RESULT:      -7.2      2.127      9.324
REMARK  Name = 
REMARK  22 active torsions:
REMARK  status: ('A' for Active; 'I' for Inactive)
REMARK    1  A    between atoms: C_1  and  C_2
REMARK    2  A    between atoms: C_3  and  O_60
REMARK    3  A    between atoms: C_5  and  O_59
REMARK    4  A    between atoms: C_6  and  O_58
REMARK    5  A    between atoms: C_8  and  O_11
REMARK    6  A    between atoms: O_11  and  C_12
REMARK    7  A    between atoms: C_12  and  C_13
REMARK    8  A    between atoms: C_14  and  O_57
REMARK    9  A    between atoms: C_16  and  O_56
REMARK   10  A    between atoms: C_18  and  O_44
REMARK   11  A    between atoms: C_19  and  O_22
REMARK   12  A    between atoms: O_22  and  C_23
REMARK   13  A    between atoms: C_24  and  C_36
REMARK   14  A    between atoms: C_28  and  O_35
REMARK   15  A    between atoms: C_30  and  O_34
REMARK   16  A    between atoms: C_38  and  O_43
REMARK   17  A    between atoms: C_39  and  O_42
REMARK   18  A    between atoms: O_44  and  C_45
REMARK   19  A    between atoms: C_45  and  C_47
REMARK   20  A    between atoms: C_49  and  O_55
REMARK   21  A    between atoms: C_50  and  O_54
REMARK   22  A    between atoms: C_51  and  O_53
REMARK                            x       y       z     vdW  Elec       q    Type
REMARK                         _______ _______ _______ _____ _____    ______ ____
ROOT
ATOM      1  C   UNL     1       4.548  -0.495  28.014  0.00  0.00    +0.179 C 
ATOM      2  O   UNL     1       5.590  -0.590  27.022  0.00  0.00    -0.330 OA
ATOM      3  C   UNL     1       6.880  -0.020  27.297  0.00  0.00    +0.352 C 
ATOM      4  C   UNL     1       6.845   1.391  27.967  0.00  0.00    +0.276 C 
ATOM      5  C   UNL     1       5.857   1.346  29.140  0.00  0.00    +0.192 C 
ATOM      6  C   UNL     1       4.480   0.900  28.655  0.00  0.00    +0.178 C 
ENDROOT
BRANCH   6   7
ATOM      7  O   UNL     1       3.529   0.989  29.718  0.00  0.00    -0.386 OA
ATOM      8  H   UNL     1       3.970   1.455  30.452  0.00  0.00    +0.210 HD
ENDBRANCH   6   7
BRANCH   5   9
ATOM      9  O   UNL     1       5.741   2.632  29.769  0.00  0.00    -0.385 OA
ATOM     10  H   UNL     1       5.214   3.170  29.143  0.00  0.00    +0.210 HD
ENDBRANCH   5   9
BRANCH   4  11
ATOM     11  O   UNL     1       6.466   2.468  27.041  0.00  0.00    -0.449 OA
BRANCH  11  12
ATOM     12  C   UNL     1       7.148   3.646  27.185  0.00  0.00    +0.340 C 
ATOM     13  O   UNL     1       7.380   4.211  28.246  0.00  0.00    -0.245 OA
BRANCH  12  14
ATOM     14  C   UNL     1       7.580   4.252  25.884  0.00  0.00    +0.066 A 
ATOM     15  C   UNL     1       8.607   3.720  25.104  0.00  0.00    +0.064 A 
ATOM     16  C   UNL     1       8.921   4.332  23.895  0.00  0.00    +0.163 A 
ATOM     17  C   UNL     1       8.241   5.455  23.445  0.00  0.00    +0.201 A 
ATOM     18  C   UNL     1       7.229   5.995  24.217  0.00  0.00    +0.163 A 
ATOM     19  C   UNL     1       6.891   5.408  25.435  0.00  0.00    +0.064 A 
BRANCH  18  20
ATOM     20  O   UNL     1       6.587   7.107  23.730  0.00  0.00    -0.503 OA
ATOM     21  H   UNL     1       5.664   7.091  24.045  0.00  0.00    +0.292 HD
ENDBRANCH  18  20
BRANCH  17  22
ATOM     22  O   UNL     1       8.582   6.009  22.241  0.00  0.00    -0.501 OA
ATOM     23  H   UNL     1       8.837   5.244  21.685  0.00  0.00    +0.292 HD
ENDBRANCH  17  22
BRANCH  16  24
ATOM     24  O   UNL     1       9.933   3.804  23.119  0.00  0.00    -0.503 OA
ATOM     25  H   UNL     1      10.537   4.560  22.965  0.00  0.00    +0.292 HD
ENDBRANCH  16  24
ENDBRANCH  12  14
ENDBRANCH  11  12
ENDBRANCH   4  11
BRANCH   3  26
ATOM     26  O   UNL     1       7.642   0.121  26.074  0.00  0.00    -0.452 OA
BRANCH  26  27
ATOM     27  C   UNL     1       7.671  -0.864  25.091  0.00  0.00    +0.214 A 
ATOM     28  C   UNL     1       7.976  -2.304  25.367  0.00  0.00    +0.238 A 
ATOM     29  O   UNL     1       8.444  -2.666  26.434  0.00  0.00    -0.283 OA
ATOM     30  C   UNL     1       7.706  -3.278  24.279  0.00  0.00    +0.109 A 
ATOM     31  C   UNL     1       7.457  -2.782  23.002  0.00  0.00    +0.147 A 
ATOM     32  C   UNL     1       7.244  -3.647  21.918  0.00  0.00    +0.092 A 
ATOM     33  C   UNL     1       7.260  -5.021  22.130  0.00  0.00    +0.124 A 
ATOM     34  C   UNL     1       7.477  -5.538  23.400  0.00  0.00    +0.091 A 
ATOM     35  O   UNL     1       7.387  -1.440  22.738  0.00  0.00    -0.451 OA
ATOM     36  C   UNL     1       7.700  -4.670  24.473  0.00  0.00    +0.135 A 
ATOM     37  C   UNL     1       7.355  -0.565  23.810  0.00  0.00    +0.181 A 
BRANCH  37  38
ATOM     38  C   UNL     1       6.670   0.696  23.471  0.00  0.00    +0.025 A 
ATOM     39  C   UNL     1       7.153   1.341  22.319  0.00  0.00    +0.015 A 
ATOM     40  C   UNL     1       6.660   2.578  21.930  0.00  0.00    +0.050 A 
ATOM     41  C   UNL     1       5.602   3.123  22.636  0.00  0.00    +0.158 A 
ATOM     42  C   UNL     1       5.084   2.488  23.766  0.00  0.00    +0.159 A 
ATOM     43  C   UNL     1       5.653   1.297  24.229  0.00  0.00    +0.060 A 
BRANCH  41  44
ATOM     44  O   UNL     1       5.040   4.270  22.160  0.00  0.00    -0.503 OA
ATOM     45  H   UNL     1       4.174   3.990  21.813  0.00  0.00    +0.292 HD
ENDBRANCH  41  44
BRANCH  42  46
ATOM     46  O   UNL     1       3.982   3.037  24.360  0.00  0.00    -0.503 OA
ATOM     47  H   UNL     1       4.084   3.998  24.414  0.00  0.00    +0.292 HD
ENDBRANCH  42  46
ENDBRANCH  37  38
BRANCH  36  48
ATOM     48  O   UNL     1       7.891  -5.204  25.713  0.00  0.00    -0.506 OA
ATOM     49  H   UNL     1       8.496  -4.649  26.231  0.00  0.00    +0.292 HD
ENDBRANCH  36  48
BRANCH  33  50
ATOM     50  O   UNL     1       7.058  -5.912  21.119  0.00  0.00    -0.507 OA
ATOM     51  H   UNL     1       6.676  -5.452  20.353  0.00  0.00    +0.292 HD
ENDBRANCH  33  50
ENDBRANCH  26  27
ENDBRANCH   3  26
BRANCH   1  52
ATOM     52  C   UNL     1       4.268  -1.771  28.925  0.00  0.00    +0.197 C 
BRANCH  52  53
ATOM     53  O   UNL     1       3.327  -2.755  28.470  0.00  0.00    -0.346 OA
BRANCH  53  57
ATOM     54  C   UNL     1       3.748  -6.670  30.475  0.00  0.00    +0.041 C 
ATOM     55  C   UNL     1       4.915  -5.826  29.951  0.00  0.00    +0.149 C 
ATOM     56  O   UNL     1       4.559  -4.443  29.723  0.00  0.00    -0.343 OA
ATOM     57  C   UNL     1       3.763  -4.158  28.561  0.00  0.00    +0.282 C 
ATOM     58  C   UNL     1       4.420  -4.742  27.269  0.00  0.00    +0.201 C 
ATOM     59  C   UNL     1       4.728  -6.245  27.466  0.00  0.00    +0.179 C 
ATOM     60  C   UNL     1       5.572  -6.481  28.725  0.00  0.00    +0.174 C 
BRANCH  58  61
ATOM     61  O   UNL     1       5.658  -4.074  26.945  0.00  0.00    -0.384 OA
ATOM     62  H   UNL     1       5.474  -3.571  26.128  0.00  0.00    +0.210 HD
ENDBRANCH  58  61
BRANCH  59  63
ATOM     63  O   UNL     1       5.428  -6.755  26.318  0.00  0.00    -0.386 OA
ATOM     64  H   UNL     1       4.838  -7.434  25.930  0.00  0.00    +0.210 HD
ENDBRANCH  59  63
BRANCH  60  65
ATOM     65  O   UNL     1       6.888  -5.937  28.514  0.00  0.00    -0.387 OA
ATOM     66  H   UNL     1       7.208  -6.316  27.667  0.00  0.00    +0.210 HD
ENDBRANCH  60  65
ENDBRANCH  53  57
ENDBRANCH  52  53
ENDBRANCH   1  52
TORSDOF 21
ENDMDL
MODEL 5
REMARK VINA RESULT:      -7.1      2.037      8.531
REMARK  Name = 
REMARK  22 active torsions:
REMARK  status: ('A' for Active; 'I' for Inactive)
REMARK    1  A    between atoms: C_1  and  C_2
REMARK    2  A    between atoms: C_3  and  O_60
REMARK    3  A    between atoms: C_5  and  O_59
REMARK    4  A    between atoms: C_6  and  O_58
REMARK    5  A    between atoms: C_8  and  O_11
REMARK    6  A    between atoms: O_11  and  C_12
REMARK    7  A    between atoms: C_12  and  C_13
REMARK    8  A    between atoms: C_14  and  O_57
REMARK    9  A    between atoms: C_16  and  O_56
REMARK   10  A    between atoms: C_18  and  O_44
REMARK   11  A    between atoms: C_19  and  O_22
REMARK   12  A    between atoms: O_22  and  C_23
REMARK   13  A    between atoms: C_24  and  C_36
REMARK   14  A    between atoms: C_28  and  O_35
REMARK   15  A    between atoms: C_30  and  O_34
REMARK   16  A    between atoms: C_38  and  O_43
REMARK   17  A    between atoms: C_39  and  O_42
REMARK   18  A    between atoms: O_44  and  C_45
REMARK   19  A    between atoms: C_45  and  C_47
REMARK   20  A    between atoms: C_49  and  O_55
REMARK   21  A    between atoms: C_50  and  O_54
REMARK   22  A    between atoms: C_51  and  O_53
REMARK                            x       y       z     vdW  Elec       q    Type
REMARK                         _______ _______ _______ _____ _____    ______ ____
ROOT
ATOM      1  C   UNL     1       9.089  -1.722  25.313  0.00  0.00    +0.179 C 
ATOM      2  O   UNL     1       8.432  -0.585  25.910  0.00  0.00    -0.330 OA
ATOM      3  C   UNL     1       7.678   0.310  25.077  0.00  0.00    +0.352 C 
ATOM      4  C   UNL     1       8.363   0.681  23.723  0.00  0.00    +0.276 C 
ATOM      5  C   UNL     1       8.856  -0.611  23.059  0.00  0.00    +0.192 C 
ATOM      6  C   UNL     1       9.796  -1.362  23.998  0.00  0.00    +0.178 C 
ENDROOT
BRANCH   6   7
ATOM      7  O   UNL     1      10.362  -2.493  23.330  0.00  0.00    -0.386 OA
ATOM      8  H   UNL     1       9.746  -2.734  22.614  0.00  0.00    +0.210 HD
ENDBRANCH   6   7
BRANCH   5   9
ATOM      9  O   UNL     1       9.542  -0.332  21.828  0.00  0.00    -0.385 OA
ATOM     10  H   UNL     1       9.488  -1.166  21.318  0.00  0.00    +0.210 HD
ENDBRANCH   5   9
BRANCH   4  11
ATOM     11  O   UNL     1       9.484   1.620  23.872  0.00  0.00    -0.449 OA
BRANCH  11  12
ATOM     12  C   UNL     1       9.576   2.597  22.919  0.00  0.00    +0.340 C 
ATOM     13  O   UNL     1       9.098   2.541  21.792  0.00  0.00    -0.245 OA
BRANCH  12  14
ATOM     14  C   UNL     1      10.376   3.788  23.353  0.00  0.00    +0.066 A 
ATOM     15  C   UNL     1       9.816   4.872  24.029  0.00  0.00    +0.064 A 
ATOM     16  C   UNL     1      10.640   5.921  24.420  0.00  0.00    +0.163 A 
ATOM     17  C   UNL     1      12.003   5.917  24.158  0.00  0.00    +0.201 A 
ATOM     18  C   UNL     1      12.565   4.851  23.479  0.00  0.00    +0.163 A 
ATOM     19  C   UNL     1      11.766   3.785  23.069  0.00  0.00    +0.064 A 
BRANCH  18  20
ATOM     20  O   UNL     1      13.917   4.895  23.242  0.00  0.00    -0.503 OA
ATOM     21  H   UNL     1      14.377   4.956  24.099  0.00  0.00    +0.292 HD
ENDBRANCH  18  20
BRANCH  17  22
ATOM     22  O   UNL     1      12.772   6.969  24.578  0.00  0.00    -0.501 OA
ATOM     23  H   UNL     1      12.392   7.746  24.117  0.00  0.00    +0.292 HD
ENDBRANCH  17  22
BRANCH  16  24
ATOM     24  O   UNL     1      10.089   6.992  25.094  0.00  0.00    -0.503 OA
ATOM     25  H   UNL     1      10.257   7.758  24.505  0.00  0.00    +0.292 HD
ENDBRANCH  16  24
ENDBRANCH  12  14
ENDBRANCH  11  12
ENDBRANCH   4  11
BRANCH   3  26
ATOM     26  O   UNL     1       7.429   1.557  25.771  0.00  0.00    -0.452 OA
BRANCH  26  27
ATOM     27  C   UNL     1       6.216   1.840  26.392  0.00  0.00    +0.214 A 
ATOM     28  C   UNL     1       5.794   1.244  27.700  0.00  0.00    +0.238 A 
ATOM     29  O   UNL     1       6.385   0.296  28.192  0.00  0.00    -0.283 OA
ATOM     30  C   UNL     1       4.609   1.838  28.368  0.00  0.00    +0.109 A 
ATOM     31  C   UNL     1       3.807   2.707  27.631  0.00  0.00    +0.147 A 
ATOM     32  C   UNL     1       2.645   3.265  28.184  0.00  0.00    +0.092 A 
ATOM     33  C   UNL     1       2.303   2.962  29.498  0.00  0.00    +0.124 A 
ATOM     34  C   UNL     1       3.102   2.121  30.261  0.00  0.00    +0.091 A 
ATOM     35  O   UNL     1       4.114   3.076  26.349  0.00  0.00    -0.451 OA
ATOM     36  C   UNL     1       4.253   1.561  29.699  0.00  0.00    +0.135 A 
ATOM     37  C   UNL     1       5.362   2.741  25.854  0.00  0.00    +0.181 A 
BRANCH  37  38
ATOM     38  C   UNL     1       5.807   3.674  24.803  0.00  0.00    +0.025 A 
ATOM     39  C   UNL     1       5.656   3.201  23.487  0.00  0.00    +0.015 A 
ATOM     40  C   UNL     1       6.110   3.938  22.404  0.00  0.00    +0.050 A 
ATOM     41  C   UNL     1       6.621   5.204  22.629  0.00  0.00    +0.158 A 
ATOM     42  C   UNL     1       6.755   5.710  23.923  0.00  0.00    +0.159 A 
ATOM     43  C   UNL     1       6.403   4.925  25.026  0.00  0.00    +0.060 A 
BRANCH  41  44
ATOM     44  O   UNL     1       6.935   5.969  21.544  0.00  0.00    -0.503 OA
ATOM     45  H   UNL     1       6.163   6.551  21.426  0.00  0.00    +0.292 HD
ENDBRANCH  41  44
BRANCH  42  46
ATOM     46  O   UNL     1       7.181   7.001  24.066  0.00  0.00    -0.503 OA
ATOM     47  H   UNL     1       6.450   7.609  23.881  0.00  0.00    +0.292 HD
ENDBRANCH  42  46
ENDBRANCH  37  38
BRANCH  36  48
ATOM     48  O   UNL     1       5.031   0.755  30.477  0.00  0.00    -0.506 OA
ATOM     49  H   UNL     1       5.431   1.265  31.199  0.00  0.00    +0.292 HD
ENDBRANCH  36  48
BRANCH  33  50
ATOM     50  O   UNL     1       1.189   3.473  30.092  0.00  0.00    -0.507 OA
ATOM     51  H   UNL     1       1.189   4.441  30.001  0.00  0.00    +0.292 HD
ENDBRANCH  33  50
ENDBRANCH  26  27
ENDBRANCH   3  26
BRANCH   1  52
ATOM     52  C   UNL     1       8.378  -3.142  25.436  0.00  0.00    +0.197 C 
BRANCH  52  53
ATOM     53  O   UNL     1       7.642  -3.648  24.312  0.00  0.00    -0.346 OA
BRANCH  53  57
ATOM     54  C   UNL     1       4.615  -5.408  27.008  0.00  0.00    +0.041 C 
ATOM     55  C   UNL     1       5.276  -6.143  25.836  0.00  0.00    +0.149 C 
ATOM     56  O   UNL     1       6.496  -5.512  25.385  0.00  0.00    -0.343 OA
ATOM     57  C   UNL     1       6.360  -4.304  24.619  0.00  0.00    +0.282 C 
ATOM     58  C   UNL     1       5.405  -4.512  23.399  0.00  0.00    +0.201 C 
ATOM     59  C   UNL     1       4.060  -5.106  23.878  0.00  0.00    +0.179 C 
ATOM     60  C   UNL     1       4.275  -6.388  24.695  0.00  0.00    +0.174 C 
BRANCH  58  61
ATOM     61  O   UNL     1       5.967  -5.415  22.423  0.00  0.00    -0.384 OA
ATOM     62  H   UNL     1       6.919  -5.466  22.636  0.00  0.00    +0.210 HD
ENDBRANCH  58  61
BRANCH  59  63
ATOM     63  O   UNL     1       3.223  -5.397  22.745  0.00  0.00    -0.386 OA
ATOM     64  H   UNL     1       2.531  -4.703  22.744  0.00  0.00    +0.210 HD
ENDBRANCH  59  63
BRANCH  60  65
ATOM     65  O   UNL     1       4.759  -7.423  23.820  0.00  0.00    -0.387 OA
ATOM     66  H   UNL     1       4.826  -7.019  22.928  0.00  0.00    +0.210 HD
ENDBRANCH  60  65
ENDBRANCH  53  57
ENDBRANCH  52  53
ENDBRANCH   1  52
TORSDOF 21
ENDMDL
MODEL 6
REMARK VINA RESULT:      -7.1      2.046      9.350
REMARK  Name = 
REMARK  22 active torsions:
REMARK  status: ('A' for Active; 'I' for Inactive)
REMARK    1  A    between atoms: C_1  and  C_2
REMARK    2  A    between atoms: C_3  and  O_60
REMARK    3  A    between atoms: C_5  and  O_59
REMARK    4  A    between atoms: C_6  and  O_58
REMARK    5  A    between atoms: C_8  and  O_11
REMARK    6  A    between atoms: O_11  and  C_12
REMARK    7  A    between atoms: C_12  and  C_13
REMARK    8  A    between atoms: C_14  and  O_57
REMARK    9  A    between atoms: C_16  and  O_56
REMARK   10  A    between atoms: C_18  and  O_44
REMARK   11  A    between atoms: C_19  and  O_22
REMARK   12  A    between atoms: O_22  and  C_23
REMARK   13  A    between atoms: C_24  and  C_36
REMARK   14  A    between atoms: C_28  and  O_35
REMARK   15  A    between atoms: C_30  and  O_34
REMARK   16  A    between atoms: C_38  and  O_43
REMARK   17  A    between atoms: C_39  and  O_42
REMARK   18  A    between atoms: O_44  and  C_45
REMARK   19  A    between atoms: C_45  and  C_47
REMARK   20  A    between atoms: C_49  and  O_55
REMARK   21  A    between atoms: C_50  and  O_54
REMARK   22  A    between atoms: C_51  and  O_53
REMARK                            x       y       z     vdW  Elec       q    Type
REMARK                         _______ _______ _______ _____ _____    ______ ____
ROOT
ATOM      1  C   UNL     1       3.716  -0.267  28.550  0.00  0.00    +0.179 C 
ATOM      2  O   UNL     1       4.269  -0.542  27.247  0.00  0.00    -0.330 OA
ATOM      3  C   UNL     1       5.670  -0.325  27.016  0.00  0.00    +0.352 C 
ATOM      4  C   UNL     1       6.238   1.000  27.618  0.00  0.00    +0.276 C 
ATOM      5  C   UNL     1       5.763   1.113  29.073  0.00  0.00    +0.192 C 
ATOM      6  C   UNL     1       4.240   1.052  29.138  0.00  0.00    +0.178 C 
ENDROOT
BRANCH   6   7
ATOM      7  O   UNL     1       3.793   1.294  30.475  0.00  0.00    -0.386 OA
ATOM      8  H   UNL     1       4.117   2.179  30.724  0.00  0.00    +0.210 HD
ENDBRANCH   6   7
BRANCH   5   9
ATOM      9  O   UNL     1       6.213   2.340  29.670  0.00  0.00    -0.385 OA
ATOM     10  H   UNL     1       6.142   3.005  28.956  0.00  0.00    +0.210 HD
ENDBRANCH   5   9
BRANCH   4  11
ATOM     11  O   UNL     1       5.835   2.201  26.872  0.00  0.00    -0.449 OA
BRANCH  11  12
ATOM     12  C   UNL     1       6.799   3.161  26.722  0.00  0.00    +0.340 C 
ATOM     13  O   UNL     1       7.495   3.620  27.620  0.00  0.00    -0.245 OA
BRANCH  12  14
ATOM     14  C   UNL     1       6.926   3.671  25.318  0.00  0.00    +0.066 A 
ATOM     15  C   UNL     1       5.950   3.462  24.344  0.00  0.00    +0.064 A 
ATOM     16  C   UNL     1       6.139   3.998  23.075  0.00  0.00    +0.163 A 
ATOM     17  C   UNL     1       7.271   4.735  22.753  0.00  0.00    +0.201 A 
ATOM     18  C   UNL     1       8.249   4.938  23.710  0.00  0.00    +0.163 A 
ATOM     19  C   UNL     1       8.092   4.411  24.991  0.00  0.00    +0.064 A 
BRANCH  18  20
ATOM     20  O   UNL     1       9.349   5.672  23.343  0.00  0.00    -0.503 OA
ATOM     21  H   UNL     1       9.725   6.082  24.144  0.00  0.00    +0.292 HD
ENDBRANCH  18  20
BRANCH  17  22
ATOM     22  O   UNL     1       7.400   5.252  21.492  0.00  0.00    -0.501 OA
ATOM     23  H   UNL     1       8.152   5.875  21.562  0.00  0.00    +0.292 HD
ENDBRANCH  17  22
BRANCH  16  24
ATOM     24  O   UNL     1       5.172   3.797  22.111  0.00  0.00    -0.503 OA
ATOM     25  H   UNL     1       4.873   4.701  21.879  0.00  0.00    +0.292 HD
ENDBRANCH  16  24
ENDBRANCH  12  14
ENDBRANCH  11  12
ENDBRANCH   4  11
BRANCH   3  26
ATOM     26  O   UNL     1       5.948  -0.286  25.594  0.00  0.00    -0.452 OA
BRANCH  26  27
ATOM     27  C   UNL     1       6.177  -1.436  24.844  0.00  0.00    +0.214 A 
ATOM     28  C   UNL     1       5.182  -2.546  24.700  0.00  0.00    +0.238 A 
ATOM     29  O   UNL     1       4.197  -2.620  25.418  0.00  0.00    -0.283 OA
ATOM     30  C   UNL     1       5.451  -3.572  23.662  0.00  0.00    +0.109 A 
ATOM     31  C   UNL     1       6.719  -3.604  23.085  0.00  0.00    +0.147 A 
ATOM     32  C   UNL     1       7.057  -4.578  22.134  0.00  0.00    +0.092 A 
ATOM     33  C   UNL     1       6.103  -5.512  21.746  0.00  0.00    +0.124 A 
ATOM     34  C   UNL     1       4.824  -5.482  22.287  0.00  0.00    +0.091 A 
ATOM     35  O   UNL     1       7.687  -2.686  23.394  0.00  0.00    -0.451 OA
ATOM     36  C   UNL     1       4.498  -4.515  23.242  0.00  0.00    +0.135 A 
ATOM     37  C   UNL     1       7.323  -1.579  24.140  0.00  0.00    +0.181 A 
BRANCH  37  38
ATOM     38  C   UNL     1       8.202  -0.425  23.877  0.00  0.00    +0.025 A 
ATOM     39  C   UNL     1       9.108  -0.122  24.910  0.00  0.00    +0.015 A 
ATOM     40  C   UNL     1       9.936   0.987  24.835  0.00  0.00    +0.050 A 
ATOM     41  C   UNL     1       9.935   1.739  23.672  0.00  0.00    +0.158 A 
ATOM     42  C   UNL     1       9.067   1.443  22.620  0.00  0.00    +0.159 A 
ATOM     43  C   UNL     1       8.151   0.393  22.738  0.00  0.00    +0.060 A 
BRANCH  41  44
ATOM     44  O   UNL     1      10.852   2.743  23.561  0.00  0.00    -0.503 OA
ATOM     45  H   UNL     1      11.012   2.821  22.603  0.00  0.00    +0.292 HD
ENDBRANCH  41  44
BRANCH  42  46
ATOM     46  O   UNL     1       9.185   2.170  21.469  0.00  0.00    -0.503 OA
ATOM     47  H   UNL     1      10.117   2.380  21.309  0.00  0.00    +0.292 HD
ENDBRANCH  42  46
ENDBRANCH  37  38
BRANCH  36  48
ATOM     48  O   UNL     1       3.229  -4.495  23.742  0.00  0.00    -0.506 OA
ATOM     49  H   UNL     1       2.597  -4.800  23.071  0.00  0.00    +0.292 HD
ENDBRANCH  36  48
BRANCH  33  50
ATOM     50  O   UNL     1       6.369  -6.481  20.827  0.00  0.00    -0.507 OA
ATOM     51  H   UNL     1       5.592  -6.609  20.257  0.00  0.00    +0.292 HD
ENDBRANCH  33  50
ENDBRANCH  26  27
ENDBRANCH   3  26
BRANCH   1  52
ATOM     52  C   UNL     1       3.471  -1.498  29.530  0.00  0.00    +0.197 C 
BRANCH  52  53
ATOM     53  O   UNL     1       4.421  -2.575  29.540  0.00  0.00    -0.346 OA
BRANCH  53  57
ATOM     54  C   UNL     1       1.739  -5.161  27.163  0.00  0.00    +0.041 C 
ATOM     55  C   UNL     1       2.630  -5.645  28.312  0.00  0.00    +0.149 C 
ATOM     56  O   UNL     1       3.079  -4.575  29.175  0.00  0.00    -0.343 OA
ATOM     57  C   UNL     1       4.113  -3.718  28.665  0.00  0.00    +0.282 C 
ATOM     58  C   UNL     1       5.349  -4.548  28.186  0.00  0.00    +0.201 C 
ATOM     59  C   UNL     1       4.896  -5.644  27.192  0.00  0.00    +0.179 C 
ATOM     60  C   UNL     1       3.786  -6.517  27.794  0.00  0.00    +0.174 C 
BRANCH  58  61
ATOM     61  O   UNL     1       6.022  -5.196  29.286  0.00  0.00    -0.384 OA
ATOM     62  H   UNL     1       5.557  -4.891  30.089  0.00  0.00    +0.210 HD
ENDBRANCH  58  61
BRANCH  59  63
ATOM     63  O   UNL     1       6.015  -6.473  26.835  0.00  0.00    -0.386 OA
ATOM     64  H   UNL     1       5.670  -7.110  26.175  0.00  0.00    +0.210 HD
ENDBRANCH  59  63
BRANCH  60  65
ATOM     65  O   UNL     1       4.338  -7.302  28.865  0.00  0.00    -0.387 OA
ATOM     66  H   UNL     1       3.590  -7.514  29.464  0.00  0.00    +0.210 HD
ENDBRANCH  60  65
ENDBRANCH  53  57
ENDBRANCH  52  53
ENDBRANCH   1  52
TORSDOF 21
ENDMDL
MODEL 7
REMARK VINA RESULT:      -6.9      1.797      2.481
REMARK  Name = 
REMARK  22 active torsions:
REMARK  status: ('A' for Active; 'I' for Inactive)
REMARK    1  A    between atoms: C_1  and  C_2
REMARK    2  A    between atoms: C_3  and  O_60
REMARK    3  A    between atoms: C_5  and  O_59
REMARK    4  A    between atoms: C_6  and  O_58
REMARK    5  A    between atoms: C_8  and  O_11
REMARK    6  A    between atoms: O_11  and  C_12
REMARK    7  A    between atoms: C_12  and  C_13
REMARK    8  A    between atoms: C_14  and  O_57
REMARK    9  A    between atoms: C_16  and  O_56
REMARK   10  A    between atoms: C_18  and  O_44
REMARK   11  A    between atoms: C_19  and  O_22
REMARK   12  A    between atoms: O_22  and  C_23
REMARK   13  A    between atoms: C_24  and  C_36
REMARK   14  A    between atoms: C_28  and  O_35
REMARK   15  A    between atoms: C_30  and  O_34
REMARK   16  A    between atoms: C_38  and  O_43
REMARK   17  A    between atoms: C_39  and  O_42
REMARK   18  A    between atoms: O_44  and  C_45
REMARK   19  A    between atoms: C_45  and  C_47
REMARK   20  A    between atoms: C_49  and  O_55
REMARK   21  A    between atoms: C_50  and  O_54
REMARK   22  A    between atoms: C_51  and  O_53
REMARK                            x       y       z     vdW  Elec       q    Type
REMARK                         _______ _______ _______ _____ _____    ______ ____
ROOT
ATOM      1  C   UNL     1       7.713   1.985  21.872  0.00  0.00    +0.179 C 
ATOM      2  O   UNL     1       6.718   1.153  22.504  0.00  0.00    -0.330 OA
ATOM      3  C   UNL     1       7.022   0.518  23.756  0.00  0.00    +0.352 C 
ATOM      4  C   UNL     1       8.446  -0.118  23.841  0.00  0.00    +0.276 C 
ATOM      5  C   UNL     1       9.467   0.911  23.336  0.00  0.00    +0.192 C 
ATOM      6  C   UNL     1       9.113   1.353  21.919  0.00  0.00    +0.178 C 
ENDROOT
BRANCH   6   7
ATOM      7  O   UNL     1      10.136   2.206  21.398  0.00  0.00    -0.386 OA
ATOM      8  H   UNL     1      10.989   1.814  21.660  0.00  0.00    +0.210 HD
ENDBRANCH   6   7
BRANCH   5   9
ATOM      9  O   UNL     1      10.796   0.367  23.342  0.00  0.00    -0.385 OA
ATOM     10  H   UNL     1      10.967   0.137  24.278  0.00  0.00    +0.210 HD
ENDBRANCH   5   9
BRANCH   4  11
ATOM     11  O   UNL     1       8.577  -1.364  23.072  0.00  0.00    -0.449 OA
BRANCH  11  12
ATOM     12  C   UNL     1       9.553  -2.226  23.494  0.00  0.00    +0.340 C 
ATOM     13  O   UNL     1      10.690  -2.294  23.041  0.00  0.00    -0.245 OA
BRANCH  12  14
ATOM     14  C   UNL     1       9.104  -3.159  24.578  0.00  0.00    +0.066 A 
ATOM     15  C   UNL     1       8.217  -2.779  25.586  0.00  0.00    +0.064 A 
ATOM     16  C   UNL     1       7.831  -3.721  26.534  0.00  0.00    +0.163 A 
ATOM     17  C   UNL     1       8.305  -5.025  26.503  0.00  0.00    +0.201 A 
ATOM     18  C   UNL     1       9.193  -5.407  25.515  0.00  0.00    +0.163 A 
ATOM     19  C   UNL     1       9.602  -4.487  24.551  0.00  0.00    +0.064 A 
BRANCH  18  20
ATOM     20  O   UNL     1       9.633  -6.707  25.528  0.00  0.00    -0.503 OA
ATOM     21  H   UNL     1      10.263  -6.810  26.265  0.00  0.00    +0.292 HD
ENDBRANCH  18  20
BRANCH  17  22
ATOM     22  O   UNL     1       7.882  -5.916  27.453  0.00  0.00    -0.501 OA
ATOM     23  H   UNL     1       8.621  -5.954  28.095  0.00  0.00    +0.292 HD
ENDBRANCH  17  22
BRANCH  16  24
ATOM     24  O   UNL     1       6.949  -3.349  27.528  0.00  0.00    -0.503 OA
ATOM     25  H   UNL     1       6.892  -4.139  28.106  0.00  0.00    +0.292 HD
ENDBRANCH  16  24
ENDBRANCH  12  14
ENDBRANCH  11  12
ENDBRANCH   4  11
BRANCH   3  26
ATOM     26  O   UNL     1       6.076  -0.546  24.025  0.00  0.00    -0.452 OA
BRANCH  26  27
ATOM     27  C   UNL     1       5.363  -0.632  25.217  0.00  0.00    +0.214 A 
ATOM     28  C   UNL     1       5.081   0.543  26.102  0.00  0.00    +0.238 A 
ATOM     29  O   UNL     1       5.655   1.610  25.952  0.00  0.00    -0.283 OA
ATOM     30  C   UNL     1       4.088   0.354  27.189  0.00  0.00    +0.109 A 
ATOM     31  C   UNL     1       3.693  -0.945  27.497  0.00  0.00    +0.147 A 
ATOM     32  C   UNL     1       2.796  -1.200  28.546  0.00  0.00    +0.092 A 
ATOM     33  C   UNL     1       2.279  -0.134  29.274  0.00  0.00    +0.124 A 
ATOM     34  C   UNL     1       2.637   1.172  28.966  0.00  0.00    +0.091 A 
ATOM     35  O   UNL     1       4.134  -2.032  26.791  0.00  0.00    -0.451 OA
ATOM     36  C   UNL     1       3.539   1.416  27.927  0.00  0.00    +0.135 A 
ATOM     37  C   UNL     1       4.824  -1.807  25.613  0.00  0.00    +0.181 A 
BRANCH  37  38
ATOM     38  C   UNL     1       4.688  -2.935  24.672  0.00  0.00    +0.025 A 
ATOM     39  C   UNL     1       3.854  -3.977  25.113  0.00  0.00    +0.015 A 
ATOM     40  C   UNL     1       3.701  -5.137  24.369  0.00  0.00    +0.050 A 
ATOM     41  C   UNL     1       4.302  -5.212  23.124  0.00  0.00    +0.158 A 
ATOM     42  C   UNL     1       5.112  -4.179  22.650  0.00  0.00    +0.159 A 
ATOM     43  C   UNL     1       5.360  -3.056  23.446  0.00  0.00    +0.060 A 
BRANCH  41  44
ATOM     44  O   UNL     1       4.031  -6.300  22.348  0.00  0.00    -0.503 OA
ATOM     45  H   UNL     1       4.273  -7.062  22.905  0.00  0.00    +0.292 HD
ENDBRANCH  41  44
BRANCH  42  46
ATOM     46  O   UNL     1       5.598  -4.280  21.376  0.00  0.00    -0.503 OA
ATOM     47  H   UNL     1       5.085  -3.711  20.784  0.00  0.00    +0.292 HD
ENDBRANCH  42  46
ENDBRANCH  37  38
BRANCH  36  48
ATOM     48  O   UNL     1       3.858   2.710  27.633  0.00  0.00    -0.506 OA
ATOM     49  H   UNL     1       4.632   2.743  27.049  0.00  0.00    +0.292 HD
ENDBRANCH  36  48
BRANCH  33  50
ATOM     50  O   UNL     1       1.404  -0.316  30.302  0.00  0.00    -0.507 OA
ATOM     51  H   UNL     1       0.552   0.096  30.078  0.00  0.00    +0.292 HD
ENDBRANCH  33  50
ENDBRANCH  26  27
ENDBRANCH   3  26
BRANCH   1  52
ATOM     52  C   UNL     1       7.579   3.563  22.039  0.00  0.00    +0.197 C 
BRANCH  52  53
ATOM     53  O   UNL     1       6.420   4.094  22.700  0.00  0.00    -0.346 OA
BRANCH  53  57
ATOM     54  C   UNL     1       8.958   5.999  25.775  0.00  0.00    +0.041 C 
ATOM     55  C   UNL     1       8.016   4.817  26.028  0.00  0.00    +0.149 C 
ATOM     56  O   UNL     1       7.627   4.130  24.816  0.00  0.00    -0.343 OA
ATOM     57  C   UNL     1       6.663   4.786  23.976  0.00  0.00    +0.282 C 
ATOM     58  C   UNL     1       5.382   5.175  24.783  0.00  0.00    +0.201 C 
ATOM     59  C   UNL     1       5.776   5.988  26.039  0.00  0.00    +0.179 C 
ATOM     60  C   UNL     1       6.811   5.237  26.887  0.00  0.00    +0.174 C 
BRANCH  58  61
ATOM     61  O   UNL     1       4.646   4.012  25.218  0.00  0.00    -0.384 OA
ATOM     62  H   UNL     1       4.600   3.428  24.437  0.00  0.00    +0.210 HD
ENDBRANCH  58  61
BRANCH  59  63
ATOM     63  O   UNL     1       4.608   6.253  26.835  0.00  0.00    -0.386 OA
ATOM     64  H   UNL     1       4.450   5.435  27.352  0.00  0.00    +0.210 HD
ENDBRANCH  59  63
BRANCH  60  65
ATOM     65  O   UNL     1       6.186   4.079  27.470  0.00  0.00    -0.387 OA
ATOM     66  H   UNL     1       6.825   3.724  28.126  0.00  0.00    +0.210 HD
ENDBRANCH  60  65
ENDBRANCH  53  57
ENDBRANCH  52  53
ENDBRANCH   1  52
TORSDOF 21
ENDMDL
MODEL 8
REMARK VINA RESULT:      -6.9      2.429      3.213
REMARK  Name = 
REMARK  22 active torsions:
REMARK  status: ('A' for Active; 'I' for Inactive)
REMARK    1  A    between atoms: C_1  and  C_2
REMARK    2  A    between atoms: C_3  and  O_60
REMARK    3  A    between atoms: C_5  and  O_59
REMARK    4  A    between atoms: C_6  and  O_58
REMARK    5  A    between atoms: C_8  and  O_11
REMARK    6  A    between atoms: O_11  and  C_12
REMARK    7  A    between atoms: C_12  and  C_13
REMARK    8  A    between atoms: C_14  and  O_57
REMARK    9  A    between atoms: C_16  and  O_56
REMARK   10  A    between atoms: C_18  and  O_44
REMARK   11  A    between atoms: C_19  and  O_22
REMARK   12  A    between atoms: O_22  and  C_23
REMARK   13  A    between atoms: C_24  and  C_36
REMARK   14  A    between atoms: C_28  and  O_35
REMARK   15  A    between atoms: C_30  and  O_34
REMARK   16  A    between atoms: C_38  and  O_43
REMARK   17  A    between atoms: C_39  and  O_42
REMARK   18  A    between atoms: O_44  and  C_45
REMARK   19  A    between atoms: C_45  and  C_47
REMARK   20  A    between atoms: C_49  and  O_55
REMARK   21  A    between atoms: C_50  and  O_54
REMARK   22  A    between atoms: C_51  and  O_53
REMARK                            x       y       z     vdW  Elec       q    Type
REMARK                         _______ _______ _______ _____ _____    ______ ____
ROOT
ATOM      1  C   UNL     1       7.660   1.987  21.985  0.00  0.00    +0.179 C 
ATOM      2  O   UNL     1       6.679   1.145  22.624  0.00  0.00    -0.330 OA
ATOM      3  C   UNL     1       7.009   0.490  23.860  0.00  0.00    +0.352 C 
ATOM      4  C   UNL     1       8.435  -0.146  23.904  0.00  0.00    +0.276 C 
ATOM      5  C   UNL     1       9.445   0.891  23.394  0.00  0.00    +0.192 C 
ATOM      6  C   UNL     1       9.060   1.355  21.992  0.00  0.00    +0.178 C 
ENDROOT
BRANCH   6   7
ATOM      7  O   UNL     1      10.073   2.216  21.462  0.00  0.00    -0.386 OA
ATOM      8  H   UNL     1      10.533   1.713  20.766  0.00  0.00    +0.210 HD
ENDBRANCH   6   7
BRANCH   5   9
ATOM      9  O   UNL     1      10.774   0.348  23.363  0.00  0.00    -0.385 OA
ATOM     10  H   UNL     1      11.340   1.054  23.735  0.00  0.00    +0.210 HD
ENDBRANCH   5   9
BRANCH   4  11
ATOM     11  O   UNL     1       8.550  -1.380  23.114  0.00  0.00    -0.449 OA
BRANCH  11  12
ATOM     12  C   UNL     1       9.525  -2.255  23.511  0.00  0.00    +0.340 C 
ATOM     13  O   UNL     1      10.651  -2.333  23.036  0.00  0.00    -0.245 OA
BRANCH  12  14
ATOM     14  C   UNL     1       9.086  -3.190  24.598  0.00  0.00    +0.066 A 
ATOM     15  C   UNL     1       8.204  -2.814  25.612  0.00  0.00    +0.064 A 
ATOM     16  C   UNL     1       7.829  -3.756  26.562  0.00  0.00    +0.163 A 
ATOM     17  C   UNL     1       8.307  -5.059  26.529  0.00  0.00    +0.201 A 
ATOM     18  C   UNL     1       9.191  -5.437  25.535  0.00  0.00    +0.163 A 
ATOM     19  C   UNL     1       9.590  -4.516  24.568  0.00  0.00    +0.064 A 
BRANCH  18  20
ATOM     20  O   UNL     1       9.637  -6.736  25.546  0.00  0.00    -0.503 OA
ATOM     21  H   UNL     1       9.716  -7.025  26.474  0.00  0.00    +0.292 HD
ENDBRANCH  18  20
BRANCH  17  22
ATOM     22  O   UNL     1       7.894  -5.951  27.482  0.00  0.00    -0.501 OA
ATOM     23  H   UNL     1       8.676  -6.521  27.635  0.00  0.00    +0.292 HD
ENDBRANCH  17  22
BRANCH  16  24
ATOM     24  O   UNL     1       6.952  -3.388  27.563  0.00  0.00    -0.503 OA
ATOM     25  H   UNL     1       7.460  -2.746  28.103  0.00  0.00    +0.292 HD
ENDBRANCH  16  24
ENDBRANCH  12  14
ENDBRANCH  11  12
ENDBRANCH   4  11
BRANCH   3  26
ATOM     26  O   UNL     1       6.070  -0.579  24.132  0.00  0.00    -0.452 OA
BRANCH  26  27
ATOM     27  C   UNL     1       5.374  -0.676  25.333  0.00  0.00    +0.214 A 
ATOM     28  C   UNL     1       5.130   0.484  26.249  0.00  0.00    +0.238 A 
ATOM     29  O   UNL     1       5.725   1.542  26.114  0.00  0.00    -0.283 OA
ATOM     30  C   UNL     1       4.151   0.291  27.347  0.00  0.00    +0.109 A 
ATOM     31  C   UNL     1       3.732  -1.007  27.632  0.00  0.00    +0.147 A 
ATOM     32  C   UNL     1       2.846  -1.266  28.688  0.00  0.00    +0.092 A 
ATOM     33  C   UNL     1       2.363  -0.206  29.448  0.00  0.00    +0.124 A 
ATOM     34  C   UNL     1       2.744   1.099  29.164  0.00  0.00    +0.091 A 
ATOM     35  O   UNL     1       4.139  -2.086  26.894  0.00  0.00    -0.451 OA
ATOM     36  C   UNL     1       3.636   1.348  28.117  0.00  0.00    +0.135 A 
ATOM     37  C   UNL     1       4.815  -1.849  25.710  0.00  0.00    +0.181 A 
BRANCH  37  38
ATOM     38  C   UNL     1       4.640  -2.951  24.746  0.00  0.00    +0.025 A 
ATOM     39  C   UNL     1       3.693  -3.921  25.121  0.00  0.00    +0.015 A 
ATOM     40  C   UNL     1       3.487  -5.056  24.351  0.00  0.00    +0.050 A 
ATOM     41  C   UNL     1       4.155  -5.171  23.144  0.00  0.00    +0.158 A 
ATOM     42  C   UNL     1       5.078  -4.208  22.735  0.00  0.00    +0.159 A 
ATOM     43  C   UNL     1       5.373  -3.118  23.561  0.00  0.00    +0.060 A 
BRANCH  41  44
ATOM     44  O   UNL     1       3.838  -6.224  22.337  0.00  0.00    -0.503 OA
ATOM     45  H   UNL     1       3.056  -6.625  22.757  0.00  0.00    +0.292 HD
ENDBRANCH  41  44
BRANCH  42  46
ATOM     46  O   UNL     1       5.632  -4.339  21.492  0.00  0.00    -0.503 OA
ATOM     47  H   UNL     1       4.932  -4.461  20.834  0.00  0.00    +0.292 HD
ENDBRANCH  42  46
ENDBRANCH  37  38
BRANCH  36  48
ATOM     48  O   UNL     1       3.978   2.640  27.848  0.00  0.00    -0.506 OA
ATOM     49  H   UNL     1       4.893   2.812  28.122  0.00  0.00    +0.292 HD
ENDBRANCH  36  48
BRANCH  33  50
ATOM     50  O   UNL     1       1.499  -0.393  30.485  0.00  0.00    -0.507 OA
ATOM     51  H   UNL     1       0.646  -0.709  30.143  0.00  0.00    +0.292 HD
ENDBRANCH  33  50
ENDBRANCH  26  27
ENDBRANCH   3  26
BRANCH   1  52
ATOM     52  C   UNL     1       7.529   3.562  22.178  0.00  0.00    +0.197 C 
BRANCH  52  53
ATOM     53  O   UNL     1       6.664   4.064  23.209  0.00  0.00    -0.346 OA
BRANCH  53  57
ATOM     54  C   UNL     1       3.446   6.863  22.052  0.00  0.00    +0.041 C 
ATOM     55  C   UNL     1       3.368   5.876  23.222  0.00  0.00    +0.149 C 
ATOM     56  O   UNL     1       4.663   5.385  23.640  0.00  0.00    -0.343 OA
ATOM     57  C   UNL     1       5.296   4.413  22.793  0.00  0.00    +0.282 C 
ATOM     58  C   UNL     1       4.348   3.200  22.519  0.00  0.00    +0.201 C 
ATOM     59  C   UNL     1       2.986   3.704  21.987  0.00  0.00    +0.179 C 
ATOM     60  C   UNL     1       2.368   4.744  22.932  0.00  0.00    +0.174 C 
BRANCH  58  61
ATOM     61  O   UNL     1       4.101   2.429  23.714  0.00  0.00    -0.384 OA
ATOM     62  H   UNL     1       4.275   3.040  24.456  0.00  0.00    +0.210 HD
ENDBRANCH  58  61
BRANCH  59  63
ATOM     63  O   UNL     1       2.080   2.597  21.837  0.00  0.00    -0.386 OA
ATOM     64  H   UNL     1       1.181   2.987  21.865  0.00  0.00    +0.210 HD
ENDBRANCH  59  63
BRANCH  60  65
ATOM     65  O   UNL     1       1.983   4.092  24.156  0.00  0.00    -0.387 OA
ATOM     66  H   UNL     1       2.428   3.217  24.153  0.00  0.00    +0.210 HD
ENDBRANCH  60  65
ENDBRANCH  53  57
ENDBRANCH  52  53
ENDBRANCH   1  52
TORSDOF 21
ENDMDL
MODEL 9
REMARK VINA RESULT:      -6.7      2.010      5.840
REMARK  Name = 
REMARK  22 active torsions:
REMARK  status: ('A' for Active; 'I' for Inactive)
REMARK    1  A    between atoms: C_1  and  C_2
REMARK    2  A    between atoms: C_3  and  O_60
REMARK    3  A    between atoms: C_5  and  O_59
REMARK    4  A    between atoms: C_6  and  O_58
REMARK    5  A    between atoms: C_8  and  O_11
REMARK    6  A    between atoms: O_11  and  C_12
REMARK    7  A    between atoms: C_12  and  C_13
REMARK    8  A    between atoms: C_14  and  O_57
REMARK    9  A    between atoms: C_16  and  O_56
REMARK   10  A    between atoms: C_18  and  O_44
REMARK   11  A    between atoms: C_19  and  O_22
REMARK   12  A    between atoms: O_22  and  C_23
REMARK   13  A    between atoms: C_24  and  C_36
REMARK   14  A    between atoms: C_28  and  O_35
REMARK   15  A    between atoms: C_30  and  O_34
REMARK   16  A    between atoms: C_38  and  O_43
REMARK   17  A    between atoms: C_39  and  O_42
REMARK   18  A    between atoms: O_44  and  C_45
REMARK   19  A    between atoms: C_45  and  C_47
REMARK   20  A    between atoms: C_49  and  O_55
REMARK   21  A    between atoms: C_50  and  O_54
REMARK   22  A    between atoms: C_51  and  O_53
REMARK                            x       y       z     vdW  Elec       q    Type
REMARK                         _______ _______ _______ _____ _____    ______ ____
ROOT
ATOM      1  C   UNL     1       4.040   1.664  28.612  0.00  0.00    +0.179 C 
ATOM      2  O   UNL     1       4.849   0.668  27.954  0.00  0.00    -0.330 OA
ATOM      3  C   UNL     1       4.225  -0.275  27.068  0.00  0.00    +0.352 C 
ATOM      4  C   UNL     1       2.878  -0.873  27.588  0.00  0.00    +0.276 C 
ATOM      5  C   UNL     1       1.996   0.280  28.085  0.00  0.00    +0.192 C 
ATOM      6  C   UNL     1       2.729   1.080  29.159  0.00  0.00    +0.178 C 
ENDROOT
BRANCH   6   7
ATOM      7  O   UNL     1       1.859   2.067  29.718  0.00  0.00    -0.386 OA
ATOM      8  H   UNL     1       1.023   2.021  29.219  0.00  0.00    +0.210 HD
ENDBRANCH   6   7
BRANCH   5   9
ATOM      9  O   UNL     1       0.759  -0.211  28.624  0.00  0.00    -0.385 OA
ATOM     10  H   UNL     1       0.409   0.530  29.160  0.00  0.00    +0.210 HD
ENDBRANCH   5   9
BRANCH   4  11
ATOM     11  O   UNL     1       3.054  -1.861  28.662  0.00  0.00    -0.449 OA
BRANCH  11  12
ATOM     12  C   UNL     1       2.317  -3.008  28.543  0.00  0.00    +0.340 C 
ATOM     13  O   UNL     1       1.098  -3.066  28.440  0.00  0.00    -0.245 OA
BRANCH  12  14
ATOM     14  C   UNL     1       3.141  -4.259  28.592  0.00  0.00    +0.066 A 
ATOM     15  C   UNL     1       2.581  -5.532  28.704  0.00  0.00    +0.064 A 
ATOM     16  C   UNL     1       3.422  -6.640  28.711  0.00  0.00    +0.163 A 
ATOM     17  C   UNL     1       4.800  -6.513  28.610  0.00  0.00    +0.201 A 
ATOM     18  C   UNL     1       5.365  -5.254  28.511  0.00  0.00    +0.163 A 
ATOM     19  C   UNL     1       4.551  -4.123  28.503  0.00  0.00    +0.064 A 
BRANCH  18  20
ATOM     20  O   UNL     1       6.732  -5.180  28.415  0.00  0.00    -0.503 OA
ATOM     21  H   UNL     1       6.985  -5.356  27.490  0.00  0.00    +0.292 HD
ENDBRANCH  18  20
BRANCH  17  22
ATOM     22  O   UNL     1       5.580  -7.638  28.609  0.00  0.00    -0.501 OA
ATOM     23  H   UNL     1       6.207  -7.497  27.869  0.00  0.00    +0.292 HD
ENDBRANCH  17  22
BRANCH  16  24
ATOM     24  O   UNL     1       2.869  -7.901  28.816  0.00  0.00    -0.503 OA
ATOM     25  H   UNL     1       3.645  -8.498  28.870  0.00  0.00    +0.292 HD
ENDBRANCH  16  24
ENDBRANCH  12  14
ENDBRANCH  11  12
ENDBRANCH   4  11
BRANCH   3  26
ATOM     26  O   UNL     1       5.108  -1.396  26.818  0.00  0.00    -0.452 OA
BRANCH  26  27
ATOM     27  C   UNL     1       6.014  -1.416  25.763  0.00  0.00    +0.214 A 
ATOM     28  C   UNL     1       7.226  -0.538  25.692  0.00  0.00    +0.238 A 
ATOM     29  O   UNL     1       7.372   0.413  26.443  0.00  0.00    -0.283 OA
ATOM     30  C   UNL     1       8.238  -0.856  24.653  0.00  0.00    +0.109 A 
ATOM     31  C   UNL     1       7.885  -1.752  23.647  0.00  0.00    +0.147 A 
ATOM     32  C   UNL     1       8.774  -2.059  22.607  0.00  0.00    +0.092 A 
ATOM     33  C   UNL     1      10.036  -1.474  22.594  0.00  0.00    +0.124 A 
ATOM     34  C   UNL     1      10.420  -0.600  23.602  0.00  0.00    +0.091 A 
ATOM     35  O   UNL     1       6.674  -2.392  23.627  0.00  0.00    -0.451 OA
ATOM     36  C   UNL     1       9.524  -0.291  24.629  0.00  0.00    +0.135 A 
ATOM     37  C   UNL     1       5.870  -2.300  24.750  0.00  0.00    +0.181 A 
BRANCH  37  38
ATOM     38  C   UNL     1       4.970  -3.462  24.878  0.00  0.00    +0.025 A 
ATOM     39  C   UNL     1       5.615  -4.711  24.913  0.00  0.00    +0.015 A 
ATOM     40  C   UNL     1       4.890  -5.892  24.945  0.00  0.00    +0.050 A 
ATOM     41  C   UNL     1       3.511  -5.822  25.051  0.00  0.00    +0.158 A 
ATOM     42  C   UNL     1       2.848  -4.594  25.048  0.00  0.00    +0.159 A 
ATOM     43  C   UNL     1       3.568  -3.404  24.901  0.00  0.00    +0.060 A 
BRANCH  41  44
ATOM     44  O   UNL     1       2.824  -6.988  25.220  0.00  0.00    -0.503 OA
ATOM     45  H   UNL     1       2.925  -7.194  26.166  0.00  0.00    +0.292 HD
ENDBRANCH  41  44
BRANCH  42  46
ATOM     46  O   UNL     1       1.495  -4.597  25.248  0.00  0.00    -0.503 OA
ATOM     47  H   UNL     1       1.058  -4.116  24.530  0.00  0.00    +0.292 HD
ENDBRANCH  42  46
ENDBRANCH  37  38
BRANCH  36  48
ATOM     48  O   UNL     1       9.934   0.555  25.618  0.00  0.00    -0.506 OA
ATOM     49  H   UNL     1      10.742   1.021  25.351  0.00  0.00    +0.292 HD
ENDBRANCH  36  48
BRANCH  33  50
ATOM     50  O   UNL     1      10.945  -1.734  21.613  0.00  0.00    -0.507 OA
ATOM     51  H   UNL     1      11.144  -2.685  21.599  0.00  0.00    +0.292 HD
ENDBRANCH  33  50
ENDBRANCH  26  27
ENDBRANCH   3  26
BRANCH   1  52
ATOM     52  C   UNL     1       4.028   3.134  28.000  0.00  0.00    +0.197 C 
BRANCH  52  53
ATOM     53  O   UNL     1       3.740   3.302  26.604  0.00  0.00    -0.346 OA
BRANCH  53  57
ATOM     54  C   UNL     1       7.765   4.539  25.263  0.00  0.00    +0.041 C 
ATOM     55  C   UNL     1       6.487   4.665  24.427  0.00  0.00    +0.149 C 
ATOM     56  O   UNL     1       5.279   4.584  25.217  0.00  0.00    -0.343 OA
ATOM     57  C   UNL     1       4.900   3.284  25.697  0.00  0.00    +0.282 C 
ATOM     58  C   UNL     1       4.820   2.251  24.527  0.00  0.00    +0.201 C 
ATOM     59  C   UNL     1       6.142   2.262  23.723  0.00  0.00    +0.179 C 
ATOM     60  C   UNL     1       6.494   3.678  23.247  0.00  0.00    +0.174 C 
BRANCH  58  61
ATOM     61  O   UNL     1       3.743   2.551  23.615  0.00  0.00    -0.384 OA
ATOM     62  H   UNL     1       2.957   2.110  23.990  0.00  0.00    +0.210 HD
ENDBRANCH  58  61
BRANCH  59  63
ATOM     63  O   UNL     1       6.029   1.390  22.585  0.00  0.00    -0.386 OA
ATOM     64  H   UNL     1       6.799   1.599  22.016  0.00  0.00    +0.210 HD
ENDBRANCH  59  63
BRANCH  60  65
ATOM     65  O   UNL     1       5.539   4.086  22.250  0.00  0.00    -0.387 OA
ATOM     66  H   UNL     1       6.038   4.623  21.597  0.00  0.00    +0.210 HD
ENDBRANCH  60  65
ENDBRANCH  53  57
ENDBRANCH  52  53
ENDBRANCH   1  52
TORSDOF 21
ENDMDL
