MODEL 1
REMARK VINA RESULT:      -8.0      0.000      0.000
REMARK  Name = 
REMARK  12 active torsions:
REMARK  status: ('A' for Active; 'I' for Inactive)
REMARK    1  A    between atoms: C_3  and  O_33
REMARK    2  A    between atoms: C_4  and  O_32
REMARK    3  A    between atoms: C_6  and  C_7
REMARK    4  A    between atoms: C_8  and  O_31
REMARK    5  A    between atoms: C_12  and  O_30
REMARK    6  A    between atoms: C_14  and  O_18
REMARK    7  A    between atoms: O_18  and  C_19
REMARK    8  A    between atoms: C_20  and  O_29
REMARK    9  A    between atoms: C_21  and  O_28
REMARK   10  A    between atoms: C_22  and  O_27
REMARK   11  A    between atoms: C_23  and  C_25
REMARK   12  A    between atoms: C_25  and  O_26
REMARK                            x       y       z     vdW  Elec       q    Type
REMARK                         _______ _______ _______ _____ _____    ______ ____
ROOT
ATOM      1  C   UNL     1       6.940  -4.093  24.459  0.00  0.00    +0.181 A 
ATOM      2  O   UNL     1       6.313  -2.832  24.442  0.00  0.00    -0.451 OA
ATOM      3  C   UNL     1       7.081  -1.709  24.183  0.00  0.00    +0.147 A 
ATOM      4  C   UNL     1       8.458  -1.794  24.000  0.00  0.00    +0.109 A 
ATOM      5  C   UNL     1       9.216  -0.649  23.760  0.00  0.00    +0.135 A 
ATOM      6  C   UNL     1       8.604   0.587  23.709  0.00  0.00    +0.092 A 
ATOM      7  C   UNL     1       7.222   0.720  23.920  0.00  0.00    +0.131 A 
ATOM      8  C   UNL     1       9.115  -3.093  24.039  0.00  0.00    +0.238 A 
ATOM      9  O   UNL     1      10.334  -3.175  23.904  0.00  0.00    -0.283 OA
ATOM     10  C   UNL     1       6.455  -0.445  24.130  0.00  0.00    +0.093 A 
ATOM     11  C   UNL     1       8.255  -4.277  24.213  0.00  0.00    +0.208 A 
ENDROOT
BRANCH   1  13
ATOM     12  C   UNL     1       5.201  -5.795  23.711  0.00  0.00    +0.015 A 
ATOM     13  C   UNL     1       6.031  -5.254  24.726  0.00  0.00    +0.025 A 
ATOM     14  C   UNL     1       5.939  -5.822  26.003  0.00  0.00    +0.060 A 
ATOM     15  C   UNL     1       4.986  -6.808  26.260  0.00  0.00    +0.159 A 
ATOM     16  C   UNL     1       4.109  -7.248  25.271  0.00  0.00    +0.158 A 
ATOM     17  C   UNL     1       4.221  -6.758  23.984  0.00  0.00    +0.050 A 
BRANCH  15  18
ATOM     18  O   UNL     1       4.895  -7.333  27.518  0.00  0.00    -0.503 OA
ATOM     19  H   UNL     1       5.770  -7.156  27.923  0.00  0.00    +0.292 HD
ENDBRANCH  15  18
BRANCH  16  20
ATOM     20  O   UNL     1       3.155  -8.163  25.619  0.00  0.00    -0.503 OA
ATOM     21  H   UNL     1       2.406  -8.077  25.002  0.00  0.00    +0.292 HD
ENDBRANCH  16  20
ENDBRANCH   1  13
BRANCH   5  22
ATOM     22  O   UNL     1      10.574  -0.653  23.592  0.00  0.00    -0.506 OA
ATOM     23  H   UNL     1      10.796  -1.326  22.908  0.00  0.00    +0.292 HD
ENDBRANCH   5  22
BRANCH  11  24
ATOM     24  O   UNL     1       8.896  -5.496  24.087  0.00  0.00    -0.501 OA
ATOM     25  H   UNL     1       8.517  -6.106  24.741  0.00  0.00    +0.292 HD
ENDBRANCH  11  24
BRANCH   7  26
ATOM     26  O   UNL     1       6.577   1.952  23.968  0.00  0.00    -0.461 OA
BRANCH  26  27
ATOM     27  C   UNL     1       6.660   2.689  22.724  0.00  0.00    +0.339 C 
ATOM     28  O   UNL     1       7.882   3.453  22.699  0.00  0.00    -0.331 OA
ATOM     29  C   UNL     1       7.794   4.592  23.576  0.00  0.00    +0.179 C 
ATOM     30  C   UNL     1       6.881   5.592  22.866  0.00  0.00    +0.177 C 
ATOM     31  C   UNL     1       5.470   5.005  22.871  0.00  0.00    +0.180 C 
ATOM     32  C   UNL     1       5.437   3.567  22.328  0.00  0.00    +0.214 C 
BRANCH  30  33
ATOM     33  O   UNL     1       7.248   5.767  21.484  0.00  0.00    -0.386 OA
ATOM     34  H   UNL     1       8.062   6.312  21.470  0.00  0.00    +0.210 HD
ENDBRANCH  30  33
BRANCH  31  35
ATOM     35  O   UNL     1       4.625   5.828  22.041  0.00  0.00    -0.386 OA
ATOM     36  H   UNL     1       4.658   6.723  22.442  0.00  0.00    +0.210 HD
ENDBRANCH  31  35
BRANCH  32  37
ATOM     37  O   UNL     1       4.191   2.936  22.638  0.00  0.00    -0.383 OA
ATOM     38  H   UNL     1       4.196   2.076  22.177  0.00  0.00    +0.210 HD
ENDBRANCH  32  37
BRANCH  29  39
ATOM     39  C   UNL     1       9.207   5.111  23.831  0.00  0.00    +0.190 C 
BRANCH  39  40
ATOM     40  O   UNL     1       9.534   6.154  22.920  0.00  0.00    -0.392 OA
ATOM     41  H   UNL     1       9.227   5.842  22.047  0.00  0.00    +0.210 HD
ENDBRANCH  39  40
ENDBRANCH  29  39
ENDBRANCH  26  27
ENDBRANCH   7  26
TORSDOF 12
ENDMDL
MODEL 2
REMARK VINA RESULT:      -7.9      0.629      1.247
REMARK  Name = 
REMARK  12 active torsions:
REMARK  status: ('A' for Active; 'I' for Inactive)
REMARK    1  A    between atoms: C_3  and  O_33
REMARK    2  A    between atoms: C_4  and  O_32
REMARK    3  A    between atoms: C_6  and  C_7
REMARK    4  A    between atoms: C_8  and  O_31
REMARK    5  A    between atoms: C_12  and  O_30
REMARK    6  A    between atoms: C_14  and  O_18
REMARK    7  A    between atoms: O_18  and  C_19
REMARK    8  A    between atoms: C_20  and  O_29
REMARK    9  A    between atoms: C_21  and  O_28
REMARK   10  A    between atoms: C_22  and  O_27
REMARK   11  A    between atoms: C_23  and  C_25
REMARK   12  A    between atoms: C_25  and  O_26
REMARK                            x       y       z     vdW  Elec       q    Type
REMARK                         _______ _______ _______ _____ _____    ______ ____
ROOT
ATOM      1  C   UNL     1       6.804  -3.833  24.402  0.00  0.00    +0.181 A 
ATOM      2  O   UNL     1       6.278  -2.527  24.402  0.00  0.00    -0.451 OA
ATOM      3  C   UNL     1       7.133  -1.465  24.158  0.00  0.00    +0.147 A 
ATOM      4  C   UNL     1       8.500  -1.655  23.974  0.00  0.00    +0.109 A 
ATOM      5  C   UNL     1       9.346  -0.571  23.749  0.00  0.00    +0.135 A 
ATOM      6  C   UNL     1       8.833   0.711  23.715  0.00  0.00    +0.092 A 
ATOM      7  C   UNL     1       7.466   0.949  23.927  0.00  0.00    +0.131 A 
ATOM      8  C   UNL     1       9.052  -3.002  23.997  0.00  0.00    +0.238 A 
ATOM      9  O   UNL     1      10.261  -3.178  23.861  0.00  0.00    -0.283 OA
ATOM     10  C   UNL     1       6.609  -0.155  24.121  0.00  0.00    +0.093 A 
ATOM     11  C   UNL     1       8.101  -4.117  24.155  0.00  0.00    +0.208 A 
ENDROOT
BRANCH   1  13
ATOM     12  C   UNL     1       5.731  -5.586  25.904  0.00  0.00    +0.015 A 
ATOM     13  C   UNL     1       5.806  -4.922  24.654  0.00  0.00    +0.025 A 
ATOM     14  C   UNL     1       4.935  -5.352  23.644  0.00  0.00    +0.060 A 
ATOM     15  C   UNL     1       4.113  -6.459  23.858  0.00  0.00    +0.159 A 
ATOM     16  C   UNL     1       4.134  -7.160  25.061  0.00  0.00    +0.158 A 
ATOM     17  C   UNL     1       4.931  -6.719  26.101  0.00  0.00    +0.050 A 
BRANCH  15  18
ATOM     18  O   UNL     1       3.287  -6.877  22.853  0.00  0.00    -0.503 OA
ATOM     19  H   UNL     1       2.383  -6.702  23.188  0.00  0.00    +0.292 HD
ENDBRANCH  15  18
BRANCH  16  20
ATOM     20  O   UNL     1       3.354  -8.276  25.169  0.00  0.00    -0.503 OA
ATOM     21  H   UNL     1       2.485  -8.084  24.771  0.00  0.00    +0.292 HD
ENDBRANCH  16  20
ENDBRANCH   1  13
BRANCH   5  22
ATOM     22  O   UNL     1      10.699  -0.679  23.582  0.00  0.00    -0.506 OA
ATOM     23  H   UNL     1      11.049   0.207  23.333  0.00  0.00    +0.292 HD
ENDBRANCH   5  22
BRANCH  11  24
ATOM     24  O   UNL     1       8.644  -5.381  24.013  0.00  0.00    -0.501 OA
ATOM     25  H   UNL     1       8.501  -5.867  24.843  0.00  0.00    +0.292 HD
ENDBRANCH  11  24
BRANCH   7  26
ATOM     26  O   UNL     1       6.920   2.227  23.990  0.00  0.00    -0.461 OA
BRANCH  26  27
ATOM     27  C   UNL     1       7.029   2.958  22.745  0.00  0.00    +0.339 C 
ATOM     28  O   UNL     1       8.188   3.815  22.791  0.00  0.00    -0.331 OA
ATOM     29  C   UNL     1       7.953   4.951  23.645  0.00  0.00    +0.179 C 
ATOM     30  C   UNL     1       7.015   5.871  22.862  0.00  0.00    +0.177 C 
ATOM     31  C   UNL     1       5.657   5.175  22.780  0.00  0.00    +0.180 C 
ATOM     32  C   UNL     1       5.772   3.735  22.256  0.00  0.00    +0.214 C 
BRANCH  30  33
ATOM     33  O   UNL     1       7.460   6.063  21.506  0.00  0.00    -0.386 OA
ATOM     34  H   UNL     1       6.758   5.710  20.921  0.00  0.00    +0.210 HD
ENDBRANCH  30  33
BRANCH  31  35
ATOM     35  O   UNL     1       4.809   5.923  21.885  0.00  0.00    -0.386 OA
ATOM     36  H   UNL     1       5.417   6.337  21.235  0.00  0.00    +0.210 HD
ENDBRANCH  31  35
BRANCH  32  37
ATOM     37  O   UNL     1       4.561   3.011  22.490  0.00  0.00    -0.383 OA
ATOM     38  H   UNL     1       4.189   2.804  21.612  0.00  0.00    +0.210 HD
ENDBRANCH  32  37
BRANCH  29  39
ATOM     39  C   UNL     1       9.300   5.581  23.988  0.00  0.00    +0.190 C 
BRANCH  39  40
ATOM     40  O   UNL     1       9.985   5.980  22.807  0.00  0.00    -0.392 OA
ATOM     41  H   UNL     1      10.912   5.701  22.937  0.00  0.00    +0.210 HD
ENDBRANCH  39  40
ENDBRANCH  29  39
ENDBRANCH  26  27
ENDBRANCH   7  26
TORSDOF 12
ENDMDL
MODEL 3
REMARK VINA RESULT:      -7.7      1.548      2.869
REMARK  Name = 
REMARK  12 active torsions:
REMARK  status: ('A' for Active; 'I' for Inactive)
REMARK    1  A    between atoms: C_3  and  O_33
REMARK    2  A    between atoms: C_4  and  O_32
REMARK    3  A    between atoms: C_6  and  C_7
REMARK    4  A    between atoms: C_8  and  O_31
REMARK    5  A    between atoms: C_12  and  O_30
REMARK    6  A    between atoms: C_14  and  O_18
REMARK    7  A    between atoms: O_18  and  C_19
REMARK    8  A    between atoms: C_20  and  O_29
REMARK    9  A    between atoms: C_21  and  O_28
REMARK   10  A    between atoms: C_22  and  O_27
REMARK   11  A    between atoms: C_23  and  C_25
REMARK   12  A    between atoms: C_25  and  O_26
REMARK                            x       y       z     vdW  Elec       q    Type
REMARK                         _______ _______ _______ _____ _____    ______ ____
ROOT
ATOM      1  C   UNL     1       6.933  -4.387  25.835  0.00  0.00    +0.181 A 
ATOM      2  O   UNL     1       6.408  -3.195  25.299  0.00  0.00    -0.451 OA
ATOM      3  C   UNL     1       7.199  -2.444  24.445  0.00  0.00    +0.147 A 
ATOM      4  C   UNL     1       8.512  -2.808  24.157  0.00  0.00    +0.109 A 
ATOM      5  C   UNL     1       9.297  -2.027  23.311  0.00  0.00    +0.135 A 
ATOM      6  C   UNL     1       8.779  -0.874  22.755  0.00  0.00    +0.092 A 
ATOM      7  C   UNL     1       7.472  -0.455  23.046  0.00  0.00    +0.131 A 
ATOM      8  C   UNL     1       9.066  -4.028  24.727  0.00  0.00    +0.238 A 
ATOM      9  O   UNL     1      10.232  -4.344  24.498  0.00  0.00    -0.283 OA
ATOM     10  C   UNL     1       6.670  -1.266  23.876  0.00  0.00    +0.093 A 
ATOM     11  C   UNL     1       8.165  -4.858  25.547  0.00  0.00    +0.208 A 
ENDROOT
BRANCH   1  13
ATOM     12  C   UNL     1       6.099  -5.066  28.142  0.00  0.00    +0.015 A 
ATOM     13  C   UNL     1       6.002  -5.147  26.730  0.00  0.00    +0.025 A 
ATOM     14  C   UNL     1       5.025  -6.000  26.201  0.00  0.00    +0.060 A 
ATOM     15  C   UNL     1       4.265  -6.802  27.052  0.00  0.00    +0.159 A 
ATOM     16  C   UNL     1       4.452  -6.781  28.432  0.00  0.00    +0.158 A 
ATOM     17  C   UNL     1       5.359  -5.900  28.990  0.00  0.00    +0.050 A 
BRANCH  15  18
ATOM     18  O   UNL     1       3.332  -7.644  26.516  0.00  0.00    -0.503 OA
ATOM     19  H   UNL     1       3.408  -7.512  25.548  0.00  0.00    +0.292 HD
ENDBRANCH  15  18
BRANCH  16  20
ATOM     20  O   UNL     1       3.721  -7.648  29.194  0.00  0.00    -0.503 OA
ATOM     21  H   UNL     1       4.078  -7.639  30.100  0.00  0.00    +0.292 HD
ENDBRANCH  16  20
ENDBRANCH   1  13
BRANCH   5  22
ATOM     22  O   UNL     1      10.599  -2.311  23.000  0.00  0.00    -0.506 OA
ATOM     23  H   UNL     1      10.646  -3.249  22.704  0.00  0.00    +0.292 HD
ENDBRANCH   5  22
BRANCH  11  24
ATOM     24  O   UNL     1       8.681  -6.081  25.936  0.00  0.00    -0.501 OA
ATOM     25  H   UNL     1       7.983  -6.567  26.406  0.00  0.00    +0.292 HD
ENDBRANCH  11  24
BRANCH   7  26
ATOM     26  O   UNL     1       6.939   0.744  22.582  0.00  0.00    -0.461 OA
BRANCH  26  27
ATOM     27  C   UNL     1       7.326   1.889  23.380  0.00  0.00    +0.339 C 
ATOM     28  O   UNL     1       6.180   2.377  24.106  0.00  0.00    -0.331 OA
ATOM     29  C   UNL     1       5.272   3.070  23.228  0.00  0.00    +0.179 C 
ATOM     30  C   UNL     1       5.939   4.411  22.918  0.00  0.00    +0.177 C 
ATOM     31  C   UNL     1       7.160   4.122  22.045  0.00  0.00    +0.180 C 
ATOM     32  C   UNL     1       8.072   3.048  22.658  0.00  0.00    +0.214 C 
BRANCH  30  33
ATOM     33  O   UNL     1       6.429   5.055  24.109  0.00  0.00    -0.386 OA
ATOM     34  H   UNL     1       7.115   5.695  23.828  0.00  0.00    +0.210 HD
ENDBRANCH  30  33
BRANCH  31  35
ATOM     35  O   UNL     1       7.920   5.339  21.897  0.00  0.00    -0.386 OA
ATOM     36  H   UNL     1       8.083   5.657  22.811  0.00  0.00    +0.210 HD
ENDBRANCH  31  35
BRANCH  32  37
ATOM     37  O   UNL     1       9.014   2.570  21.692  0.00  0.00    -0.383 OA
ATOM     38  H   UNL     1       9.529   3.347  21.403  0.00  0.00    +0.210 HD
ENDBRANCH  32  37
BRANCH  29  39
ATOM     39  C   UNL     1       3.923   3.193  23.931  0.00  0.00    +0.190 C 
BRANCH  39  40
ATOM     40  O   UNL     1       2.887   2.630  23.136  0.00  0.00    -0.392 OA
ATOM     41  H   UNL     1       3.219   2.656  22.218  0.00  0.00    +0.210 HD
ENDBRANCH  39  40
ENDBRANCH  29  39
ENDBRANCH  26  27
ENDBRANCH   7  26
TORSDOF 12
ENDMDL
MODEL 4
REMARK VINA RESULT:      -7.6      2.030      9.379
REMARK  Name = 
REMARK  12 active torsions:
REMARK  status: ('A' for Active; 'I' for Inactive)
REMARK    1  A    between atoms: C_3  and  O_33
REMARK    2  A    between atoms: C_4  and  O_32
REMARK    3  A    between atoms: C_6  and  C_7
REMARK    4  A    between atoms: C_8  and  O_31
REMARK    5  A    between atoms: C_12  and  O_30
REMARK    6  A    between atoms: C_14  and  O_18
REMARK    7  A    between atoms: O_18  and  C_19
REMARK    8  A    between atoms: C_20  and  O_29
REMARK    9  A    between atoms: C_21  and  O_28
REMARK   10  A    between atoms: C_22  and  O_27
REMARK   11  A    between atoms: C_23  and  C_25
REMARK   12  A    between atoms: C_25  and  O_26
REMARK                            x       y       z     vdW  Elec       q    Type
REMARK                         _______ _______ _______ _____ _____    ______ ____
ROOT
ATOM      1  C   UNL     1       8.415  -0.349  23.941  0.00  0.00    +0.181 A 
ATOM      2  O   UNL     1       7.586  -0.913  24.930  0.00  0.00    -0.451 OA
ATOM      3  C   UNL     1       7.886  -2.178  25.409  0.00  0.00    +0.147 A 
ATOM      4  C   UNL     1       8.945  -2.921  24.894  0.00  0.00    +0.109 A 
ATOM      5  C   UNL     1       9.217  -4.200  25.376  0.00  0.00    +0.135 A 
ATOM      6  C   UNL     1       8.429  -4.747  26.369  0.00  0.00    +0.092 A 
ATOM      7  C   UNL     1       7.333  -4.044  26.892  0.00  0.00    +0.131 A 
ATOM      8  C   UNL     1       9.791  -2.351  23.855  0.00  0.00    +0.238 A 
ATOM      9  O   UNL     1      10.712  -3.010  23.376  0.00  0.00    -0.283 OA
ATOM     10  C   UNL     1       7.081  -2.738  26.425  0.00  0.00    +0.093 A 
ATOM     11  C   UNL     1       9.508  -0.965  23.442  0.00  0.00    +0.208 A 
ENDROOT
BRANCH   1  13
ATOM     12  C   UNL     1       6.815   1.275  22.809  0.00  0.00    +0.015 A 
ATOM     13  C   UNL     1       8.030   1.029  23.497  0.00  0.00    +0.025 A 
ATOM     14  C   UNL     1       8.880   2.122  23.711  0.00  0.00    +0.060 A 
ATOM     15  C   UNL     1       8.565   3.367  23.166  0.00  0.00    +0.159 A 
ATOM     16  C   UNL     1       7.416   3.558  22.403  0.00  0.00    +0.158 A 
ATOM     17  C   UNL     1       6.522   2.517  22.233  0.00  0.00    +0.050 A 
BRANCH  15  18
ATOM     18  O   UNL     1       9.418   4.415  23.367  0.00  0.00    -0.503 OA
ATOM     19  H   UNL     1      10.295   3.998  23.498  0.00  0.00    +0.292 HD
ENDBRANCH  15  18
BRANCH  16  20
ATOM     20  O   UNL     1       7.213   4.787  21.843  0.00  0.00    -0.503 OA
ATOM     21  H   UNL     1       7.999   5.018  21.314  0.00  0.00    +0.292 HD
ENDBRANCH  16  20
ENDBRANCH   1  13
BRANCH   5  22
ATOM     22  O   UNL     1      10.225  -4.995  24.904  0.00  0.00    -0.506 OA
ATOM     23  H   UNL     1      10.978  -4.415  24.646  0.00  0.00    +0.292 HD
ENDBRANCH   5  22
BRANCH  11  24
ATOM     24  O   UNL     1      10.429  -0.409  22.571  0.00  0.00    -0.501 OA
ATOM     25  H   UNL     1      10.749  -1.112  21.981  0.00  0.00    +0.292 HD
ENDBRANCH  11  24
BRANCH   7  26
ATOM     26  O   UNL     1       6.459  -4.590  27.827  0.00  0.00    -0.461 OA
BRANCH  26  27
ATOM     27  C   UNL     1       5.893  -5.856  27.411  0.00  0.00    +0.339 C 
ATOM     28  O   UNL     1       4.887  -5.624  26.404  0.00  0.00    -0.331 OA
ATOM     29  C   UNL     1       3.690  -5.078  26.991  0.00  0.00    +0.179 C 
ATOM     30  C   UNL     1       3.020  -6.241  27.724  0.00  0.00    +0.177 C 
ATOM     31  C   UNL     1       3.900  -6.590  28.924  0.00  0.00    +0.180 C 
ATOM     32  C   UNL     1       5.369  -6.809  28.524  0.00  0.00    +0.214 C 
BRANCH  30  33
ATOM     33  O   UNL     1       2.953  -7.424  26.906  0.00  0.00    -0.386 OA
ATOM     34  H   UNL     1       2.805  -8.182  27.510  0.00  0.00    +0.210 HD
ENDBRANCH  30  33
BRANCH  31  35
ATOM     35  O   UNL     1       3.403  -7.804  29.523  0.00  0.00    -0.386 OA
ATOM     36  H   UNL     1       2.789  -7.512  30.231  0.00  0.00    +0.210 HD
ENDBRANCH  31  35
BRANCH  32  37
ATOM     37  O   UNL     1       6.214  -6.813  29.678  0.00  0.00    -0.383 OA
ATOM     38  H   UNL     1       6.735  -7.637  29.635  0.00  0.00    +0.210 HD
ENDBRANCH  32  37
BRANCH  29  39
ATOM     39  C   UNL     1       2.841  -4.475  25.875  0.00  0.00    +0.190 C 
BRANCH  39  40
ATOM     40  O   UNL     1       2.747  -5.369  24.773  0.00  0.00    -0.392 OA
ATOM     41  H   UNL     1       3.561  -5.908  24.804  0.00  0.00    +0.210 HD
ENDBRANCH  39  40
ENDBRANCH  29  39
ENDBRANCH  26  27
ENDBRANCH   7  26
TORSDOF 12
ENDMDL
MODEL 5
REMARK VINA RESULT:      -7.4      1.830      9.076
REMARK  Name = 
REMARK  12 active torsions:
REMARK  status: ('A' for Active; 'I' for Inactive)
REMARK    1  A    between atoms: C_3  and  O_33
REMARK    2  A    between atoms: C_4  and  O_32
REMARK    3  A    between atoms: C_6  and  C_7
REMARK    4  A    between atoms: C_8  and  O_31
REMARK    5  A    between atoms: C_12  and  O_30
REMARK    6  A    between atoms: C_14  and  O_18
REMARK    7  A    between atoms: O_18  and  C_19
REMARK    8  A    between atoms: C_20  and  O_29
REMARK    9  A    between atoms: C_21  and  O_28
REMARK   10  A    between atoms: C_22  and  O_27
REMARK   11  A    between atoms: C_23  and  C_25
REMARK   12  A    between atoms: C_25  and  O_26
REMARK                            x       y       z     vdW  Elec       q    Type
REMARK                         _______ _______ _______ _____ _____    ______ ____
ROOT
ATOM      1  C   UNL     1       7.049   2.180  23.052  0.00  0.00    +0.181 A 
ATOM      2  O   UNL     1       6.409   0.945  23.270  0.00  0.00    -0.451 OA
ATOM      3  C   UNL     1       7.101  -0.222  22.991  0.00  0.00    +0.147 A 
ATOM      4  C   UNL     1       8.382  -0.199  22.448  0.00  0.00    +0.109 A 
ATOM      5  C   UNL     1       9.054  -1.385  22.156  0.00  0.00    +0.135 A 
ATOM      6  C   UNL     1       8.445  -2.601  22.397  0.00  0.00    +0.092 A 
ATOM      7  C   UNL     1       7.142  -2.668  22.914  0.00  0.00    +0.131 A 
ATOM      8  C   UNL     1       9.040   1.076  22.200  0.00  0.00    +0.238 A 
ATOM      9  O   UNL     1      10.161   1.107  21.697  0.00  0.00    -0.283 OA
ATOM     10  C   UNL     1       6.480  -1.466  23.239  0.00  0.00    +0.093 A 
ATOM     11  C   UNL     1       8.318   2.296  22.604  0.00  0.00    +0.208 A 
ENDROOT
BRANCH   1  13
ATOM     12  C   UNL     1       6.298   3.980  24.688  0.00  0.00    +0.015 A 
ATOM     13  C   UNL     1       6.236   3.389  23.401  0.00  0.00    +0.025 A 
ATOM     14  C   UNL     1       5.352   3.958  22.474  0.00  0.00    +0.060 A 
ATOM     15  C   UNL     1       4.505   4.995  22.866  0.00  0.00    +0.159 A 
ATOM     16  C   UNL     1       4.511   5.487  24.169  0.00  0.00    +0.158 A 
ATOM     17  C   UNL     1       5.420   4.996  25.086  0.00  0.00    +0.050 A 
BRANCH  15  18
ATOM     18  O   UNL     1       3.633   5.521  21.955  0.00  0.00    -0.503 OA
ATOM     19  H   UNL     1       4.195   6.051  21.353  0.00  0.00    +0.292 HD
ENDBRANCH  15  18
BRANCH  16  20
ATOM     20  O   UNL     1       3.601   6.454  24.495  0.00  0.00    -0.503 OA
ATOM     21  H   UNL     1       2.947   6.517  23.775  0.00  0.00    +0.292 HD
ENDBRANCH  16  20
ENDBRANCH   1  13
BRANCH   5  22
ATOM     22  O   UNL     1      10.303  -1.439  21.603  0.00  0.00    -0.506 OA
ATOM     23  H   UNL     1      10.808  -2.154  22.055  0.00  0.00    +0.292 HD
ENDBRANCH   5  22
BRANCH  11  24
ATOM     24  O   UNL     1       9.039   3.472  22.497  0.00  0.00    -0.501 OA
ATOM     25  H   UNL     1       8.487   4.196  22.837  0.00  0.00    +0.292 HD
ENDBRANCH  11  24
BRANCH   7  26
ATOM     26  O   UNL     1       6.457  -3.866  23.089  0.00  0.00    -0.461 OA
BRANCH  26  27
ATOM     27  C   UNL     1       5.541  -3.844  24.210  0.00  0.00    +0.339 C 
ATOM     28  O   UNL     1       6.287  -3.930  25.441  0.00  0.00    -0.331 OA
ATOM     29  C   UNL     1       6.786  -5.266  25.646  0.00  0.00    +0.179 C 
ATOM     30  C   UNL     1       5.574  -6.104  26.051  0.00  0.00    +0.177 C 
ATOM     31  C   UNL     1       4.672  -6.225  24.822  0.00  0.00    +0.180 C 
ATOM     32  C   UNL     1       4.360  -4.857  24.194  0.00  0.00    +0.214 C 
BRANCH  30  33
ATOM     33  O   UNL     1       4.791  -5.458  27.072  0.00  0.00    -0.386 OA
ATOM     34  H   UNL     1       3.974  -5.128  26.642  0.00  0.00    +0.210 HD
ENDBRANCH  30  33
BRANCH  31  35
ATOM     35  O   UNL     1       3.430  -6.841  25.220  0.00  0.00    -0.386 OA
ATOM     36  H   UNL     1       2.794  -6.101  25.323  0.00  0.00    +0.210 HD
ENDBRANCH  31  35
BRANCH  32  37
ATOM     37  O   UNL     1       3.798  -5.015  22.887  0.00  0.00    -0.383 OA
ATOM     38  H   UNL     1       3.316  -5.864  22.896  0.00  0.00    +0.210 HD
ENDBRANCH  32  37
BRANCH  29  39
ATOM     39  C   UNL     1       7.886  -5.210  26.704  0.00  0.00    +0.190 C 
BRANCH  39  40
ATOM     40  O   UNL     1       7.575  -6.062  27.800  0.00  0.00    -0.392 OA
ATOM     41  H   UNL     1       8.417  -6.492  28.043  0.00  0.00    +0.210 HD
ENDBRANCH  39  40
ENDBRANCH  29  39
ENDBRANCH  26  27
ENDBRANCH   7  26
TORSDOF 12
ENDMDL
MODEL 6
REMARK VINA RESULT:      -7.3      1.715      9.830
REMARK  Name = 
REMARK  12 active torsions:
REMARK  status: ('A' for Active; 'I' for Inactive)
REMARK    1  A    between atoms: C_3  and  O_33
REMARK    2  A    between atoms: C_4  and  O_32
REMARK    3  A    between atoms: C_6  and  C_7
REMARK    4  A    between atoms: C_8  and  O_31
REMARK    5  A    between atoms: C_12  and  O_30
REMARK    6  A    between atoms: C_14  and  O_18
REMARK    7  A    between atoms: O_18  and  C_19
REMARK    8  A    between atoms: C_20  and  O_29
REMARK    9  A    between atoms: C_21  and  O_28
REMARK   10  A    between atoms: C_22  and  O_27
REMARK   11  A    between atoms: C_23  and  C_25
REMARK   12  A    between atoms: C_25  and  O_26
REMARK                            x       y       z     vdW  Elec       q    Type
REMARK                         _______ _______ _______ _____ _____    ______ ____
ROOT
ATOM      1  C   UNL     1       7.953  -0.416  23.606  0.00  0.00    +0.181 A 
ATOM      2  O   UNL     1       6.721  -1.085  23.732  0.00  0.00    -0.451 OA
ATOM      3  C   UNL     1       6.725  -2.449  23.971  0.00  0.00    +0.147 A 
ATOM      4  C   UNL     1       7.910  -3.176  24.028  0.00  0.00    +0.109 A 
ATOM      5  C   UNL     1       7.891  -4.552  24.250  0.00  0.00    +0.135 A 
ATOM      6  C   UNL     1       6.688  -5.211  24.408  0.00  0.00    +0.092 A 
ATOM      7  C   UNL     1       5.469  -4.520  24.326  0.00  0.00    +0.131 A 
ATOM      8  C   UNL     1       9.187  -2.493  23.876  0.00  0.00    +0.238 A 
ATOM      9  O   UNL     1      10.237  -3.130  23.899  0.00  0.00    -0.283 OA
ATOM     10  C   UNL     1       5.495  -3.123  24.134  0.00  0.00    +0.093 A 
ATOM     11  C   UNL     1       9.151  -1.027  23.726  0.00  0.00    +0.208 A 
ENDROOT
BRANCH   1  13
ATOM     12  C   UNL     1       7.269   1.587  22.191  0.00  0.00    +0.015 A 
ATOM     13  C   UNL     1       7.856   1.060  23.370  0.00  0.00    +0.025 A 
ATOM     14  C   UNL     1       8.379   1.976  24.292  0.00  0.00    +0.060 A 
ATOM     15  C   UNL     1       8.402   3.337  23.985  0.00  0.00    +0.159 A 
ATOM     16  C   UNL     1       7.915   3.819  22.773  0.00  0.00    +0.158 A 
ATOM     17  C   UNL     1       7.328   2.950  21.873  0.00  0.00    +0.050 A 
BRANCH  15  18
ATOM     18  O   UNL     1       8.938   4.213  24.887  0.00  0.00    -0.503 OA
ATOM     19  H   UNL     1       9.836   4.401  24.544  0.00  0.00    +0.292 HD
ENDBRANCH  15  18
BRANCH  16  20
ATOM     20  O   UNL     1       8.038   5.155  22.516  0.00  0.00    -0.503 OA
ATOM     21  H   UNL     1       7.189   5.588  22.719  0.00  0.00    +0.292 HD
ENDBRANCH  16  20
ENDBRANCH   1  13
BRANCH   5  22
ATOM     22  O   UNL     1       9.013  -5.334  24.297  0.00  0.00    -0.506 OA
ATOM     23  H   UNL     1       9.133  -5.750  23.413  0.00  0.00    +0.292 HD
ENDBRANCH   5  22
BRANCH  11  24
ATOM     24  O   UNL     1      10.386  -0.402  23.743  0.00  0.00    -0.501 OA
ATOM     25  H   UNL     1      10.287   0.448  24.204  0.00  0.00    +0.292 HD
ENDBRANCH  11  24
BRANCH   7  26
ATOM     26  O   UNL     1       4.232  -5.154  24.388  0.00  0.00    -0.461 OA
BRANCH  26  27
ATOM     27  C   UNL     1       4.318  -6.534  24.819  0.00  0.00    +0.339 C 
ATOM     28  O   UNL     1       3.641  -7.377  23.865  0.00  0.00    -0.331 OA
ATOM     29  C   UNL     1       2.211  -7.242  23.984  0.00  0.00    +0.179 C 
ATOM     30  C   UNL     1       1.830  -7.987  25.264  0.00  0.00    +0.177 C 
ATOM     31  C   UNL     1       2.383  -7.183  26.441  0.00  0.00    +0.180 C 
ATOM     32  C   UNL     1       3.877  -6.861  26.274  0.00  0.00    +0.214 C 
BRANCH  30  33
ATOM     33  O   UNL     1       2.443  -9.288  25.331  0.00  0.00    -0.386 OA
ATOM     34  H   UNL     1       1.833  -9.916  24.893  0.00  0.00    +0.210 HD
ENDBRANCH  30  33
BRANCH  31  35
ATOM     35  O   UNL     1       2.212  -7.955  27.647  0.00  0.00    -0.386 OA
ATOM     36  H   UNL     1       2.778  -8.747  27.532  0.00  0.00    +0.210 HD
ENDBRANCH  31  35
BRANCH  32  37
ATOM     37  O   UNL     1       4.285  -5.854  27.205  0.00  0.00    -0.383 OA
ATOM     38  H   UNL     1       4.954  -5.310  26.747  0.00  0.00    +0.210 HD
ENDBRANCH  32  37
BRANCH  29  39
ATOM     39  C   UNL     1       1.569  -7.807  22.720  0.00  0.00    +0.190 C 
BRANCH  39  40
ATOM     40  O   UNL     1       0.807  -8.970  23.018  0.00  0.00    -0.392 OA
ATOM     41  H   UNL     1       0.269  -9.142  22.221  0.00  0.00    +0.210 HD
ENDBRANCH  39  40
ENDBRANCH  29  39
ENDBRANCH  26  27
ENDBRANCH   7  26
TORSDOF 12
ENDMDL
MODEL 7
REMARK VINA RESULT:      -7.3      1.611      9.299
REMARK  Name = 
REMARK  12 active torsions:
REMARK  status: ('A' for Active; 'I' for Inactive)
REMARK    1  A    between atoms: C_3  and  O_33
REMARK    2  A    between atoms: C_4  and  O_32
REMARK    3  A    between atoms: C_6  and  C_7
REMARK    4  A    between atoms: C_8  and  O_31
REMARK    5  A    between atoms: C_12  and  O_30
REMARK    6  A    between atoms: C_14  and  O_18
REMARK    7  A    between atoms: O_18  and  C_19
REMARK    8  A    between atoms: C_20  and  O_29
REMARK    9  A    between atoms: C_21  and  O_28
REMARK   10  A    between atoms: C_22  and  O_27
REMARK   11  A    between atoms: C_23  and  C_25
REMARK   12  A    between atoms: C_25  and  O_26
REMARK                            x       y       z     vdW  Elec       q    Type
REMARK                         _______ _______ _______ _____ _____    ______ ____
ROOT
ATOM      1  C   UNL     1       7.820   1.646  23.003  0.00  0.00    +0.181 A 
ATOM      2  O   UNL     1       7.249   0.775  23.951  0.00  0.00    -0.451 OA
ATOM      3  C   UNL     1       7.832  -0.466  24.151  0.00  0.00    +0.147 A 
ATOM      4  C   UNL     1       8.924  -0.889  23.398  0.00  0.00    +0.109 A 
ATOM      5  C   UNL     1       9.483  -2.149  23.602  0.00  0.00    +0.135 A 
ATOM      6  C   UNL     1       8.949  -2.997  24.552  0.00  0.00    +0.092 A 
ATOM      7  C   UNL     1       7.830  -2.621  25.310  0.00  0.00    +0.131 A 
ATOM      8  C   UNL     1       9.504  -0.000  22.401  0.00  0.00    +0.238 A 
ATOM      9  O   UNL     1      10.451  -0.375  21.714  0.00  0.00    -0.283 OA
ATOM     10  C   UNL     1       7.288  -1.332  25.124  0.00  0.00    +0.093 A 
ATOM     11  C   UNL     1       8.925   1.351  22.286  0.00  0.00    +0.208 A 
ENDROOT
BRANCH   1  13
ATOM     12  C   UNL     1       5.741   3.114  23.056  0.00  0.00    +0.015 A 
ATOM     13  C   UNL     1       7.139   2.974  22.867  0.00  0.00    +0.025 A 
ATOM     14  C   UNL     1       7.858   4.122  22.508  0.00  0.00    +0.060 A 
ATOM     15  C   UNL     1       7.181   5.315  22.251  0.00  0.00    +0.159 A 
ATOM     16  C   UNL     1       5.794   5.400  22.340  0.00  0.00    +0.158 A 
ATOM     17  C   UNL     1       5.064   4.304  22.761  0.00  0.00    +0.050 A 
BRANCH  15  18
ATOM     18  O   UNL     1       7.897   6.417  21.878  0.00  0.00    -0.503 OA
ATOM     19  H   UNL     1       7.450   7.165  22.326  0.00  0.00    +0.292 HD
ENDBRANCH  15  18
BRANCH  16  20
ATOM     20  O   UNL     1       5.199   6.583  22.003  0.00  0.00    -0.503 OA
ATOM     21  H   UNL     1       5.871   7.160  21.597  0.00  0.00    +0.292 HD
ENDBRANCH  16  20
ENDBRANCH   1  13
BRANCH   5  22
ATOM     22  O   UNL     1      10.541  -2.640  22.886  0.00  0.00    -0.506 OA
ATOM     23  H   UNL     1      11.359  -2.505  23.418  0.00  0.00    +0.292 HD
ENDBRANCH   5  22
BRANCH  11  24
ATOM     24  O   UNL     1       9.603   2.213  21.442  0.00  0.00    -0.501 OA
ATOM     25  H   UNL     1       9.130   2.238  20.594  0.00  0.00    +0.292 HD
ENDBRANCH  11  24
BRANCH   7  26
ATOM     26  O   UNL     1       7.204  -3.475  26.213  0.00  0.00    -0.461 OA
BRANCH  26  27
ATOM     27  C   UNL     1       7.027  -4.818  25.703  0.00  0.00    +0.339 C 
ATOM     28  O   UNL     1       6.036  -4.807  24.656  0.00  0.00    -0.331 OA
ATOM     29  C   UNL     1       4.713  -4.649  25.203  0.00  0.00    +0.179 C 
ATOM     30  C   UNL     1       4.364  -5.995  25.839  0.00  0.00    +0.177 C 
ATOM     31  C   UNL     1       5.260  -6.166  27.066  0.00  0.00    +0.180 C 
ATOM     32  C   UNL     1       6.745  -5.947  26.735  0.00  0.00    +0.214 C 
BRANCH  30  33
ATOM     33  O   UNL     1       4.658  -7.096  24.960  0.00  0.00    -0.386 OA
ATOM     34  H   UNL     1       5.100  -6.723  24.169  0.00  0.00    +0.210 HD
ENDBRANCH  30  33
BRANCH  31  35
ATOM     35  O   UNL     1       5.095  -7.506  27.574  0.00  0.00    -0.386 OA
ATOM     36  H   UNL     1       4.215  -7.513  28.008  0.00  0.00    +0.210 HD
ENDBRANCH  31  35
BRANCH  32  37
ATOM     37  O   UNL     1       7.514  -5.794  27.932  0.00  0.00    -0.383 OA
ATOM     38  H   UNL     1       8.249  -6.433  27.872  0.00  0.00    +0.210 HD
ENDBRANCH  32  37
BRANCH  29  39
ATOM     39  C   UNL     1       3.773  -4.231  24.075  0.00  0.00    +0.190 C 
BRANCH  39  40
ATOM     40  O   UNL     1       4.388  -4.429  22.808  0.00  0.00    -0.392 OA
ATOM     41  H   UNL     1       4.280  -3.584  22.331  0.00  0.00    +0.210 HD
ENDBRANCH  39  40
ENDBRANCH  29  39
ENDBRANCH  26  27
ENDBRANCH   7  26
TORSDOF 12
ENDMDL
MODEL 8
REMARK VINA RESULT:      -7.1      1.079      2.405
REMARK  Name = 
REMARK  12 active torsions:
REMARK  status: ('A' for Active; 'I' for Inactive)
REMARK    1  A    between atoms: C_3  and  O_33
REMARK    2  A    between atoms: C_4  and  O_32
REMARK    3  A    between atoms: C_6  and  C_7
REMARK    4  A    between atoms: C_8  and  O_31
REMARK    5  A    between atoms: C_12  and  O_30
REMARK    6  A    between atoms: C_14  and  O_18
REMARK    7  A    between atoms: O_18  and  C_19
REMARK    8  A    between atoms: C_20  and  O_29
REMARK    9  A    between atoms: C_21  and  O_28
REMARK   10  A    between atoms: C_22  and  O_27
REMARK   11  A    between atoms: C_23  and  C_25
REMARK   12  A    between atoms: C_25  and  O_26
REMARK                            x       y       z     vdW  Elec       q    Type
REMARK                         _______ _______ _______ _____ _____    ______ ____
ROOT
ATOM      1  C   UNL     1       7.159  -3.981  24.181  0.00  0.00    +0.181 A 
ATOM      2  O   UNL     1       6.499  -2.793  23.813  0.00  0.00    -0.451 OA
ATOM      3  C   UNL     1       7.257  -1.714  23.390  0.00  0.00    +0.147 A 
ATOM      4  C   UNL     1       8.649  -1.758  23.381  0.00  0.00    +0.109 A 
ATOM      5  C   UNL     1       9.393  -0.654  22.971  0.00  0.00    +0.135 A 
ATOM      6  C   UNL     1       8.753   0.504  22.576  0.00  0.00    +0.092 A 
ATOM      7  C   UNL     1       7.353   0.601  22.602  0.00  0.00    +0.131 A 
ATOM      8  C   UNL     1       9.337  -2.977  23.783  0.00  0.00    +0.238 A 
ATOM      9  O   UNL     1      10.565  -3.017  23.802  0.00  0.00    -0.283 OA
ATOM     10  C   UNL     1       6.603  -0.530  22.985  0.00  0.00    +0.093 A 
ATOM     11  C   UNL     1       8.499  -4.140  24.127  0.00  0.00    +0.208 A 
ENDROOT
BRANCH   1  13
ATOM     12  C   UNL     1       5.354  -5.711  23.699  0.00  0.00    +0.015 A 
ATOM     13  C   UNL     1       6.262  -5.104  24.604  0.00  0.00    +0.025 A 
ATOM     14  C   UNL     1       6.259  -5.570  25.925  0.00  0.00    +0.060 A 
ATOM     15  C   UNL     1       5.318  -6.518  26.328  0.00  0.00    +0.159 A 
ATOM     16  C   UNL     1       4.367  -7.021  25.444  0.00  0.00    +0.158 A 
ATOM     17  C   UNL     1       4.388  -6.635  24.117  0.00  0.00    +0.050 A 
BRANCH  15  18
ATOM     18  O   UNL     1       5.316  -6.942  27.627  0.00  0.00    -0.503 OA
ATOM     19  H   UNL     1       5.001  -6.168  28.139  0.00  0.00    +0.292 HD
ENDBRANCH  15  18
BRANCH  16  20
ATOM     20  O   UNL     1       3.433  -7.892  25.931  0.00  0.00    -0.503 OA
ATOM     21  H   UNL     1       3.720  -8.189  26.813  0.00  0.00    +0.292 HD
ENDBRANCH  16  20
ENDBRANCH   1  13
BRANCH   5  22
ATOM     22  O   UNL     1      10.761  -0.618  22.956  0.00  0.00    -0.506 OA
ATOM     23  H   UNL     1      11.093  -1.517  23.179  0.00  0.00    +0.292 HD
ENDBRANCH   5  22
BRANCH  11  24
ATOM     24  O   UNL     1       9.188  -5.319  24.349  0.00  0.00    -0.501 OA
ATOM     25  H   UNL     1       8.577  -5.953  24.759  0.00  0.00    +0.292 HD
ENDBRANCH  11  24
BRANCH   7  26
ATOM     26  O   UNL     1       6.669   1.775  22.300  0.00  0.00    -0.461 OA
BRANCH  26  27
ATOM     27  C   UNL     1       6.568   2.684  23.422  0.00  0.00    +0.339 C 
ATOM     28  O   UNL     1       5.186   2.816  23.810  0.00  0.00    -0.331 OA
ATOM     29  C   UNL     1       4.461   3.623  22.862  0.00  0.00    +0.179 C 
ATOM     30  C   UNL     1       4.911   5.062  23.114  0.00  0.00    +0.177 C 
ATOM     31  C   UNL     1       6.368   5.170  22.663  0.00  0.00    +0.180 C 
ATOM     32  C   UNL     1       7.251   4.075  23.284  0.00  0.00    +0.214 C 
BRANCH  30  33
ATOM     33  O   UNL     1       4.890   5.394  24.515  0.00  0.00    -0.386 OA
ATOM     34  H   UNL     1       5.262   6.297  24.602  0.00  0.00    +0.210 HD
ENDBRANCH  30  33
BRANCH  31  35
ATOM     35  O   UNL     1       6.882   6.456  23.066  0.00  0.00    -0.386 OA
ATOM     36  H   UNL     1       6.334   7.116  22.589  0.00  0.00    +0.210 HD
ENDBRANCH  31  35
BRANCH  32  37
ATOM     37  O   UNL     1       8.511   3.997  22.610  0.00  0.00    -0.383 OA
ATOM     38  H   UNL     1       8.459   4.615  21.856  0.00  0.00    +0.210 HD
ENDBRANCH  32  37
BRANCH  29  39
ATOM     39  C   UNL     1       2.968   3.391  23.077  0.00  0.00    +0.190 C 
BRANCH  39  40
ATOM     40  O   UNL     1       2.422   2.608  22.022  0.00  0.00    -0.392 OA
ATOM     41  H   UNL     1       1.840   1.955  22.456  0.00  0.00    +0.210 HD
ENDBRANCH  39  40
ENDBRANCH  29  39
ENDBRANCH  26  27
ENDBRANCH   7  26
TORSDOF 12
ENDMDL
MODEL 9
REMARK VINA RESULT:      -6.9      1.934      9.224
REMARK  Name = 
REMARK  12 active torsions:
REMARK  status: ('A' for Active; 'I' for Inactive)
REMARK    1  A    between atoms: C_3  and  O_33
REMARK    2  A    between atoms: C_4  and  O_32
REMARK    3  A    between atoms: C_6  and  C_7
REMARK    4  A    between atoms: C_8  and  O_31
REMARK    5  A    between atoms: C_12  and  O_30
REMARK    6  A    between atoms: C_14  and  O_18
REMARK    7  A    between atoms: O_18  and  C_19
REMARK    8  A    between atoms: C_20  and  O_29
REMARK    9  A    between atoms: C_21  and  O_28
REMARK   10  A    between atoms: C_22  and  O_27
REMARK   11  A    between atoms: C_23  and  C_25
REMARK   12  A    between atoms: C_25  and  O_26
REMARK                            x       y       z     vdW  Elec       q    Type
REMARK                         _______ _______ _______ _____ _____    ______ ____
ROOT
ATOM      1  C   UNL     1       7.779   1.741  23.325  0.00  0.00    +0.181 A 
ATOM      2  O   UNL     1       7.244   0.913  24.331  0.00  0.00    -0.451 OA
ATOM      3  C   UNL     1       7.790  -0.347  24.516  0.00  0.00    +0.147 A 
ATOM      4  C   UNL     1       8.806  -0.830  23.697  0.00  0.00    +0.109 A 
ATOM      5  C   UNL     1       9.326  -2.109  23.887  0.00  0.00    +0.135 A 
ATOM      6  C   UNL     1       8.830  -2.915  24.893  0.00  0.00    +0.092 A 
ATOM      7  C   UNL     1       7.785  -2.478  25.721  0.00  0.00    +0.131 A 
ATOM      8  C   UNL     1       9.346   0.013  22.640  0.00  0.00    +0.238 A 
ATOM      9  O   UNL     1      10.225  -0.414  21.895  0.00  0.00    -0.283 OA
ATOM     10  C   UNL     1       7.284  -1.171  25.545  0.00  0.00    +0.093 A 
ATOM     11  C   UNL     1       8.816   1.385  22.537  0.00  0.00    +0.208 A 
ENDROOT
BRANCH   1  13
ATOM     12  C   UNL     1       7.737   4.243  23.789  0.00  0.00    +0.015 A 
ATOM     13  C   UNL     1       7.145   3.093  23.209  0.00  0.00    +0.025 A 
ATOM     14  C   UNL     1       5.919   3.262  22.553  0.00  0.00    +0.060 A 
ATOM     15  C   UNL     1       5.281   4.503  22.579  0.00  0.00    +0.159 A 
ATOM     16  C   UNL     1       5.833   5.592  23.248  0.00  0.00    +0.158 A 
ATOM     17  C   UNL     1       7.075   5.477  23.843  0.00  0.00    +0.050 A 
BRANCH  15  18
ATOM     18  O   UNL     1       4.073   4.642  21.954  0.00  0.00    -0.503 OA
ATOM     19  H   UNL     1       3.642   5.392  22.415  0.00  0.00    +0.292 HD
ENDBRANCH  15  18
BRANCH  16  20
ATOM     20  O   UNL     1       5.114   6.754  23.289  0.00  0.00    -0.503 OA
ATOM     21  H   UNL     1       4.616   6.777  24.127  0.00  0.00    +0.292 HD
ENDBRANCH  16  20
ENDBRANCH   1  13
BRANCH   5  22
ATOM     22  O   UNL     1      10.308  -2.658  23.109  0.00  0.00    -0.506 OA
ATOM     23  H   UNL     1      10.034  -2.575  22.167  0.00  0.00    +0.292 HD
ENDBRANCH   5  22
BRANCH  11  24
ATOM     24  O   UNL     1       9.465   2.201  21.628  0.00  0.00    -0.501 OA
ATOM     25  H   UNL     1       8.967   2.178  20.793  0.00  0.00    +0.292 HD
ENDBRANCH  11  24
BRANCH   7  26
ATOM     26  O   UNL     1       7.193  -3.287  26.686  0.00  0.00    -0.461 OA
BRANCH  26  27
ATOM     27  C   UNL     1       6.555  -4.464  26.133  0.00  0.00    +0.339 C 
ATOM     28  O   UNL     1       5.182  -4.160  25.815  0.00  0.00    -0.331 OA
ATOM     29  C   UNL     1       4.385  -4.071  27.012  0.00  0.00    +0.179 C 
ATOM     30  C   UNL     1       4.198  -5.510  27.494  0.00  0.00    +0.177 C 
ATOM     31  C   UNL     1       5.559  -6.005  27.985  0.00  0.00    +0.180 C 
ATOM     32  C   UNL     1       6.668  -5.788  26.942  0.00  0.00    +0.214 C 
BRANCH  30  33
ATOM     33  O   UNL     1       3.803  -6.388  26.423  0.00  0.00    -0.386 OA
ATOM     34  H   UNL     1       3.655  -5.829  25.633  0.00  0.00    +0.210 HD
ENDBRANCH  30  33
BRANCH  31  35
ATOM     35  O   UNL     1       5.462  -7.418  28.263  0.00  0.00    -0.386 OA
ATOM     36  H   UNL     1       6.221  -7.828  27.794  0.00  0.00    +0.210 HD
ENDBRANCH  31  35
BRANCH  32  37
ATOM     37  O   UNL     1       7.960  -5.955  27.534  0.00  0.00    -0.383 OA
ATOM     38  H   UNL     1       8.015  -6.889  27.813  0.00  0.00    +0.210 HD
ENDBRANCH  32  37
BRANCH  29  39
ATOM     39  C   UNL     1       3.081  -3.356  26.667  0.00  0.00    +0.190 C 
BRANCH  39  40
ATOM     40  O   UNL     1       3.196  -2.666  25.429  0.00  0.00    -0.392 OA
ATOM     41  H   UNL     1       3.944  -3.087  24.964  0.00  0.00    +0.210 HD
ENDBRANCH  39  40
ENDBRANCH  29  39
ENDBRANCH  26  27
ENDBRANCH   7  26
TORSDOF 12
ENDMDL
