MODEL 1
REMARK VINA RESULT:      -6.4      0.000      0.000
REMARK  Name = 
REMARK  30 active torsions:
REMARK  status: ('A' for Active; 'I' for Inactive)
REMARK    1  A    between atoms: C_3  and  O_86
REMARK    2  A    between atoms: C_4  and  O_85
REMARK    3  A    between atoms: C_6  and  C_7
REMARK    4  A    between atoms: C_8  and  O_20
REMARK    5  A    between atoms: C_12  and  O_19
REMARK    6  A    between atoms: C_14  and  O_18
REMARK    7  A    between atoms: O_20  and  C_21
REMARK    8  A    between atoms: C_23  and  O_84
REMARK    9  A    between atoms: C_25  and  O_83
REMARK   10  A    between atoms: C_27  and  O_82
REMARK   11  A    between atoms: C_29  and  C_32
REMARK   12  A    between atoms: C_32  and  O_33
REMARK   13  A    between atoms: O_33  and  C_34
REMARK   14  A    between atoms: C_36  and  O_81
REMARK   15  A    between atoms: C_38  and  O_80
REMARK   16  A    between atoms: C_40  and  O_79
REMARK   17  A    between atoms: C_42  and  C_45
REMARK   18  A    between atoms: C_45  and  O_46
REMARK   19  A    between atoms: O_46  and  C_47
REMARK   20  A    between atoms: C_49  and  O_78
REMARK   21  A    between atoms: C_51  and  O_77
REMARK   22  A    between atoms: C_53  and  O_76
REMARK   23  A    between atoms: C_55  and  C_58
REMARK   24  A    between atoms: C_58  and  O_59
REMARK   25  A    between atoms: O_59  and  C_60
REMARK   26  A    between atoms: C_62  and  O_75
REMARK   27  A    between atoms: C_64  and  O_74
REMARK   28  A    between atoms: C_66  and  O_73
REMARK   29  A    between atoms: C_68  and  C_71
REMARK   30  A    between atoms: C_71  and  O_72
REMARK                            x       y       z     vdW  Elec       q    Type
REMARK                         _______ _______ _______ _____ _____    ______ ____
ROOT
ATOM      1  C   UNL     1      10.074  -1.057  22.879  0.00  0.00    +0.282 C 
ATOM      2  O   UNL     1      10.083   0.350  23.135  0.00  0.00    -0.341 OA
ATOM      3  C   UNL     1       8.830   0.904  23.567  0.00  0.00    +0.178 C 
ATOM      4  C   UNL     1       7.625   0.420  22.701  0.00  0.00    +0.177 C 
ATOM      5  C   UNL     1       7.662  -1.050  22.248  0.00  0.00    +0.179 C 
ATOM      6  C   UNL     1       9.074  -1.429  21.760  0.00  0.00    +0.201 C 
ENDROOT
BRANCH   4   7
ATOM      7  O   UNL     1       7.688   1.152  21.442  0.00  0.00    -0.386 OA
ATOM      8  H   UNL     1       6.807   1.526  21.269  0.00  0.00    +0.210 HD
ENDBRANCH   4   7
BRANCH   5   9
ATOM      9  O   UNL     1       7.183  -1.912  23.280  0.00  0.00    -0.386 OA
ATOM     10  H   UNL     1       7.909  -2.527  23.507  0.00  0.00    +0.210 HD
ENDBRANCH   5   9
BRANCH   6  11
ATOM     11  O   UNL     1       9.413  -0.797  20.519  0.00  0.00    -0.384 OA
ATOM     12  H   UNL     1       9.837   0.060  20.737  0.00  0.00    +0.210 HD
ENDBRANCH   6  11
BRANCH   3  13
ATOM     13  C   UNL     1       8.753   1.091  25.143  0.00  0.00    +0.197 C 
BRANCH  13  14
ATOM     14  O   UNL     1       8.248   2.306  25.709  0.00  0.00    -0.346 OA
BRANCH  14  15
ATOM     15  C   UNL     1       8.584   3.641  25.163  0.00  0.00    +0.282 C 
ATOM     16  O   UNL     1       7.614   4.597  25.652  0.00  0.00    -0.341 OA
ATOM     17  C   UNL     1       7.199   5.779  24.942  0.00  0.00    +0.178 C 
ATOM     18  C   UNL     1       7.581   5.933  23.465  0.00  0.00    +0.177 C 
ATOM     19  C   UNL     1       8.042   4.636  22.815  0.00  0.00    +0.179 C 
ATOM     20  C   UNL     1       9.015   3.817  23.671  0.00  0.00    +0.201 C 
BRANCH  18  21
ATOM     21  O   UNL     1       8.619   6.934  23.376  0.00  0.00    -0.386 OA
ATOM     22  H   UNL     1       8.636   7.242  22.447  0.00  0.00    +0.210 HD
ENDBRANCH  18  21
BRANCH  19  23
ATOM     23  O   UNL     1       6.929   3.851  22.392  0.00  0.00    -0.386 OA
ATOM     24  H   UNL     1       7.217   3.139  21.793  0.00  0.00    +0.210 HD
ENDBRANCH  19  23
BRANCH  20  25
ATOM     25  O   UNL     1      10.330   4.412  23.594  0.00  0.00    -0.384 OA
ATOM     26  H   UNL     1      10.779   4.286  24.451  0.00  0.00    +0.210 HD
ENDBRANCH  20  25
BRANCH  17  27
ATOM     27  C   UNL     1       5.652   5.973  25.094  0.00  0.00    +0.197 C 
BRANCH  27  28
ATOM     28  O   UNL     1       4.858   5.398  24.041  0.00  0.00    -0.346 OA
BRANCH  28  29
ATOM     29  C   UNL     1       3.711   4.696  24.506  0.00  0.00    +0.282 C 
ATOM     30  O   UNL     1       3.594   4.796  25.921  0.00  0.00    -0.341 OA
ATOM     31  C   UNL     1       3.795   3.650  26.754  0.00  0.00    +0.178 C 
ATOM     32  C   UNL     1       3.746   2.262  26.088  0.00  0.00    +0.177 C 
ATOM     33  C   UNL     1       4.255   2.260  24.643  0.00  0.00    +0.179 C 
ATOM     34  C   UNL     1       3.500   3.324  23.857  0.00  0.00    +0.201 C 
BRANCH  34  35
ATOM     35  O   UNL     1       2.089   2.996  23.854  0.00  0.00    -0.384 OA
ATOM     36  H   UNL     1       2.001   2.023  23.920  0.00  0.00    +0.210 HD
ENDBRANCH  34  35
BRANCH  33  37
ATOM     37  O   UNL     1       5.665   2.429  24.534  0.00  0.00    -0.386 OA
ATOM     38  H   UNL     1       5.859   3.038  23.789  0.00  0.00    +0.210 HD
ENDBRANCH  33  37
BRANCH  32  39
ATOM     39  O   UNL     1       2.374   1.807  26.133  0.00  0.00    -0.386 OA
ATOM     40  H   UNL     1       1.801   2.604  26.214  0.00  0.00    +0.210 HD
ENDBRANCH  32  39
BRANCH  31  41
ATOM     41  C   UNL     1       5.027   3.846  27.652  0.00  0.00    +0.190 C 
BRANCH  41  42
ATOM     42  O   UNL     1       5.974   2.795  27.512  0.00  0.00    -0.392 OA
ATOM     43  H   UNL     1       6.541   3.038  26.754  0.00  0.00    +0.210 HD
ENDBRANCH  41  42
ENDBRANCH  31  41
ENDBRANCH  28  29
ENDBRANCH  27  28
ENDBRANCH  17  27
ENDBRANCH  14  15
ENDBRANCH  13  14
ENDBRANCH   3  13
BRANCH   1  44
ATOM     44  O   UNL     1       9.766  -1.713  24.102  0.00  0.00    -0.346 OA
BRANCH  44  45
ATOM     45  C   UNL     1      10.067  -3.103  24.134  0.00  0.00    +0.197 C 
BRANCH  45  48
ATOM     46  C   UNL     1       7.339  -3.318  26.615  0.00  0.00    +0.340 C 
ATOM     47  O   UNL     1       8.517  -2.878  25.904  0.00  0.00    -0.331 OA
ATOM     48  C   UNL     1       9.500  -3.802  25.380  0.00  0.00    +0.179 C 
ATOM     49  C   UNL     1       9.009  -5.189  24.914  0.00  0.00    +0.177 C 
ATOM     50  C   UNL     1       7.503  -5.272  25.083  0.00  0.00    +0.180 C 
ATOM     51  C   UNL     1       7.166  -4.837  26.517  0.00  0.00    +0.214 C 
BRANCH  49  52
ATOM     52  O   UNL     1       9.694  -6.217  25.648  0.00  0.00    -0.386 OA
ATOM     53  H   UNL     1       9.172  -6.397  26.462  0.00  0.00    +0.210 HD
ENDBRANCH  49  52
BRANCH  50  54
ATOM     54  O   UNL     1       6.848  -4.470  24.079  0.00  0.00    -0.386 OA
ATOM     55  H   UNL     1       7.461  -3.765  23.795  0.00  0.00    +0.210 HD
ENDBRANCH  50  54
BRANCH  51  56
ATOM     56  O   UNL     1       8.005  -5.542  27.456  0.00  0.00    -0.383 OA
ATOM     57  H   UNL     1       7.520  -6.325  27.784  0.00  0.00    +0.210 HD
ENDBRANCH  51  56
BRANCH  46  58
ATOM     58  O   UNL     1       6.222  -2.650  25.994  0.00  0.00    -0.453 OA
BRANCH  58  69
ATOM     59  C   UNL     1       3.931  -2.677  26.678  0.00  0.00    +0.181 A 
ATOM     60  O   UNL     1       2.780  -2.111  27.206  0.00  0.00    -0.451 OA
ATOM     61  C   UNL     1       2.867  -1.038  28.030  0.00  0.00    +0.147 A 
ATOM     62  C   UNL     1       4.071  -0.439  28.379  0.00  0.00    +0.109 A 
ATOM     63  C   UNL     1       4.054   0.554  29.371  0.00  0.00    +0.135 A 
ATOM     64  C   UNL     1       2.850   0.999  29.916  0.00  0.00    +0.091 A 
ATOM     65  C   UNL     1       1.648   0.482  29.456  0.00  0.00    +0.124 A 
ATOM     66  C   UNL     1       5.272  -0.877  27.629  0.00  0.00    +0.238 A 
ATOM     67  O   UNL     1       6.319  -0.234  27.751  0.00  0.00    -0.283 OA
ATOM     68  C   UNL     1       1.656  -0.566  28.544  0.00  0.00    +0.092 A 
ATOM     69  C   UNL     1       5.153  -2.110  26.726  0.00  0.00    +0.214 A 
BRANCH  59  71
ATOM     70  C   UNL     1       3.615  -5.156  26.768  0.00  0.00    +0.015 A 
ATOM     71  C   UNL     1       3.532  -3.962  26.017  0.00  0.00    +0.025 A 
ATOM     72  C   UNL     1       3.422  -4.055  24.621  0.00  0.00    +0.060 A 
ATOM     73  C   UNL     1       3.508  -5.311  24.006  0.00  0.00    +0.159 A 
ATOM     74  C   UNL     1       3.677  -6.476  24.756  0.00  0.00    +0.158 A 
ATOM     75  C   UNL     1       3.691  -6.408  26.139  0.00  0.00    +0.050 A 
BRANCH  74  76
ATOM     76  O   UNL     1       3.888  -7.646  24.083  0.00  0.00    -0.503 OA
ATOM     77  H   UNL     1       3.332  -8.336  24.483  0.00  0.00    +0.292 HD
ENDBRANCH  74  76
BRANCH  73  78
ATOM     78  O   UNL     1       3.503  -5.418  22.644  0.00  0.00    -0.503 OA
ATOM     79  H   UNL     1       3.675  -6.358  22.465  0.00  0.00    +0.292 HD
ENDBRANCH  73  78
ENDBRANCH  59  71
BRANCH  65  80
ATOM     80  O   UNL     1       0.445   0.963  29.873  0.00  0.00    -0.507 OA
ATOM     81  H   UNL     1      -0.076   0.230  30.244  0.00  0.00    +0.292 HD
ENDBRANCH  65  80
BRANCH  63  82
ATOM     82  O   UNL     1       5.176   1.162  29.877  0.00  0.00    -0.506 OA
ATOM     83  H   UNL     1       5.549   0.598  30.584  0.00  0.00    +0.292 HD
ENDBRANCH  63  82
ENDBRANCH  58  69
ENDBRANCH  46  58
ENDBRANCH  45  48
ENDBRANCH  44  45
ENDBRANCH   1  44
TORSDOF 30
ENDMDL
MODEL 2
REMARK VINA RESULT:      -6.1      1.900      6.823
REMARK  Name = 
REMARK  30 active torsions:
REMARK  status: ('A' for Active; 'I' for Inactive)
REMARK    1  A    between atoms: C_3  and  O_86
REMARK    2  A    between atoms: C_4  and  O_85
REMARK    3  A    between atoms: C_6  and  C_7
REMARK    4  A    between atoms: C_8  and  O_20
REMARK    5  A    between atoms: C_12  and  O_19
REMARK    6  A    between atoms: C_14  and  O_18
REMARK    7  A    between atoms: O_20  and  C_21
REMARK    8  A    between atoms: C_23  and  O_84
REMARK    9  A    between atoms: C_25  and  O_83
REMARK   10  A    between atoms: C_27  and  O_82
REMARK   11  A    between atoms: C_29  and  C_32
REMARK   12  A    between atoms: C_32  and  O_33
REMARK   13  A    between atoms: O_33  and  C_34
REMARK   14  A    between atoms: C_36  and  O_81
REMARK   15  A    between atoms: C_38  and  O_80
REMARK   16  A    between atoms: C_40  and  O_79
REMARK   17  A    between atoms: C_42  and  C_45
REMARK   18  A    between atoms: C_45  and  O_46
REMARK   19  A    between atoms: O_46  and  C_47
REMARK   20  A    between atoms: C_49  and  O_78
REMARK   21  A    between atoms: C_51  and  O_77
REMARK   22  A    between atoms: C_53  and  O_76
REMARK   23  A    between atoms: C_55  and  C_58
REMARK   24  A    between atoms: C_58  and  O_59
REMARK   25  A    between atoms: O_59  and  C_60
REMARK   26  A    between atoms: C_62  and  O_75
REMARK   27  A    between atoms: C_64  and  O_74
REMARK   28  A    between atoms: C_66  and  O_73
REMARK   29  A    between atoms: C_68  and  C_71
REMARK   30  A    between atoms: C_71  and  O_72
REMARK                            x       y       z     vdW  Elec       q    Type
REMARK                         _______ _______ _______ _____ _____    ______ ____
ROOT
ATOM      1  C   UNL     1       2.314  -5.432  24.898  0.00  0.00    +0.282 C 
ATOM      2  O   UNL     1       1.447  -4.619  25.694  0.00  0.00    -0.341 OA
ATOM      3  C   UNL     1       1.653  -4.708  27.112  0.00  0.00    +0.178 C 
ATOM      4  C   UNL     1       1.786  -6.180  27.613  0.00  0.00    +0.177 C 
ATOM      5  C   UNL     1       2.563  -7.142  26.695  0.00  0.00    +0.179 C 
ATOM      6  C   UNL     1       2.151  -6.934  25.224  0.00  0.00    +0.201 C 
ENDROOT
BRANCH   4   7
ATOM      7  O   UNL     1       0.443  -6.748  27.620  0.00  0.00    -0.386 OA
ATOM      8  H   UNL     1      -0.109  -6.219  27.018  0.00  0.00    +0.210 HD
ENDBRANCH   4   7
BRANCH   5   9
ATOM      9  O   UNL     1       3.970  -7.013  26.900  0.00  0.00    -0.386 OA
ATOM     10  H   UNL     1       4.120  -6.968  27.865  0.00  0.00    +0.210 HD
ENDBRANCH   5   9
BRANCH   6  11
ATOM     11  O   UNL     1       0.817  -7.390  24.960  0.00  0.00    -0.384 OA
ATOM     12  H   UNL     1       0.221  -6.910  25.573  0.00  0.00    +0.210 HD
ENDBRANCH   6  11
BRANCH   3  13
ATOM     13  C   UNL     1       2.530  -3.510  27.680  0.00  0.00    +0.197 C 
BRANCH  13  14
ATOM     14  O   UNL     1       2.274  -2.162  27.272  0.00  0.00    -0.346 OA
BRANCH  14  15
ATOM     15  C   UNL     1       2.744  -0.990  28.047  0.00  0.00    +0.282 C 
ATOM     16  O   UNL     1       2.022   0.181  27.596  0.00  0.00    -0.341 OA
ATOM     17  C   UNL     1       2.548   1.521  27.608  0.00  0.00    +0.178 C 
ATOM     18  C   UNL     1       4.047   1.732  27.851  0.00  0.00    +0.177 C 
ATOM     19  C   UNL     1       4.876   0.466  27.684  0.00  0.00    +0.179 C 
ATOM     20  C   UNL     1       4.264  -0.776  28.341  0.00  0.00    +0.201 C 
BRANCH  18  21
ATOM     21  O   UNL     1       4.211   2.265  29.184  0.00  0.00    -0.386 OA
ATOM     22  H   UNL     1       4.668   3.125  29.090  0.00  0.00    +0.210 HD
ENDBRANCH  18  21
BRANCH  19  23
ATOM     23  O   UNL     1       5.184   0.234  26.310  0.00  0.00    -0.386 OA
ATOM     24  H   UNL     1       4.410   0.418  25.748  0.00  0.00    +0.210 HD
ENDBRANCH  19  23
BRANCH  20  25
ATOM     25  O   UNL     1       4.497  -0.721  29.766  0.00  0.00    -0.384 OA
ATOM     26  H   UNL     1       4.265   0.171  30.086  0.00  0.00    +0.210 HD
ENDBRANCH  20  25
BRANCH  17  27
ATOM     27  C   UNL     1       2.133   2.265  26.293  0.00  0.00    +0.197 C 
BRANCH  27  28
ATOM     28  O   UNL     1       3.117   2.243  25.243  0.00  0.00    -0.346 OA
BRANCH  28  29
ATOM     29  C   UNL     1       3.589   3.533  24.873  0.00  0.00    +0.282 C 
ATOM     30  O   UNL     1       2.755   4.112  23.876  0.00  0.00    -0.341 OA
ATOM     31  C   UNL     1       3.236   4.300  22.541  0.00  0.00    +0.178 C 
ATOM     32  C   UNL     1       4.757   4.235  22.310  0.00  0.00    +0.177 C 
ATOM     33  C   UNL     1       5.478   3.270  23.258  0.00  0.00    +0.179 C 
ATOM     34  C   UNL     1       5.108   3.625  24.692  0.00  0.00    +0.201 C 
BRANCH  34  35
ATOM     35  O   UNL     1       5.554   4.974  24.974  0.00  0.00    -0.384 OA
ATOM     36  H   UNL     1       5.020   5.325  25.716  0.00  0.00    +0.210 HD
ENDBRANCH  34  35
BRANCH  33  37
ATOM     37  O   UNL     1       5.225   1.897  22.975  0.00  0.00    -0.386 OA
ATOM     38  H   UNL     1       5.811   1.341  23.532  0.00  0.00    +0.210 HD
ENDBRANCH  33  37
BRANCH  32  39
ATOM     39  O   UNL     1       5.279   5.575  22.474  0.00  0.00    -0.386 OA
ATOM     40  H   UNL     1       4.759   6.167  21.884  0.00  0.00    +0.210 HD
ENDBRANCH  32  39
BRANCH  31  41
ATOM     41  C   UNL     1       2.439   3.431  21.555  0.00  0.00    +0.190 C 
BRANCH  41  42
ATOM     42  O   UNL     1       1.786   2.342  22.194  0.00  0.00    -0.392 OA
ATOM     43  H   UNL     1       2.284   1.540  21.943  0.00  0.00    +0.210 HD
ENDBRANCH  41  42
ENDBRANCH  31  41
ENDBRANCH  28  29
ENDBRANCH  27  28
ENDBRANCH  17  27
ENDBRANCH  14  15
ENDBRANCH  13  14
ENDBRANCH   3  13
BRANCH   1  44
ATOM     44  O   UNL     1       3.645  -4.985  25.120  0.00  0.00    -0.346 OA
BRANCH  44  45
ATOM     45  C   UNL     1       4.005  -3.796  24.429  0.00  0.00    +0.197 C 
BRANCH  45  48
ATOM     46  C   UNL     1       6.811  -3.356  22.067  0.00  0.00    +0.340 C 
ATOM     47  O   UNL     1       5.634  -3.099  22.864  0.00  0.00    -0.331 OA
ATOM     48  C   UNL     1       4.578  -4.075  23.030  0.00  0.00    +0.179 C 
ATOM     49  C   UNL     1       4.967  -5.569  23.010  0.00  0.00    +0.177 C 
ATOM     50  C   UNL     1       6.471  -5.694  22.850  0.00  0.00    +0.180 C 
ATOM     51  C   UNL     1       6.890  -4.828  21.651  0.00  0.00    +0.214 C 
BRANCH  49  52
ATOM     52  O   UNL     1       4.253  -6.242  21.962  0.00  0.00    -0.386 OA
ATOM     53  H   UNL     1       4.157  -7.184  22.227  0.00  0.00    +0.210 HD
ENDBRANCH  49  52
BRANCH  50  54
ATOM     54  O   UNL     1       7.133  -5.321  24.076  0.00  0.00    -0.386 OA
ATOM     55  H   UNL     1       6.487  -4.869  24.653  0.00  0.00    +0.210 HD
ENDBRANCH  50  54
BRANCH  51  56
ATOM     56  O   UNL     1       6.048  -5.119  20.515  0.00  0.00    -0.383 OA
ATOM     57  H   UNL     1       5.892  -4.291  20.021  0.00  0.00    +0.210 HD
ENDBRANCH  51  56
BRANCH  46  58
ATOM     58  O   UNL     1       7.941  -3.013  22.896  0.00  0.00    -0.453 OA
BRANCH  58  69
ATOM     59  C   UNL     1       8.123  -1.513  24.749  0.00  0.00    +0.181 A 
ATOM     60  O   UNL     1       8.118  -0.261  25.345  0.00  0.00    -0.451 OA
ATOM     61  C   UNL     1       8.380   0.844  24.606  0.00  0.00    +0.147 A 
ATOM     62  C   UNL     1       8.645   0.806  23.242  0.00  0.00    +0.109 A 
ATOM     63  C   UNL     1       9.070   1.989  22.616  0.00  0.00    +0.135 A 
ATOM     64  C   UNL     1       9.124   3.190  23.321  0.00  0.00    +0.091 A 
ATOM     65  C   UNL     1       8.725   3.233  24.649  0.00  0.00    +0.124 A 
ATOM     66  C   UNL     1       8.407  -0.486  22.557  0.00  0.00    +0.238 A 
ATOM     67  O   UNL     1       8.424  -0.519  21.322  0.00  0.00    -0.283 OA
ATOM     68  C   UNL     1       8.394   2.055  25.305  0.00  0.00    +0.092 A 
ATOM     69  C   UNL     1       8.141  -1.726  23.418  0.00  0.00    +0.214 A 
BRANCH  59  71
ATOM     70  C   UNL     1       9.145  -3.387  26.053  0.00  0.00    +0.015 A 
ATOM     71  C   UNL     1       8.040  -2.530  25.848  0.00  0.00    +0.025 A 
ATOM     72  C   UNL     1       6.807  -2.876  26.423  0.00  0.00    +0.060 A 
ATOM     73  C   UNL     1       6.678  -4.105  27.084  0.00  0.00    +0.159 A 
ATOM     74  C   UNL     1       7.757  -4.981  27.205  0.00  0.00    +0.158 A 
ATOM     75  C   UNL     1       9.002  -4.609  26.725  0.00  0.00    +0.050 A 
BRANCH  74  76
ATOM     76  O   UNL     1       7.524  -6.216  27.742  0.00  0.00    -0.503 OA
ATOM     77  H   UNL     1       7.810  -6.207  28.670  0.00  0.00    +0.292 HD
ENDBRANCH  74  76
BRANCH  73  78
ATOM     78  O   UNL     1       5.465  -4.509  27.565  0.00  0.00    -0.503 OA
ATOM     79  H   UNL     1       5.285  -5.354  27.120  0.00  0.00    +0.292 HD
ENDBRANCH  73  78
ENDBRANCH  59  71
BRANCH  65  80
ATOM     80  O   UNL     1       8.652   4.401  25.346  0.00  0.00    -0.507 OA
ATOM     81  H   UNL     1       9.522   4.834  25.327  0.00  0.00    +0.292 HD
ENDBRANCH  65  80
BRANCH  63  82
ATOM     82  O   UNL     1       9.452   2.073  21.301  0.00  0.00    -0.506 OA
ATOM     83  H   UNL     1       9.877   1.230  21.040  0.00  0.00    +0.292 HD
ENDBRANCH  63  82
ENDBRANCH  58  69
ENDBRANCH  46  58
ENDBRANCH  45  48
ENDBRANCH  44  45
ENDBRANCH   1  44
TORSDOF 30
ENDMDL
MODEL 3
REMARK VINA RESULT:      -6.0      2.146      6.560
REMARK  Name = 
REMARK  30 active torsions:
REMARK  status: ('A' for Active; 'I' for Inactive)
REMARK    1  A    between atoms: C_3  and  O_86
REMARK    2  A    between atoms: C_4  and  O_85
REMARK    3  A    between atoms: C_6  and  C_7
REMARK    4  A    between atoms: C_8  and  O_20
REMARK    5  A    between atoms: C_12  and  O_19
REMARK    6  A    between atoms: C_14  and  O_18
REMARK    7  A    between atoms: O_20  and  C_21
REMARK    8  A    between atoms: C_23  and  O_84
REMARK    9  A    between atoms: C_25  and  O_83
REMARK   10  A    between atoms: C_27  and  O_82
REMARK   11  A    between atoms: C_29  and  C_32
REMARK   12  A    between atoms: C_32  and  O_33
REMARK   13  A    between atoms: O_33  and  C_34
REMARK   14  A    between atoms: C_36  and  O_81
REMARK   15  A    between atoms: C_38  and  O_80
REMARK   16  A    between atoms: C_40  and  O_79
REMARK   17  A    between atoms: C_42  and  C_45
REMARK   18  A    between atoms: C_45  and  O_46
REMARK   19  A    between atoms: O_46  and  C_47
REMARK   20  A    between atoms: C_49  and  O_78
REMARK   21  A    between atoms: C_51  and  O_77
REMARK   22  A    between atoms: C_53  and  O_76
REMARK   23  A    between atoms: C_55  and  C_58
REMARK   24  A    between atoms: C_58  and  O_59
REMARK   25  A    between atoms: O_59  and  C_60
REMARK   26  A    between atoms: C_62  and  O_75
REMARK   27  A    between atoms: C_64  and  O_74
REMARK   28  A    between atoms: C_66  and  O_73
REMARK   29  A    between atoms: C_68  and  C_71
REMARK   30  A    between atoms: C_71  and  O_72
REMARK                            x       y       z     vdW  Elec       q    Type
REMARK                         _______ _______ _______ _____ _____    ______ ____
ROOT
ATOM      1  C   UNL     1       4.585   2.819  27.868  0.00  0.00    +0.282 C 
ATOM      2  O   UNL     1       4.861   3.511  26.646  0.00  0.00    -0.341 OA
ATOM      3  C   UNL     1       5.539   2.738  25.644  0.00  0.00    +0.178 C 
ATOM      4  C   UNL     1       6.754   1.941  26.214  0.00  0.00    +0.177 C 
ATOM      5  C   UNL     1       6.566   1.327  27.614  0.00  0.00    +0.179 C 
ATOM      6  C   UNL     1       5.881   2.335  28.558  0.00  0.00    +0.201 C 
ENDROOT
BRANCH   4   7
ATOM      7  O   UNL     1       7.832   2.901  26.421  0.00  0.00    -0.386 OA
ATOM      8  H   UNL     1       7.566   3.499  27.140  0.00  0.00    +0.210 HD
ENDBRANCH   4   7
BRANCH   5   9
ATOM      9  O   UNL     1       5.870   0.083  27.533  0.00  0.00    -0.386 OA
ATOM     10  H   UNL     1       6.508  -0.587  27.215  0.00  0.00    +0.210 HD
ENDBRANCH   5   9
BRANCH   6  11
ATOM     11  O   UNL     1       6.738   3.433  28.900  0.00  0.00    -0.384 OA
ATOM     12  H   UNL     1       6.160   4.200  29.097  0.00  0.00    +0.210 HD
ENDBRANCH   6  11
BRANCH   3  13
ATOM     13  C   UNL     1       4.550   2.154  24.546  0.00  0.00    +0.197 C 
BRANCH  13  14
ATOM     14  O   UNL     1       4.011   3.002  23.526  0.00  0.00    -0.346 OA
BRANCH  14  15
ATOM     15  C   UNL     1       4.855   3.906  22.709  0.00  0.00    +0.282 C 
ATOM     16  O   UNL     1       6.053   3.193  22.322  0.00  0.00    -0.341 OA
ATOM     17  C   UNL     1       7.333   3.809  22.089  0.00  0.00    +0.178 C 
ATOM     18  C   UNL     1       7.550   5.263  22.525  0.00  0.00    +0.177 C 
ATOM     19  C   UNL     1       6.495   5.773  23.497  0.00  0.00    +0.179 C 
ATOM     20  C   UNL     1       5.058   5.402  23.113  0.00  0.00    +0.201 C 
BRANCH  18  21
ATOM     21  O   UNL     1       7.577   6.085  21.338  0.00  0.00    -0.386 OA
ATOM     22  H   UNL     1       6.788   6.663  21.376  0.00  0.00    +0.210 HD
ENDBRANCH  18  21
BRANCH  19  23
ATOM     23  O   UNL     1       6.798   5.381  24.834  0.00  0.00    -0.386 OA
ATOM     24  H   UNL     1       6.008   5.017  25.273  0.00  0.00    +0.210 HD
ENDBRANCH  19  23
BRANCH  20  25
ATOM     25  O   UNL     1       4.611   6.274  22.051  0.00  0.00    -0.384 OA
ATOM     26  H   UNL     1       3.841   5.865  21.615  0.00  0.00    +0.210 HD
ENDBRANCH  20  25
BRANCH  17  27
ATOM     27  C   UNL     1       8.469   2.917  22.696  0.00  0.00    +0.197 C 
BRANCH  27  28
ATOM     28  O   UNL     1       8.013   1.786  23.460  0.00  0.00    -0.346 OA
BRANCH  28  29
ATOM     29  C   UNL     1       8.282   0.532  22.843  0.00  0.00    +0.282 C 
ATOM     30  O   UNL     1       7.766  -0.540  23.625  0.00  0.00    -0.341 OA
ATOM     31  C   UNL     1       8.648  -1.447  24.294  0.00  0.00    +0.178 C 
ATOM     32  C   UNL     1      10.119  -1.483  23.840  0.00  0.00    +0.177 C 
ATOM     33  C   UNL     1      10.640  -0.128  23.348  0.00  0.00    +0.179 C 
ATOM     34  C   UNL     1       9.698   0.396  22.272  0.00  0.00    +0.201 C 
BRANCH  34  35
ATOM     35  O   UNL     1       9.690  -0.531  21.160  0.00  0.00    -0.384 OA
ATOM     36  H   UNL     1      10.130  -1.357  21.447  0.00  0.00    +0.210 HD
ENDBRANCH  34  35
BRANCH  33  37
ATOM     37  O   UNL     1      10.828   0.824  24.390  0.00  0.00    -0.386 OA
ATOM     38  H   UNL     1      10.178   0.651  25.105  0.00  0.00    +0.210 HD
ENDBRANCH  33  37
BRANCH  32  39
ATOM     39  O   UNL     1      10.225  -2.469  22.787  0.00  0.00    -0.386 OA
ATOM     40  H   UNL     1       9.329  -2.579  22.395  0.00  0.00    +0.210 HD
ENDBRANCH  32  39
BRANCH  31  41
ATOM     41  C   UNL     1       8.490  -1.327  25.818  0.00  0.00    +0.190 C 
BRANCH  41  42
ATOM     42  O   UNL     1       9.397  -0.392  26.387  0.00  0.00    -0.392 OA
ATOM     43  H   UNL     1       9.821   0.068  25.637  0.00  0.00    +0.210 HD
ENDBRANCH  41  42
ENDBRANCH  31  41
ENDBRANCH  28  29
ENDBRANCH  27  28
ENDBRANCH  17  27
ENDBRANCH  14  15
ENDBRANCH  13  14
ENDBRANCH   3  13
BRANCH   1  44
ATOM     44  O   UNL     1       3.714   1.738  27.563  0.00  0.00    -0.346 OA
BRANCH  44  45
ATOM     45  C   UNL     1       2.375   1.897  28.011  0.00  0.00    +0.197 C 
BRANCH  45  48
ATOM     46  C   UNL     1       2.501  -1.785  27.747  0.00  0.00    +0.340 C 
ATOM     47  O   UNL     1       2.349  -0.389  27.411  0.00  0.00    -0.331 OA
ATOM     48  C   UNL     1       1.678   0.554  28.281  0.00  0.00    +0.179 C 
ATOM     49  C   UNL     1       1.766   0.316  29.804  0.00  0.00    +0.177 C 
ATOM     50  C   UNL     1       2.622  -0.907  30.074  0.00  0.00    +0.180 C 
ATOM     51  C   UNL     1       2.091  -2.054  29.198  0.00  0.00    +0.214 C 
BRANCH  49  52
ATOM     52  O   UNL     1       0.444   0.184  30.351  0.00  0.00    -0.386 OA
ATOM     53  H   UNL     1       0.515   0.301  31.325  0.00  0.00    +0.210 HD
ENDBRANCH  49  52
BRANCH  50  54
ATOM     54  O   UNL     1       4.011  -0.604  29.828  0.00  0.00    -0.386 OA
ATOM     55  H   UNL     1       4.484  -0.605  30.683  0.00  0.00    +0.210 HD
ENDBRANCH  50  54
BRANCH  51  56
ATOM     56  O   UNL     1       0.660  -2.167  29.349  0.00  0.00    -0.383 OA
ATOM     57  H   UNL     1       0.470  -2.708  30.140  0.00  0.00    +0.210 HD
ENDBRANCH  51  56
BRANCH  46  58
ATOM     58  O   UNL     1       3.897  -2.094  27.560  0.00  0.00    -0.453 OA
BRANCH  58  69
ATOM     59  C   UNL     1       4.309  -4.290  26.708  0.00  0.00    +0.181 A 
ATOM     60  O   UNL     1       4.913  -5.205  25.859  0.00  0.00    -0.451 OA
ATOM     61  C   UNL     1       5.401  -4.801  24.661  0.00  0.00    +0.147 A 
ATOM     62  C   UNL     1       5.349  -3.484  24.220  0.00  0.00    +0.109 A 
ATOM     63  C   UNL     1       5.729  -3.214  22.896  0.00  0.00    +0.135 A 
ATOM     64  C   UNL     1       6.242  -4.221  22.079  0.00  0.00    +0.091 A 
ATOM     65  C   UNL     1       6.412  -5.502  22.584  0.00  0.00    +0.124 A 
ATOM     66  C   UNL     1       4.935  -2.468  25.215  0.00  0.00    +0.238 A 
ATOM     67  O   UNL     1       5.074  -1.272  24.939  0.00  0.00    -0.283 OA
ATOM     68  C   UNL     1       5.954  -5.805  23.860  0.00  0.00    +0.092 A 
ATOM     69  C   UNL     1       4.361  -2.952  26.551  0.00  0.00    +0.214 A 
BRANCH  59  71
ATOM     70  C   UNL     1       4.335  -5.119  29.067  0.00  0.00    +0.015 A 
ATOM     71  C   UNL     1       3.672  -5.067  27.820  0.00  0.00    +0.025 A 
ATOM     72  C   UNL     1       2.655  -6.001  27.562  0.00  0.00    +0.060 A 
ATOM     73  C   UNL     1       2.404  -7.018  28.491  0.00  0.00    +0.159 A 
ATOM     74  C   UNL     1       3.126  -7.108  29.682  0.00  0.00    +0.158 A 
ATOM     75  C   UNL     1       4.065  -6.139  29.992  0.00  0.00    +0.050 A 
BRANCH  74  76
ATOM     76  O   UNL     1       2.921  -8.201  30.477  0.00  0.00    -0.503 OA
ATOM     77  H   UNL     1       3.781  -8.611  30.666  0.00  0.00    +0.292 HD
ENDBRANCH  74  76
BRANCH  73  78
ATOM     78  O   UNL     1       1.489  -7.996  28.220  0.00  0.00    -0.503 OA
ATOM     79  H   UNL     1       1.106  -7.752  27.360  0.00  0.00    +0.292 HD
ENDBRANCH  73  78
ENDBRANCH  59  71
BRANCH  65  80
ATOM     80  O   UNL     1       7.013  -6.490  21.865  0.00  0.00    -0.507 OA
ATOM     81  H   UNL     1       6.709  -6.438  20.943  0.00  0.00    +0.292 HD
ENDBRANCH  65  80
BRANCH  63  82
ATOM     82  O   UNL     1       5.640  -1.980  22.302  0.00  0.00    -0.506 OA
ATOM     83  H   UNL     1       6.539  -1.683  22.053  0.00  0.00    +0.292 HD
ENDBRANCH  63  82
ENDBRANCH  58  69
ENDBRANCH  46  58
ENDBRANCH  45  48
ENDBRANCH  44  45
ENDBRANCH   1  44
TORSDOF 30
ENDMDL
MODEL 4
REMARK VINA RESULT:      -5.6      1.274      2.139
REMARK  Name = 
REMARK  30 active torsions:
REMARK  status: ('A' for Active; 'I' for Inactive)
REMARK    1  A    between atoms: C_3  and  O_86
REMARK    2  A    between atoms: C_4  and  O_85
REMARK    3  A    between atoms: C_6  and  C_7
REMARK    4  A    between atoms: C_8  and  O_20
REMARK    5  A    between atoms: C_12  and  O_19
REMARK    6  A    between atoms: C_14  and  O_18
REMARK    7  A    between atoms: O_20  and  C_21
REMARK    8  A    between atoms: C_23  and  O_84
REMARK    9  A    between atoms: C_25  and  O_83
REMARK   10  A    between atoms: C_27  and  O_82
REMARK   11  A    between atoms: C_29  and  C_32
REMARK   12  A    between atoms: C_32  and  O_33
REMARK   13  A    between atoms: O_33  and  C_34
REMARK   14  A    between atoms: C_36  and  O_81
REMARK   15  A    between atoms: C_38  and  O_80
REMARK   16  A    between atoms: C_40  and  O_79
REMARK   17  A    between atoms: C_42  and  C_45
REMARK   18  A    between atoms: C_45  and  O_46
REMARK   19  A    between atoms: O_46  and  C_47
REMARK   20  A    between atoms: C_49  and  O_78
REMARK   21  A    between atoms: C_51  and  O_77
REMARK   22  A    between atoms: C_53  and  O_76
REMARK   23  A    between atoms: C_55  and  C_58
REMARK   24  A    between atoms: C_58  and  O_59
REMARK   25  A    between atoms: O_59  and  C_60
REMARK   26  A    between atoms: C_62  and  O_75
REMARK   27  A    between atoms: C_64  and  O_74
REMARK   28  A    between atoms: C_66  and  O_73
REMARK   29  A    between atoms: C_68  and  C_71
REMARK   30  A    between atoms: C_71  and  O_72
REMARK                            x       y       z     vdW  Elec       q    Type
REMARK                         _______ _______ _______ _____ _____    ______ ____
ROOT
ATOM      1  C   UNL     1      10.000  -0.913  23.065  0.00  0.00    +0.282 C 
ATOM      2  O   UNL     1      10.078   0.457  23.470  0.00  0.00    -0.341 OA
ATOM      3  C   UNL     1       8.850   1.024  23.953  0.00  0.00    +0.178 C 
ATOM      4  C   UNL     1       7.631   0.698  23.036  0.00  0.00    +0.177 C 
ATOM      5  C   UNL     1       7.598  -0.716  22.428  0.00  0.00    +0.179 C 
ATOM      6  C   UNL     1       8.994  -1.113  21.909  0.00  0.00    +0.201 C 
ENDROOT
BRANCH   4   7
ATOM      7  O   UNL     1       7.743   1.556  21.862  0.00  0.00    -0.386 OA
ATOM      8  H   UNL     1       7.973   2.450  22.165  0.00  0.00    +0.210 HD
ENDBRANCH   4   7
BRANCH   5   9
ATOM      9  O   UNL     1       7.066  -1.657  23.360  0.00  0.00    -0.386 OA
ATOM     10  H   UNL     1       7.648  -1.649  24.146  0.00  0.00    +0.210 HD
ENDBRANCH   5   9
BRANCH   6  11
ATOM     11  O   UNL     1       9.376  -0.370  20.744  0.00  0.00    -0.384 OA
ATOM     12  H   UNL     1       8.811  -0.681  20.005  0.00  0.00    +0.210 HD
ENDBRANCH   6  11
BRANCH   3  13
ATOM     13  C   UNL     1       8.767   1.046  25.540  0.00  0.00    +0.197 C 
BRANCH  13  14
ATOM     14  O   UNL     1       7.700   1.731  26.205  0.00  0.00    -0.346 OA
BRANCH  14  15
ATOM     15  C   UNL     1       7.549   3.205  26.164  0.00  0.00    +0.282 C 
ATOM     16  O   UNL     1       6.298   3.558  26.800  0.00  0.00    -0.341 OA
ATOM     17  C   UNL     1       5.501   4.707  26.457  0.00  0.00    +0.178 C 
ATOM     18  C   UNL     1       5.822   5.479  25.172  0.00  0.00    +0.177 C 
ATOM     19  C   UNL     1       6.720   4.715  24.208  0.00  0.00    +0.179 C 
ATOM     20  C   UNL     1       7.908   4.017  24.879  0.00  0.00    +0.201 C 
BRANCH  18  21
ATOM     21  O   UNL     1       6.440   6.730  25.546  0.00  0.00    -0.386 OA
ATOM     22  H   UNL     1       6.212   7.378  24.850  0.00  0.00    +0.210 HD
ENDBRANCH  18  21
BRANCH  19  23
ATOM     23  O   UNL     1       5.960   3.807  23.412  0.00  0.00    -0.386 OA
ATOM     24  H   UNL     1       5.371   4.291  22.805  0.00  0.00    +0.210 HD
ENDBRANCH  19  23
BRANCH  20  25
ATOM     25  O   UNL     1       8.929   4.997  25.172  0.00  0.00    -0.384 OA
ATOM     26  H   UNL     1       9.727   4.779  24.656  0.00  0.00    +0.210 HD
ENDBRANCH  20  25
BRANCH  17  27
ATOM     27  C   UNL     1       3.984   4.319  26.456  0.00  0.00    +0.197 C 
BRANCH  27  28
ATOM     28  O   UNL     1       3.310   4.491  25.195  0.00  0.00    -0.346 OA
BRANCH  28  29
ATOM     29  C   UNL     1       2.728   3.295  24.689  0.00  0.00    +0.282 C 
ATOM     30  O   UNL     1       3.274   2.964  23.417  0.00  0.00    -0.341 OA
ATOM     31  C   UNL     1       2.473   3.050  22.234  0.00  0.00    +0.178 C 
ATOM     32  C   UNL     1       0.944   3.118  22.406  0.00  0.00    +0.177 C 
ATOM     33  C   UNL     1       0.505   3.840  23.685  0.00  0.00    +0.179 C 
ATOM     34  C   UNL     1       1.210   3.200  24.874  0.00  0.00    +0.201 C 
BRANCH  34  35
ATOM     35  O   UNL     1       0.813   1.811  24.965  0.00  0.00    -0.384 OA
ATOM     36  H   UNL     1       1.014   1.493  25.868  0.00  0.00    +0.210 HD
ENDBRANCH  34  35
BRANCH  33  37
ATOM     37  O   UNL     1       0.715   5.249  23.646  0.00  0.00    -0.386 OA
ATOM     38  H   UNL     1       0.358   5.604  22.803  0.00  0.00    +0.210 HD
ENDBRANCH  33  37
BRANCH  32  39
ATOM     39  O   UNL     1       0.445   1.761  22.405  0.00  0.00    -0.386 OA
ATOM     40  H   UNL     1      -0.265   1.708  21.726  0.00  0.00    +0.210 HD
ENDBRANCH  32  39
BRANCH  31  41
ATOM     41  C   UNL     1       3.023   4.129  21.289  0.00  0.00    +0.190 C 
BRANCH  41  42
ATOM     42  O   UNL     1       3.673   5.183  21.987  0.00  0.00    -0.392 OA
ATOM     43  H   UNL     1       3.143   5.346  22.791  0.00  0.00    +0.210 HD
ENDBRANCH  41  42
ENDBRANCH  31  41
ENDBRANCH  28  29
ENDBRANCH  27  28
ENDBRANCH  17  27
ENDBRANCH  14  15
ENDBRANCH  13  14
ENDBRANCH   3  13
BRANCH   1  44
ATOM     44  O   UNL     1       9.648  -1.679  24.210  0.00  0.00    -0.346 OA
BRANCH  44  45
ATOM     45  C   UNL     1       9.915  -3.072  24.110  0.00  0.00    +0.197 C 
BRANCH  45  48
ATOM     46  C   UNL     1       7.004  -3.748  26.281  0.00  0.00    +0.340 C 
ATOM     47  O   UNL     1       8.169  -3.120  25.702  0.00  0.00    -0.331 OA
ATOM     48  C   UNL     1       9.334  -3.872  25.287  0.00  0.00    +0.179 C 
ATOM     49  C   UNL     1       9.116  -5.310  24.770  0.00  0.00    +0.177 C 
ATOM     50  C   UNL     1       7.632  -5.627  24.774  0.00  0.00    +0.180 C 
ATOM     51  C   UNL     1       7.080  -5.273  26.164  0.00  0.00    +0.214 C 
BRANCH  49  52
ATOM     52  O   UNL     1       9.869  -6.233  25.572  0.00  0.00    -0.386 OA
ATOM     53  H   UNL     1      10.506  -6.690  24.978  0.00  0.00    +0.210 HD
ENDBRANCH  49  52
BRANCH  50  54
ATOM     54  O   UNL     1       6.971  -4.917  23.705  0.00  0.00    -0.386 OA
ATOM     55  H   UNL     1       6.421  -5.551  23.206  0.00  0.00    +0.210 HD
ENDBRANCH  50  54
BRANCH  51  56
ATOM     56  O   UNL     1       7.913  -5.858  27.188  0.00  0.00    -0.383 OA
ATOM     57  H   UNL     1       7.413  -5.874  28.027  0.00  0.00    +0.210 HD
ENDBRANCH  51  56
BRANCH  46  58
ATOM     58  O   UNL     1       5.870  -3.249  25.544  0.00  0.00    -0.453 OA
BRANCH  58  69
ATOM     59  C   UNL     1       3.579  -2.927  26.149  0.00  0.00    +0.181 A 
ATOM     60  O   UNL     1       2.486  -2.163  26.531  0.00  0.00    -0.451 OA
ATOM     61  C   UNL     1       2.671  -0.975  27.155  0.00  0.00    +0.147 A 
ATOM     62  C   UNL     1       3.927  -0.445  27.430  0.00  0.00    +0.109 A 
ATOM     63  C   UNL     1       3.998   0.707  28.230  0.00  0.00    +0.135 A 
ATOM     64  C   UNL     1       2.839   1.359  28.649  0.00  0.00    +0.091 A 
ATOM     65  C   UNL     1       1.597   0.890  28.249  0.00  0.00    +0.124 A 
ATOM     66  C   UNL     1       5.086  -1.127  26.808  0.00  0.00    +0.238 A 
ATOM     67  O   UNL     1       6.192  -0.579  26.847  0.00  0.00    -0.283 OA
ATOM     68  C   UNL     1       1.509  -0.300  27.538  0.00  0.00    +0.092 A 
ATOM     69  C   UNL     1       4.852  -2.484  26.133  0.00  0.00    +0.214 A 
BRANCH  59  71
ATOM     70  C   UNL     1       3.343  -5.388  26.520  0.00  0.00    +0.015 A 
ATOM     71  C   UNL     1       3.059  -4.263  25.714  0.00  0.00    +0.025 A 
ATOM     72  C   UNL     1       2.619  -4.476  24.397  0.00  0.00    +0.060 A 
ATOM     73  C   UNL     1       2.580  -5.780  23.887  0.00  0.00    +0.159 A 
ATOM     74  C   UNL     1       2.947  -6.876  24.670  0.00  0.00    +0.158 A 
ATOM     75  C   UNL     1       3.291  -6.689  25.998  0.00  0.00    +0.050 A 
BRANCH  74  76
ATOM     76  O   UNL     1       3.014  -8.101  24.066  0.00  0.00    -0.503 OA
ATOM     77  H   UNL     1       3.796  -8.568  24.405  0.00  0.00    +0.292 HD
ENDBRANCH  74  76
BRANCH  73  78
ATOM     78  O   UNL     1       2.251  -6.005  22.581  0.00  0.00    -0.503 OA
ATOM     79  H   UNL     1       2.494  -5.187  22.115  0.00  0.00    +0.292 HD
ENDBRANCH  73  78
ENDBRANCH  59  71
BRANCH  65  80
ATOM     80  O   UNL     1       0.444   1.554  28.537  0.00  0.00    -0.507 OA
ATOM     81  H   UNL     1      -0.037   1.723  27.708  0.00  0.00    +0.292 HD
ENDBRANCH  65  80
BRANCH  63  82
ATOM     82  O   UNL     1       5.170   1.282  28.655  0.00  0.00    -0.506 OA
ATOM     83  H   UNL     1       5.785   0.574  28.936  0.00  0.00    +0.292 HD
ENDBRANCH  63  82
ENDBRANCH  58  69
ENDBRANCH  46  58
ENDBRANCH  45  48
ENDBRANCH  44  45
ENDBRANCH   1  44
TORSDOF 30
ENDMDL
MODEL 5
REMARK VINA RESULT:      -5.6      2.074      8.927
REMARK  Name = 
REMARK  30 active torsions:
REMARK  status: ('A' for Active; 'I' for Inactive)
REMARK    1  A    between atoms: C_3  and  O_86
REMARK    2  A    between atoms: C_4  and  O_85
REMARK    3  A    between atoms: C_6  and  C_7
REMARK    4  A    between atoms: C_8  and  O_20
REMARK    5  A    between atoms: C_12  and  O_19
REMARK    6  A    between atoms: C_14  and  O_18
REMARK    7  A    between atoms: O_20  and  C_21
REMARK    8  A    between atoms: C_23  and  O_84
REMARK    9  A    between atoms: C_25  and  O_83
REMARK   10  A    between atoms: C_27  and  O_82
REMARK   11  A    between atoms: C_29  and  C_32
REMARK   12  A    between atoms: C_32  and  O_33
REMARK   13  A    between atoms: O_33  and  C_34
REMARK   14  A    between atoms: C_36  and  O_81
REMARK   15  A    between atoms: C_38  and  O_80
REMARK   16  A    between atoms: C_40  and  O_79
REMARK   17  A    between atoms: C_42  and  C_45
REMARK   18  A    between atoms: C_45  and  O_46
REMARK   19  A    between atoms: O_46  and  C_47
REMARK   20  A    between atoms: C_49  and  O_78
REMARK   21  A    between atoms: C_51  and  O_77
REMARK   22  A    between atoms: C_53  and  O_76
REMARK   23  A    between atoms: C_55  and  C_58
REMARK   24  A    between atoms: C_58  and  O_59
REMARK   25  A    between atoms: O_59  and  C_60
REMARK   26  A    between atoms: C_62  and  O_75
REMARK   27  A    between atoms: C_64  and  O_74
REMARK   28  A    between atoms: C_66  and  O_73
REMARK   29  A    between atoms: C_68  and  C_71
REMARK   30  A    between atoms: C_71  and  O_72
REMARK                            x       y       z     vdW  Elec       q    Type
REMARK                         _______ _______ _______ _____ _____    ______ ____
ROOT
ATOM      1  C   UNL     1       5.068   1.001  26.036  0.00  0.00    +0.282 C 
ATOM      2  O   UNL     1       5.484  -0.039  25.147  0.00  0.00    -0.341 OA
ATOM      3  C   UNL     1       5.647  -1.332  25.750  0.00  0.00    +0.178 C 
ATOM      4  C   UNL     1       6.446  -1.279  27.089  0.00  0.00    +0.177 C 
ATOM      5  C   UNL     1       6.161  -0.073  28.002  0.00  0.00    +0.179 C 
ATOM      6  C   UNL     1       6.090   1.225  27.174  0.00  0.00    +0.201 C 
ENDROOT
BRANCH   4   7
ATOM      7  O   UNL     1       7.850  -1.098  26.737  0.00  0.00    -0.386 OA
ATOM      8  H   UNL     1       7.899  -0.419  26.043  0.00  0.00    +0.210 HD
ENDBRANCH   4   7
BRANCH   5   9
ATOM      9  O   UNL     1       4.989  -0.296  28.786  0.00  0.00    -0.386 OA
ATOM     10  H   UNL     1       4.562  -1.108  28.446  0.00  0.00    +0.210 HD
ENDBRANCH   5   9
BRANCH   6  11
ATOM     11  O   UNL     1       7.370   1.620  26.664  0.00  0.00    -0.384 OA
ATOM     12  H   UNL     1       7.396   1.361  25.718  0.00  0.00    +0.210 HD
ENDBRANCH   6  11
BRANCH   3  13
ATOM     13  C   UNL     1       4.391  -2.278  25.520  0.00  0.00    +0.197 C 
BRANCH  13  14
ATOM     14  O   UNL     1       4.542  -3.703  25.513  0.00  0.00    -0.346 OA
BRANCH  14  15
ATOM     15  C   UNL     1       5.308  -4.419  24.466  0.00  0.00    +0.282 C 
ATOM     16  O   UNL     1       6.715  -4.131  24.645  0.00  0.00    -0.341 OA
ATOM     17  C   UNL     1       7.684  -4.090  23.581  0.00  0.00    +0.178 C 
ATOM     18  C   UNL     1       7.195  -4.082  22.128  0.00  0.00    +0.177 C 
ATOM     19  C   UNL     1       5.718  -3.741  21.983  0.00  0.00    +0.179 C 
ATOM     20  C   UNL     1       4.808  -4.457  22.986  0.00  0.00    +0.201 C 
BRANCH  18  21
ATOM     21  O   UNL     1       7.467  -5.382  21.559  0.00  0.00    -0.386 OA
ATOM     22  H   UNL     1       7.547  -6.007  22.307  0.00  0.00    +0.210 HD
ENDBRANCH  18  21
BRANCH  19  23
ATOM     23  O   UNL     1       5.515  -2.329  22.005  0.00  0.00    -0.386 OA
ATOM     24  H   UNL     1       5.834  -1.949  22.843  0.00  0.00    +0.210 HD
ENDBRANCH  19  23
BRANCH  20  25
ATOM     25  O   UNL     1       4.612  -5.824  22.557  0.00  0.00    -0.384 OA
ATOM     26  H   UNL     1       5.465  -6.293  22.613  0.00  0.00    +0.210 HD
ENDBRANCH  20  25
BRANCH  17  27
ATOM     27  C   UNL     1       8.662  -2.887  23.800  0.00  0.00    +0.197 C 
BRANCH  27  28
ATOM     28  O   UNL     1       8.119  -1.593  23.477  0.00  0.00    -0.346 OA
BRANCH  28  29
ATOM     29  C   UNL     1       8.892  -0.869  22.527  0.00  0.00    +0.282 C 
ATOM     30  O   UNL     1      10.215  -0.657  23.004  0.00  0.00    -0.341 OA
ATOM     31  C   UNL     1      10.663   0.656  23.357  0.00  0.00    +0.178 C 
ATOM     32  C   UNL     1       9.843   1.855  22.847  0.00  0.00    +0.177 C 
ATOM     33  C   UNL     1       8.344   1.563  22.725  0.00  0.00    +0.179 C 
ATOM     34  C   UNL     1       8.157   0.310  21.879  0.00  0.00    +0.201 C 
BRANCH  34  35
ATOM     35  O   UNL     1       8.693   0.552  20.555  0.00  0.00    -0.384 OA
ATOM     36  H   UNL     1       7.975   0.912  19.995  0.00  0.00    +0.210 HD
ENDBRANCH  34  35
BRANCH  33  37
ATOM     37  O   UNL     1       7.681   1.450  23.981  0.00  0.00    -0.386 OA
ATOM     38  H   UNL     1       6.716   1.353  23.828  0.00  0.00    +0.210 HD
ENDBRANCH  33  37
BRANCH  32  39
ATOM     39  O   UNL     1      10.382   2.234  21.559  0.00  0.00    -0.386 OA
ATOM     40  H   UNL     1      11.072   1.573  21.322  0.00  0.00    +0.210 HD
ENDBRANCH  32  39
BRANCH  31  41
ATOM     41  C   UNL     1      10.974   0.733  24.860  0.00  0.00    +0.190 C 
BRANCH  41  42
ATOM     42  O   UNL     1       9.865   0.356  25.665  0.00  0.00    -0.392 OA
ATOM     43  H   UNL     1       9.552   1.173  26.099  0.00  0.00    +0.210 HD
ENDBRANCH  41  42
ENDBRANCH  31  41
ENDBRANCH  28  29
ENDBRANCH  27  28
ENDBRANCH  17  27
ENDBRANCH  14  15
ENDBRANCH  13  14
ENDBRANCH   3  13
BRANCH   1  44
ATOM     44  O   UNL     1       3.786   0.649  26.539  0.00  0.00    -0.346 OA
BRANCH  44  45
ATOM     45  C   UNL     1       2.802   1.672  26.455  0.00  0.00    +0.197 C 
BRANCH  45  48
ATOM     46  C   UNL     1       3.905   4.953  27.745  0.00  0.00    +0.340 C 
ATOM     47  O   UNL     1       3.913   3.577  27.306  0.00  0.00    -0.331 OA
ATOM     48  C   UNL     1       2.858   2.645  27.643  0.00  0.00    +0.179 C 
ATOM     49  C   UNL     1       1.430   3.205  27.814  0.00  0.00    +0.177 C 
ATOM     50  C   UNL     1       1.438   4.697  27.535  0.00  0.00    +0.180 C 
ATOM     51  C   UNL     1       2.560   5.327  28.376  0.00  0.00    +0.214 C 
BRANCH  49  52
ATOM     52  O   UNL     1       0.945   2.904  29.132  0.00  0.00    -0.386 OA
ATOM     53  H   UNL     1       1.334   2.041  29.400  0.00  0.00    +0.210 HD
ENDBRANCH  49  52
BRANCH  50  54
ATOM     54  O   UNL     1       1.589   4.936  26.120  0.00  0.00    -0.386 OA
ATOM     55  H   UNL     1       2.502   4.702  25.862  0.00  0.00    +0.210 HD
ENDBRANCH  50  54
BRANCH  51  56
ATOM     56  O   UNL     1       2.458   4.881  29.745  0.00  0.00    -0.383 OA
ATOM     57  H   UNL     1       2.024   5.581  30.271  0.00  0.00    +0.210 HD
ENDBRANCH  51  56
BRANCH  46  58
ATOM     58  O   UNL     1       4.140   5.752  26.567  0.00  0.00    -0.453 OA
BRANCH  58  69
ATOM     59  C   UNL     1       5.326   5.338  24.533  0.00  0.00    +0.181 A 
ATOM     60  O   UNL     1       6.463   5.069  23.785  0.00  0.00    -0.451 OA
ATOM     61  C   UNL     1       7.687   5.394  24.268  0.00  0.00    +0.147 A 
ATOM     62  C   UNL     1       7.885   5.982  25.512  0.00  0.00    +0.109 A 
ATOM     63  C   UNL     1       9.177   6.430  25.834  0.00  0.00    +0.135 A 
ATOM     64  C   UNL     1      10.249   6.197  24.974  0.00  0.00    +0.091 A 
ATOM     65  C   UNL     1      10.053   5.487  23.798  0.00  0.00    +0.124 A 
ATOM     66  C   UNL     1       6.710   6.042  26.412  0.00  0.00    +0.238 A 
ATOM     67  O   UNL     1       6.880   6.359  27.594  0.00  0.00    -0.283 OA
ATOM     68  C   UNL     1       8.767   5.122  23.423  0.00  0.00    +0.092 A 
ATOM     69  C   UNL     1       5.334   5.696  25.833  0.00  0.00    +0.214 A 
BRANCH  59  71
ATOM     70  C   UNL     1       3.591   3.789  23.614  0.00  0.00    +0.015 A 
ATOM     71  C   UNL     1       4.142   5.090  23.648  0.00  0.00    +0.025 A 
ATOM     72  C   UNL     1       3.802   5.990  22.625  0.00  0.00    +0.060 A 
ATOM     73  C   UNL     1       3.023   5.545  21.550  0.00  0.00    +0.159 A 
ATOM     74  C   UNL     1       2.556   4.231  21.486  0.00  0.00    +0.158 A 
ATOM     75  C   UNL     1       2.805   3.361  22.534  0.00  0.00    +0.050 A 
BRANCH  74  76
ATOM     76  O   UNL     1       1.918   3.832  20.345  0.00  0.00    -0.503 OA
ATOM     77  H   UNL     1       2.305   2.989  20.055  0.00  0.00    +0.292 HD
ENDBRANCH  74  76
BRANCH  73  78
ATOM     78  O   UNL     1       2.760   6.372  20.494  0.00  0.00    -0.503 OA
ATOM     79  H   UNL     1       2.539   7.230  20.894  0.00  0.00    +0.292 HD
ENDBRANCH  73  78
ENDBRANCH  59  71
BRANCH  65  80
ATOM     80  O   UNL     1      11.085   5.136  22.983  0.00  0.00    -0.507 OA
ATOM     81  H   UNL     1      11.277   4.191  23.107  0.00  0.00    +0.292 HD
ENDBRANCH  65  80
BRANCH  63  82
ATOM     82  O   UNL     1       9.496   7.108  26.984  0.00  0.00    -0.506 OA
ATOM     83  H   UNL     1      10.437   6.942  27.198  0.00  0.00    +0.292 HD
ENDBRANCH  63  82
ENDBRANCH  58  69
ENDBRANCH  46  58
ENDBRANCH  45  48
ENDBRANCH  44  45
ENDBRANCH   1  44
TORSDOF 30
ENDMDL
MODEL 6
REMARK VINA RESULT:      -5.4      1.610      2.826
REMARK  Name = 
REMARK  30 active torsions:
REMARK  status: ('A' for Active; 'I' for Inactive)
REMARK    1  A    between atoms: C_3  and  O_86
REMARK    2  A    between atoms: C_4  and  O_85
REMARK    3  A    between atoms: C_6  and  C_7
REMARK    4  A    between atoms: C_8  and  O_20
REMARK    5  A    between atoms: C_12  and  O_19
REMARK    6  A    between atoms: C_14  and  O_18
REMARK    7  A    between atoms: O_20  and  C_21
REMARK    8  A    between atoms: C_23  and  O_84
REMARK    9  A    between atoms: C_25  and  O_83
REMARK   10  A    between atoms: C_27  and  O_82
REMARK   11  A    between atoms: C_29  and  C_32
REMARK   12  A    between atoms: C_32  and  O_33
REMARK   13  A    between atoms: O_33  and  C_34
REMARK   14  A    between atoms: C_36  and  O_81
REMARK   15  A    between atoms: C_38  and  O_80
REMARK   16  A    between atoms: C_40  and  O_79
REMARK   17  A    between atoms: C_42  and  C_45
REMARK   18  A    between atoms: C_45  and  O_46
REMARK   19  A    between atoms: O_46  and  C_47
REMARK   20  A    between atoms: C_49  and  O_78
REMARK   21  A    between atoms: C_51  and  O_77
REMARK   22  A    between atoms: C_53  and  O_76
REMARK   23  A    between atoms: C_55  and  C_58
REMARK   24  A    between atoms: C_58  and  O_59
REMARK   25  A    between atoms: O_59  and  C_60
REMARK   26  A    between atoms: C_62  and  O_75
REMARK   27  A    between atoms: C_64  and  O_74
REMARK   28  A    between atoms: C_66  and  O_73
REMARK   29  A    between atoms: C_68  and  C_71
REMARK   30  A    between atoms: C_71  and  O_72
REMARK                            x       y       z     vdW  Elec       q    Type
REMARK                         _______ _______ _______ _____ _____    ______ ____
ROOT
ATOM      1  C   UNL     1       9.416   0.034  23.129  0.00  0.00    +0.282 C 
ATOM      2  O   UNL     1       9.691   0.854  24.268  0.00  0.00    -0.341 OA
ATOM      3  C   UNL     1       8.600   1.677  24.709  0.00  0.00    +0.178 C 
ATOM      4  C   UNL     1       7.897   2.428  23.536  0.00  0.00    +0.177 C 
ATOM      5  C   UNL     1       7.739   1.641  22.223  0.00  0.00    +0.179 C 
ATOM      6  C   UNL     1       9.038   0.879  21.891  0.00  0.00    +0.201 C 
ENDROOT
BRANCH   4   7
ATOM      7  O   UNL     1       8.772   3.530  23.153  0.00  0.00    -0.386 OA
ATOM      8  H   UNL     1       9.552   3.509  23.733  0.00  0.00    +0.210 HD
ENDBRANCH   4   7
BRANCH   5   9
ATOM      9  O   UNL     1       6.595   0.788  22.277  0.00  0.00    -0.386 OA
ATOM     10  H   UNL     1       5.829   1.307  21.961  0.00  0.00    +0.210 HD
ENDBRANCH   5   9
BRANCH   6  11
ATOM     11  O   UNL     1      10.103   1.757  21.506  0.00  0.00    -0.384 OA
ATOM     12  H   UNL     1       9.877   2.118  20.623  0.00  0.00    +0.210 HD
ENDBRANCH   6  11
BRANCH   3  13
ATOM     13  C   UNL     1       7.814   1.047  25.938  0.00  0.00    +0.197 C 
BRANCH  13  14
ATOM     14  O   UNL     1       6.422   1.319  26.129  0.00  0.00    -0.346 OA
BRANCH  14  15
ATOM     15  C   UNL     1       5.902   2.015  27.330  0.00  0.00    +0.282 C 
ATOM     16  O   UNL     1       4.800   2.863  26.930  0.00  0.00    -0.341 OA
ATOM     17  C   UNL     1       4.437   4.095  27.582  0.00  0.00    +0.178 C 
ATOM     18  C   UNL     1       5.408   4.717  28.592  0.00  0.00    +0.177 C 
ATOM     19  C   UNL     1       6.818   4.149  28.514  0.00  0.00    +0.179 C 
ATOM     20  C   UNL     1       6.872   2.622  28.393  0.00  0.00    +0.201 C 
BRANCH  18  21
ATOM     21  O   UNL     1       4.861   4.519  29.915  0.00  0.00    -0.386 OA
ATOM     22  H   UNL     1       5.385   5.078  30.524  0.00  0.00    +0.210 HD
ENDBRANCH  18  21
BRANCH  19  23
ATOM     23  O   UNL     1       7.569   4.783  27.480  0.00  0.00    -0.386 OA
ATOM     24  H   UNL     1       7.351   5.731  27.429  0.00  0.00    +0.210 HD
ENDBRANCH  19  23
BRANCH  20  25
ATOM     25  O   UNL     1       6.626   2.035  29.691  0.00  0.00    -0.384 OA
ATOM     26  H   UNL     1       6.226   1.155  29.564  0.00  0.00    +0.210 HD
ENDBRANCH  20  25
BRANCH  17  27
ATOM     27  C   UNL     1       4.056   5.170  26.509  0.00  0.00    +0.197 C 
BRANCH  27  28
ATOM     28  O   UNL     1       4.712   5.021  25.236  0.00  0.00    -0.346 OA
BRANCH  28  29
ATOM     29  C   UNL     1       3.876   5.318  24.123  0.00  0.00    +0.282 C 
ATOM     30  O   UNL     1       2.505   5.123  24.451  0.00  0.00    -0.341 OA
ATOM     31  C   UNL     1       1.757   4.054  23.864  0.00  0.00    +0.178 C 
ATOM     32  C   UNL     1       2.335   3.383  22.604  0.00  0.00    +0.177 C 
ATOM     33  C   UNL     1       3.867   3.356  22.574  0.00  0.00    +0.179 C 
ATOM     34  C   UNL     1       4.385   4.773  22.784  0.00  0.00    +0.201 C 
BRANCH  34  35
ATOM     35  O   UNL     1       3.913   5.612  21.703  0.00  0.00    -0.384 OA
ATOM     36  H   UNL     1       2.962   5.796  21.849  0.00  0.00    +0.210 HD
ENDBRANCH  34  35
BRANCH  33  37
ATOM     37  O   UNL     1       4.440   2.444  23.506  0.00  0.00    -0.386 OA
ATOM     38  H   UNL     1       3.839   2.352  24.277  0.00  0.00    +0.210 HD
ENDBRANCH  33  37
BRANCH  32  39
ATOM     39  O   UNL     1       1.828   4.103  21.456  0.00  0.00    -0.386 OA
ATOM     40  H   UNL     1       0.917   3.772  21.279  0.00  0.00    +0.210 HD
ENDBRANCH  32  39
BRANCH  31  41
ATOM     41  C   UNL     1       1.322   3.046  24.939  0.00  0.00    +0.190 C 
BRANCH  41  42
ATOM     42  O   UNL     1       2.400   2.238  25.395  0.00  0.00    -0.392 OA
ATOM     43  H   UNL     1       3.156   2.437  24.809  0.00  0.00    +0.210 HD
ENDBRANCH  41  42
ENDBRANCH  31  41
ENDBRANCH  28  29
ENDBRANCH  27  28
ENDBRANCH  17  27
ENDBRANCH  14  15
ENDBRANCH  13  14
ENDBRANCH   3  13
BRANCH   1  44
ATOM     44  O   UNL     1       8.378  -0.868  23.490  0.00  0.00    -0.346 OA
BRANCH  44  45
ATOM     45  C   UNL     1       8.699  -2.245  23.351  0.00  0.00    +0.197 C 
BRANCH  45  48
ATOM     46  C   UNL     1       7.148  -3.624  26.407  0.00  0.00    +0.340 C 
ATOM     47  O   UNL     1       7.675  -2.697  25.433  0.00  0.00    -0.331 OA
ATOM     48  C   UNL     1       8.901  -2.945  24.705  0.00  0.00    +0.179 C 
ATOM     49  C   UNL     1       9.266  -4.411  24.386  0.00  0.00    +0.177 C 
ATOM     50  C   UNL     1       8.171  -5.325  24.905  0.00  0.00    +0.180 C 
ATOM     51  C   UNL     1       7.905  -4.955  26.373  0.00  0.00    +0.214 C 
BRANCH  49  52
ATOM     52  O   UNL     1      10.548  -4.726  24.952  0.00  0.00    -0.386 OA
ATOM     53  H   UNL     1      10.559  -4.377  25.872  0.00  0.00    +0.210 HD
ENDBRANCH  49  52
BRANCH  50  54
ATOM     54  O   UNL     1       6.998  -5.215  24.073  0.00  0.00    -0.386 OA
ATOM     55  H   UNL     1       7.209  -5.575  23.189  0.00  0.00    +0.210 HD
ENDBRANCH  50  54
BRANCH  51  56
ATOM     56  O   UNL     1       9.152  -4.891  27.098  0.00  0.00    -0.383 OA
ATOM     57  H   UNL     1       9.760  -5.565  26.735  0.00  0.00    +0.210 HD
ENDBRANCH  51  56
BRANCH  46  58
ATOM     58  O   UNL     1       5.764  -3.831  26.057  0.00  0.00    -0.453 OA
BRANCH  58  69
ATOM     59  C   UNL     1       3.491  -3.097  25.971  0.00  0.00    +0.181 A 
ATOM     60  O   UNL     1       2.467  -2.183  26.174  0.00  0.00    -0.451 OA
ATOM     61  C   UNL     1       2.596  -1.214  27.112  0.00  0.00    +0.147 A 
ATOM     62  C   UNL     1       3.733  -1.060  27.897  0.00  0.00    +0.109 A 
ATOM     63  C   UNL     1       3.688  -0.132  28.951  0.00  0.00    +0.135 A 
ATOM     64  C   UNL     1       2.573   0.684  29.138  0.00  0.00    +0.091 A 
ATOM     65  C   UNL     1       1.503   0.607  28.259  0.00  0.00    +0.124 A 
ATOM     66  C   UNL     1       4.917  -1.865  27.517  0.00  0.00    +0.238 A 
ATOM     67  O   UNL     1       6.004  -1.613  28.045  0.00  0.00    -0.283 OA
ATOM     68  C   UNL     1       1.494  -0.369  27.271  0.00  0.00    +0.092 A 
ATOM     69  C   UNL     1       4.735  -2.974  26.474  0.00  0.00    +0.214 A 
BRANCH  59  71
ATOM     70  C   UNL     1       1.973  -5.041  25.559  0.00  0.00    +0.015 A 
ATOM     71  C   UNL     1       2.962  -4.163  25.060  0.00  0.00    +0.025 A 
ATOM     72  C   UNL     1       3.649  -4.524  23.890  0.00  0.00    +0.060 A 
ATOM     73  C   UNL     1       3.419  -5.781  23.317  0.00  0.00    +0.159 A 
ATOM     74  C   UNL     1       2.500  -6.674  23.871  0.00  0.00    +0.158 A 
ATOM     75  C   UNL     1       1.747  -6.293  24.969  0.00  0.00    +0.050 A 
BRANCH  74  76
ATOM     76  O   UNL     1       2.426  -7.931  23.338  0.00  0.00    -0.503 OA
ATOM     77  H   UNL     1       3.314  -8.191  23.039  0.00  0.00    +0.292 HD
ENDBRANCH  74  76
BRANCH  73  78
ATOM     78  O   UNL     1       4.146  -6.195  22.237  0.00  0.00    -0.503 OA
ATOM     79  H   UNL     1       3.621  -6.909  21.838  0.00  0.00    +0.292 HD
ENDBRANCH  73  78
ENDBRANCH  59  71
BRANCH  65  80
ATOM     80  O   UNL     1       0.443   1.459  28.330  0.00  0.00    -0.507 OA
ATOM     81  H   UNL     1       0.771   2.374  28.291  0.00  0.00    +0.292 HD
ENDBRANCH  65  80
BRANCH  63  82
ATOM     82  O   UNL     1       4.700   0.057  29.858  0.00  0.00    -0.506 OA
ATOM     83  H   UNL     1       5.467   0.456  29.398  0.00  0.00    +0.292 HD
ENDBRANCH  63  82
ENDBRANCH  58  69
ENDBRANCH  46  58
ENDBRANCH  45  48
ENDBRANCH  44  45
ENDBRANCH   1  44
TORSDOF 30
ENDMDL
MODEL 7
REMARK VINA RESULT:      -5.1      1.877      9.725
REMARK  Name = 
REMARK  30 active torsions:
REMARK  status: ('A' for Active; 'I' for Inactive)
REMARK    1  A    between atoms: C_3  and  O_86
REMARK    2  A    between atoms: C_4  and  O_85
REMARK    3  A    between atoms: C_6  and  C_7
REMARK    4  A    between atoms: C_8  and  O_20
REMARK    5  A    between atoms: C_12  and  O_19
REMARK    6  A    between atoms: C_14  and  O_18
REMARK    7  A    between atoms: O_20  and  C_21
REMARK    8  A    between atoms: C_23  and  O_84
REMARK    9  A    between atoms: C_25  and  O_83
REMARK   10  A    between atoms: C_27  and  O_82
REMARK   11  A    between atoms: C_29  and  C_32
REMARK   12  A    between atoms: C_32  and  O_33
REMARK   13  A    between atoms: O_33  and  C_34
REMARK   14  A    between atoms: C_36  and  O_81
REMARK   15  A    between atoms: C_38  and  O_80
REMARK   16  A    between atoms: C_40  and  O_79
REMARK   17  A    between atoms: C_42  and  C_45
REMARK   18  A    between atoms: C_45  and  O_46
REMARK   19  A    between atoms: O_46  and  C_47
REMARK   20  A    between atoms: C_49  and  O_78
REMARK   21  A    between atoms: C_51  and  O_77
REMARK   22  A    between atoms: C_53  and  O_76
REMARK   23  A    between atoms: C_55  and  C_58
REMARK   24  A    between atoms: C_58  and  O_59
REMARK   25  A    between atoms: O_59  and  C_60
REMARK   26  A    between atoms: C_62  and  O_75
REMARK   27  A    between atoms: C_64  and  O_74
REMARK   28  A    between atoms: C_66  and  O_73
REMARK   29  A    between atoms: C_68  and  C_71
REMARK   30  A    between atoms: C_71  and  O_72
REMARK                            x       y       z     vdW  Elec       q    Type
REMARK                         _______ _______ _______ _____ _____    ______ ____
ROOT
ATOM      1  C   UNL     1       4.177  -0.294  26.586  0.00  0.00    +0.282 C 
ATOM      2  O   UNL     1       4.072  -1.583  25.976  0.00  0.00    -0.341 OA
ATOM      3  C   UNL     1       3.400  -2.580  26.761  0.00  0.00    +0.178 C 
ATOM      4  C   UNL     1       3.886  -2.612  28.243  0.00  0.00    +0.177 C 
ATOM      5  C   UNL     1       4.187  -1.247  28.890  0.00  0.00    +0.179 C 
ATOM      6  C   UNL     1       4.970  -0.349  27.912  0.00  0.00    +0.201 C 
ENDROOT
BRANCH   4   7
ATOM      7  O   UNL     1       5.188  -3.269  28.248  0.00  0.00    -0.386 OA
ATOM      8  H   UNL     1       5.127  -4.050  28.824  0.00  0.00    +0.210 HD
ENDBRANCH   4   7
BRANCH   5   9
ATOM      9  O   UNL     1       2.987  -0.636  29.364  0.00  0.00    -0.386 OA
ATOM     10  H   UNL     1       2.926   0.247  28.947  0.00  0.00    +0.210 HD
ENDBRANCH   5   9
BRANCH   6  11
ATOM     11  O   UNL     1       6.313  -0.806  27.705  0.00  0.00    -0.384 OA
ATOM     12  H   UNL     1       6.259  -1.633  27.181  0.00  0.00    +0.210 HD
ENDBRANCH   6  11
BRANCH   3  13
ATOM     13  C   UNL     1       1.880  -2.772  26.337  0.00  0.00    +0.197 C 
BRANCH  13  14
ATOM     14  O   UNL     1       1.224  -4.031  26.528  0.00  0.00    -0.346 OA
BRANCH  14  15
ATOM     15  C   UNL     1       1.621  -5.258  25.798  0.00  0.00    +0.282 C 
ATOM     16  O   UNL     1       2.797  -5.812  26.434  0.00  0.00    -0.341 OA
ATOM     17  C   UNL     1       3.817  -6.566  25.753  0.00  0.00    +0.178 C 
ATOM     18  C   UNL     1       3.836  -6.578  24.220  0.00  0.00    +0.177 C 
ATOM     19  C   UNL     1       2.988  -5.481  23.590  0.00  0.00    +0.179 C 
ATOM     20  C   UNL     1       1.610  -5.305  24.237  0.00  0.00    +0.201 C 
BRANCH  18  21
ATOM     21  O   UNL     1       3.381  -7.877  23.779  0.00  0.00    -0.386 OA
ATOM     22  H   UNL     1       2.630  -8.124  24.355  0.00  0.00    +0.210 HD
ENDBRANCH  18  21
BRANCH  19  23
ATOM     23  O   UNL     1       3.704  -4.248  23.539  0.00  0.00    -0.386 OA
ATOM     24  H   UNL     1       3.500  -3.767  22.717  0.00  0.00    +0.210 HD
ENDBRANCH  19  23
BRANCH  20  25
ATOM     25  O   UNL     1       0.731  -6.355  23.772  0.00  0.00    -0.384 OA
ATOM     26  H   UNL     1       1.242  -6.958  23.200  0.00  0.00    +0.210 HD
ENDBRANCH  20  25
BRANCH  17  27
ATOM     27  C   UNL     1       5.230  -6.143  26.280  0.00  0.00    +0.197 C 
BRANCH  27  28
ATOM     28  O   UNL     1       5.611  -4.787  25.983  0.00  0.00    -0.346 OA
BRANCH  28  29
ATOM     29  C   UNL     1       7.016  -4.565  26.026  0.00  0.00    +0.282 C 
ATOM     30  O   UNL     1       7.310  -3.173  26.028  0.00  0.00    -0.341 OA
ATOM     31  C   UNL     1       7.932  -2.556  24.896  0.00  0.00    +0.178 C 
ATOM     32  C   UNL     1       8.621  -3.473  23.868  0.00  0.00    +0.177 C 
ATOM     33  C   UNL     1       7.949  -4.843  23.723  0.00  0.00    +0.179 C 
ATOM     34  C   UNL     1       7.831  -5.478  25.103  0.00  0.00    +0.201 C 
BRANCH  34  35
ATOM     35  O   UNL     1       9.159  -5.666  25.649  0.00  0.00    -0.384 OA
ATOM     36  H   UNL     1       9.719  -4.917  25.359  0.00  0.00    +0.210 HD
ENDBRANCH  34  35
BRANCH  33  37
ATOM     37  O   UNL     1       6.689  -4.793  23.060  0.00  0.00    -0.386 OA
ATOM     38  H   UNL     1       6.033  -5.308  23.577  0.00  0.00    +0.210 HD
ENDBRANCH  33  37
BRANCH  32  39
ATOM     39  O   UNL     1       9.997  -3.636  24.284  0.00  0.00    -0.386 OA
ATOM     40  H   UNL     1      10.441  -4.206  23.616  0.00  0.00    +0.210 HD
ENDBRANCH  32  39
BRANCH  31  41
ATOM     41  C   UNL     1       6.983  -1.533  24.251  0.00  0.00    +0.190 C 
BRANCH  41  42
ATOM     42  O   UNL     1       5.795  -2.132  23.751  0.00  0.00    -0.392 OA
ATOM     43  H   UNL     1       6.068  -2.687  22.994  0.00  0.00    +0.210 HD
ENDBRANCH  41  42
ENDBRANCH  31  41
ENDBRANCH  28  29
ENDBRANCH  27  28
ENDBRANCH  17  27
ENDBRANCH  14  15
ENDBRANCH  13  14
ENDBRANCH   3  13
BRANCH   1  44
ATOM     44  O   UNL     1       2.857   0.198  26.781  0.00  0.00    -0.346 OA
BRANCH  44  45
ATOM     45  C   UNL     1       2.659   1.557  26.414  0.00  0.00    +0.197 C 
BRANCH  45  48
ATOM     46  C   UNL     1       5.328   4.071  26.864  0.00  0.00    +0.340 C 
ATOM     47  O   UNL     1       4.641   2.808  26.720  0.00  0.00    -0.331 OA
ATOM     48  C   UNL     1       3.372   2.535  27.361  0.00  0.00    +0.179 C 
ATOM     49  C   UNL     1       2.403   3.718  27.574  0.00  0.00    +0.177 C 
ATOM     50  C   UNL     1       3.015   4.980  26.994  0.00  0.00    +0.180 C 
ATOM     51  C   UNL     1       4.440   5.111  27.553  0.00  0.00    +0.214 C 
BRANCH  49  52
ATOM     52  O   UNL     1       2.104   3.855  28.972  0.00  0.00    -0.386 OA
ATOM     53  H   UNL     1       1.221   4.282  29.046  0.00  0.00    +0.210 HD
ENDBRANCH  49  52
BRANCH  50  54
ATOM     54  O   UNL     1       2.975   4.933  25.552  0.00  0.00    -0.386 OA
ATOM     55  H   UNL     1       2.718   4.031  25.278  0.00  0.00    +0.210 HD
ENDBRANCH  50  54
BRANCH  51  56
ATOM     56  O   UNL     1       4.423   4.949  28.987  0.00  0.00    -0.383 OA
ATOM     57  H   UNL     1       5.326   5.102  29.330  0.00  0.00    +0.210 HD
ENDBRANCH  51  56
BRANCH  46  58
ATOM     58  O   UNL     1       5.656   4.504  25.528  0.00  0.00    -0.453 OA
BRANCH  58  69
ATOM     59  C   UNL     1       5.980   3.675  23.309  0.00  0.00    +0.181 A 
ATOM     60  O   UNL     1       6.463   2.772  22.373  0.00  0.00    -0.451 OA
ATOM     61  C   UNL     1       7.529   1.990  22.670  0.00  0.00    +0.147 A 
ATOM     62  C   UNL     1       8.181   2.023  23.897  0.00  0.00    +0.109 A 
ATOM     63  C   UNL     1       9.375   1.295  24.032  0.00  0.00    +0.135 A 
ATOM     64  C   UNL     1       9.837   0.481  22.998  0.00  0.00    +0.091 A 
ATOM     65  C   UNL     1       9.097   0.358  21.831  0.00  0.00    +0.124 A 
ATOM     66  C   UNL     1       7.525   2.795  24.977  0.00  0.00    +0.238 A 
ATOM     67  O   UNL     1       7.948   2.684  26.132  0.00  0.00    -0.283 OA
ATOM     68  C   UNL     1       7.967   1.143  21.647  0.00  0.00    +0.092 A 
ATOM     69  C   UNL     1       6.338   3.693  24.608  0.00  0.00    +0.214 A 
BRANCH  59  71
ATOM     70  C   UNL     1       5.156   5.942  22.651  0.00  0.00    +0.015 A 
ATOM     71  C   UNL     1       4.974   4.542  22.613  0.00  0.00    +0.025 A 
ATOM     72  C   UNL     1       3.716   4.039  22.245  0.00  0.00    +0.060 A 
ATOM     73  C   UNL     1       2.655   4.928  22.036  0.00  0.00    +0.159 A 
ATOM     74  C   UNL     1       2.828   6.307  22.160  0.00  0.00    +0.158 A 
ATOM     75  C   UNL     1       4.086   6.821  22.429  0.00  0.00    +0.050 A 
BRANCH  74  76
ATOM     76  O   UNL     1       1.721   7.104  22.074  0.00  0.00    -0.503 OA
ATOM     77  H   UNL     1       1.991   8.024  22.228  0.00  0.00    +0.292 HD
ENDBRANCH  74  76
BRANCH  73  78
ATOM     78  O   UNL     1       1.398   4.460  21.773  0.00  0.00    -0.503 OA
ATOM     79  H   UNL     1       1.063   4.143  22.629  0.00  0.00    +0.292 HD
ENDBRANCH  73  78
ENDBRANCH  59  71
BRANCH  65  80
ATOM     80  O   UNL     1       9.445  -0.510  20.841  0.00  0.00    -0.507 OA
ATOM     81  H   UNL     1      10.414  -0.600  20.827  0.00  0.00    +0.292 HD
ENDBRANCH  65  80
BRANCH  63  82
ATOM     82  O   UNL     1      10.168   1.311  25.152  0.00  0.00    -0.506 OA
ATOM     83  H   UNL     1       9.705   1.803  25.860  0.00  0.00    +0.292 HD
ENDBRANCH  63  82
ENDBRANCH  58  69
ENDBRANCH  46  58
ENDBRANCH  45  48
ENDBRANCH  44  45
ENDBRANCH   1  44
TORSDOF 30
ENDMDL
MODEL 8
REMARK VINA RESULT:      -4.8      2.174      9.217
REMARK  Name = 
REMARK  30 active torsions:
REMARK  status: ('A' for Active; 'I' for Inactive)
REMARK    1  A    between atoms: C_3  and  O_86
REMARK    2  A    between atoms: C_4  and  O_85
REMARK    3  A    between atoms: C_6  and  C_7
REMARK    4  A    between atoms: C_8  and  O_20
REMARK    5  A    between atoms: C_12  and  O_19
REMARK    6  A    between atoms: C_14  and  O_18
REMARK    7  A    between atoms: O_20  and  C_21
REMARK    8  A    between atoms: C_23  and  O_84
REMARK    9  A    between atoms: C_25  and  O_83
REMARK   10  A    between atoms: C_27  and  O_82
REMARK   11  A    between atoms: C_29  and  C_32
REMARK   12  A    between atoms: C_32  and  O_33
REMARK   13  A    between atoms: O_33  and  C_34
REMARK   14  A    between atoms: C_36  and  O_81
REMARK   15  A    between atoms: C_38  and  O_80
REMARK   16  A    between atoms: C_40  and  O_79
REMARK   17  A    between atoms: C_42  and  C_45
REMARK   18  A    between atoms: C_45  and  O_46
REMARK   19  A    between atoms: O_46  and  C_47
REMARK   20  A    between atoms: C_49  and  O_78
REMARK   21  A    between atoms: C_51  and  O_77
REMARK   22  A    between atoms: C_53  and  O_76
REMARK   23  A    between atoms: C_55  and  C_58
REMARK   24  A    between atoms: C_58  and  O_59
REMARK   25  A    between atoms: O_59  and  C_60
REMARK   26  A    between atoms: C_62  and  O_75
REMARK   27  A    between atoms: C_64  and  O_74
REMARK   28  A    between atoms: C_66  and  O_73
REMARK   29  A    between atoms: C_68  and  C_71
REMARK   30  A    between atoms: C_71  and  O_72
REMARK                            x       y       z     vdW  Elec       q    Type
REMARK                         _______ _______ _______ _____ _____    ______ ____
ROOT
ATOM      1  C   UNL     1       8.573  -1.634  24.546  0.00  0.00    +0.282 C 
ATOM      2  O   UNL     1       7.475  -1.974  23.695  0.00  0.00    -0.341 OA
ATOM      3  C   UNL     1       6.901  -3.270  23.923  0.00  0.00    +0.178 C 
ATOM      4  C   UNL     1       7.976  -4.393  24.057  0.00  0.00    +0.177 C 
ATOM      5  C   UNL     1       9.262  -4.014  24.816  0.00  0.00    +0.179 C 
ATOM      6  C   UNL     1       9.752  -2.619  24.382  0.00  0.00    +0.201 C 
ENDROOT
BRANCH   4   7
ATOM      7  O   UNL     1       8.463  -4.677  22.712  0.00  0.00    -0.386 OA
ATOM      8  H   UNL     1       7.742  -5.104  22.218  0.00  0.00    +0.210 HD
ENDBRANCH   4   7
BRANCH   5   9
ATOM      9  O   UNL     1       9.068  -4.120  26.226  0.00  0.00    -0.386 OA
ATOM     10  H   UNL     1       9.683  -4.807  26.554  0.00  0.00    +0.210 HD
ENDBRANCH   5   9
BRANCH   6  11
ATOM     11  O   UNL     1      10.264  -2.610  23.043  0.00  0.00    -0.384 OA
ATOM     12  H   UNL     1       9.513  -2.809  22.445  0.00  0.00    +0.210 HD
ENDBRANCH   6  11
BRANCH   3  13
ATOM     13  C   UNL     1       5.585  -3.211  24.813  0.00  0.00    +0.197 C 
BRANCH  13  14
ATOM     14  O   UNL     1       4.292  -3.334  24.211  0.00  0.00    -0.346 OA
BRANCH  14  15
ATOM     15  C   UNL     1       3.796  -4.606  23.636  0.00  0.00    +0.282 C 
ATOM     16  O   UNL     1       2.408  -4.771  24.010  0.00  0.00    -0.341 OA
ATOM     17  C   UNL     1       1.757  -6.041  24.204  0.00  0.00    +0.178 C 
ATOM     18  C   UNL     1       2.612  -7.310  24.291  0.00  0.00    +0.177 C 
ATOM     19  C   UNL     1       4.090  -7.035  24.535  0.00  0.00    +0.179 C 
ATOM     20  C   UNL     1       4.666  -5.903  23.678  0.00  0.00    +0.201 C 
BRANCH  18  21
ATOM     21  O   UNL     1       2.437  -8.050  23.063  0.00  0.00    -0.386 OA
ATOM     22  H   UNL     1       2.385  -7.393  22.341  0.00  0.00    +0.210 HD
ENDBRANCH  18  21
BRANCH  19  23
ATOM     23  O   UNL     1       4.349  -6.827  25.922  0.00  0.00    -0.386 OA
ATOM     24  H   UNL     1       4.851  -7.574  26.295  0.00  0.00    +0.210 HD
ENDBRANCH  19  23
BRANCH  20  25
ATOM     25  O   UNL     1       4.901  -6.394  22.339  0.00  0.00    -0.384 OA
ATOM     26  H   UNL     1       5.745  -6.027  22.016  0.00  0.00    +0.210 HD
ENDBRANCH  20  25
BRANCH  17  27
ATOM     27  C   UNL     1       0.817  -5.969  25.454  0.00  0.00    +0.197 C 
BRANCH  27  28
ATOM     28  O   UNL     1       0.704  -4.668  26.060  0.00  0.00    -0.346 OA
BRANCH  28  29
ATOM     29  C   UNL     1       0.744  -4.693  27.482  0.00  0.00    +0.282 C 
ATOM     30  O   UNL     1       0.443  -3.411  28.022  0.00  0.00    -0.341 OA
ATOM     31  C   UNL     1       1.452  -2.641  28.683  0.00  0.00    +0.178 C 
ATOM     32  C   UNL     1       2.727  -3.373  29.141  0.00  0.00    +0.177 C 
ATOM     33  C   UNL     1       3.126  -4.537  28.227  0.00  0.00    +0.179 C 
ATOM     34  C   UNL     1       1.929  -5.467  28.070  0.00  0.00    +0.201 C 
BRANCH  34  35
ATOM     35  O   UNL     1       1.572  -5.997  29.369  0.00  0.00    -0.384 OA
ATOM     36  H   UNL     1       0.834  -6.629  29.250  0.00  0.00    +0.210 HD
ENDBRANCH  34  35
BRANCH  33  37
ATOM     37  O   UNL     1       3.636  -4.121  26.963  0.00  0.00    -0.386 OA
ATOM     38  H   UNL     1       2.959  -4.287  26.273  0.00  0.00    +0.210 HD
ENDBRANCH  33  37
BRANCH  32  39
ATOM     39  O   UNL     1       2.494  -3.854  30.485  0.00  0.00    -0.386 OA
ATOM     40  H   UNL     1       1.772  -4.521  30.438  0.00  0.00    +0.210 HD
ENDBRANCH  32  39
BRANCH  31  41
ATOM     41  C   UNL     1       1.744  -1.351  27.902  0.00  0.00    +0.190 C 
BRANCH  41  42
ATOM     42  O   UNL     1       2.189  -1.607  26.576  0.00  0.00    -0.392 OA
ATOM     43  H   UNL     1       1.889  -0.850  26.036  0.00  0.00    +0.210 HD
ENDBRANCH  41  42
ENDBRANCH  31  41
ENDBRANCH  28  29
ENDBRANCH  27  28
ENDBRANCH  17  27
ENDBRANCH  14  15
ENDBRANCH  13  14
ENDBRANCH   3  13
BRANCH   1  44
ATOM     44  O   UNL     1       8.088  -1.608  25.882  0.00  0.00    -0.346 OA
BRANCH  44  45
ATOM     45  C   UNL     1       8.312  -0.392  26.583  0.00  0.00    +0.197 C 
BRANCH  45  48
ATOM     46  C   UNL     1       5.891   2.392  26.763  0.00  0.00    +0.340 C 
ATOM     47  O   UNL     1       7.080   1.592  26.945  0.00  0.00    -0.331 OA
ATOM     48  C   UNL     1       7.029   0.171  27.215  0.00  0.00    +0.179 C 
ATOM     49  C   UNL     1       5.858  -0.635  26.614  0.00  0.00    +0.177 C 
ATOM     50  C   UNL     1       4.983   0.290  25.787  0.00  0.00    +0.180 C 
ATOM     51  C   UNL     1       4.642   1.513  26.654  0.00  0.00    +0.214 C 
BRANCH  49  52
ATOM     52  O   UNL     1       5.122  -1.280  27.666  0.00  0.00    -0.386 OA
ATOM     53  H   UNL     1       4.278  -0.789  27.780  0.00  0.00    +0.210 HD
ENDBRANCH  49  52
BRANCH  50  54
ATOM     54  O   UNL     1       5.652   0.637  24.557  0.00  0.00    -0.386 OA
ATOM     55  H   UNL     1       5.658   1.610  24.471  0.00  0.00    +0.210 HD
ENDBRANCH  50  54
BRANCH  51  56
ATOM     56  O   UNL     1       4.163   1.082  27.946  0.00  0.00    -0.383 OA
ATOM     57  H   UNL     1       4.515   1.688  28.628  0.00  0.00    +0.210 HD
ENDBRANCH  51  56
BRANCH  46  58
ATOM     58  O   UNL     1       6.087   3.131  25.540  0.00  0.00    -0.453 OA
BRANCH  58  69
ATOM     59  C   UNL     1       7.587   4.991  25.610  0.00  0.00    +0.181 A 
ATOM     60  O   UNL     1       8.670   5.737  25.169  0.00  0.00    -0.451 OA
ATOM     61  C   UNL     1       9.663   5.143  24.465  0.00  0.00    +0.147 A 
ATOM     62  C   UNL     1       9.660   3.794  24.131  0.00  0.00    +0.109 A 
ATOM     63  C   UNL     1      10.819   3.252  23.550  0.00  0.00    +0.135 A 
ATOM     64  C   UNL     1      11.902   4.067  23.224  0.00  0.00    +0.091 A 
ATOM     65  C   UNL     1      11.831   5.435  23.442  0.00  0.00    +0.124 A 
ATOM     66  C   UNL     1       8.402   3.052  24.379  0.00  0.00    +0.238 A 
ATOM     67  O   UNL     1       8.277   1.916  23.911  0.00  0.00    -0.283 OA
ATOM     68  C   UNL     1      10.730   5.969  24.101  0.00  0.00    +0.092 A 
ATOM     69  C   UNL     1       7.306   3.738  25.202  0.00  0.00    +0.214 A 
BRANCH  59  71
ATOM     70  C   UNL     1       7.193   5.919  27.899  0.00  0.00    +0.015 A 
ATOM     71  C   UNL     1       6.798   5.860  26.543  0.00  0.00    +0.025 A 
ATOM     72  C   UNL     1       5.517   6.318  26.197  0.00  0.00    +0.060 A 
ATOM     73  C   UNL     1       4.632   6.714  27.208  0.00  0.00    +0.159 A 
ATOM     74  C   UNL     1       5.007   6.686  28.553  0.00  0.00    +0.158 A 
ATOM     75  C   UNL     1       6.299   6.327  28.900  0.00  0.00    +0.050 A 
BRANCH  74  76
ATOM     76  O   UNL     1       4.051   6.956  29.491  0.00  0.00    -0.503 OA
ATOM     77  H   UNL     1       4.494   7.196  30.322  0.00  0.00    +0.292 HD
ENDBRANCH  74  76
BRANCH  73  78
ATOM     78  O   UNL     1       3.348   7.070  26.907  0.00  0.00    -0.503 OA
ATOM     79  H   UNL     1       2.810   6.715  27.634  0.00  0.00    +0.292 HD
ENDBRANCH  73  78
ENDBRANCH  59  71
BRANCH  65  80
ATOM     80  O   UNL     1      12.813   6.286  23.037  0.00  0.00    -0.507 OA
ATOM     81  H   UNL     1      12.899   6.230  22.070  0.00  0.00    +0.292 HD
ENDBRANCH  65  80
BRANCH  63  82
ATOM     82  O   UNL     1      10.988   1.923  23.256  0.00  0.00    -0.506 OA
ATOM     83  H   UNL     1      10.577   1.737  22.387  0.00  0.00    +0.292 HD
ENDBRANCH  63  82
ENDBRANCH  58  69
ENDBRANCH  46  58
ENDBRANCH  45  48
ENDBRANCH  44  45
ENDBRANCH   1  44
TORSDOF 30
ENDMDL
MODEL 9
REMARK VINA RESULT:      -4.6      2.151      4.759
REMARK  Name = 
REMARK  30 active torsions:
REMARK  status: ('A' for Active; 'I' for Inactive)
REMARK    1  A    between atoms: C_3  and  O_86
REMARK    2  A    between atoms: C_4  and  O_85
REMARK    3  A    between atoms: C_6  and  C_7
REMARK    4  A    between atoms: C_8  and  O_20
REMARK    5  A    between atoms: C_12  and  O_19
REMARK    6  A    between atoms: C_14  and  O_18
REMARK    7  A    between atoms: O_20  and  C_21
REMARK    8  A    between atoms: C_23  and  O_84
REMARK    9  A    between atoms: C_25  and  O_83
REMARK   10  A    between atoms: C_27  and  O_82
REMARK   11  A    between atoms: C_29  and  C_32
REMARK   12  A    between atoms: C_32  and  O_33
REMARK   13  A    between atoms: O_33  and  C_34
REMARK   14  A    between atoms: C_36  and  O_81
REMARK   15  A    between atoms: C_38  and  O_80
REMARK   16  A    between atoms: C_40  and  O_79
REMARK   17  A    between atoms: C_42  and  C_45
REMARK   18  A    between atoms: C_45  and  O_46
REMARK   19  A    between atoms: O_46  and  C_47
REMARK   20  A    between atoms: C_49  and  O_78
REMARK   21  A    between atoms: C_51  and  O_77
REMARK   22  A    between atoms: C_53  and  O_76
REMARK   23  A    between atoms: C_55  and  C_58
REMARK   24  A    between atoms: C_58  and  O_59
REMARK   25  A    between atoms: O_59  and  C_60
REMARK   26  A    between atoms: C_62  and  O_75
REMARK   27  A    between atoms: C_64  and  O_74
REMARK   28  A    between atoms: C_66  and  O_73
REMARK   29  A    between atoms: C_68  and  C_71
REMARK   30  A    between atoms: C_71  and  O_72
REMARK                            x       y       z     vdW  Elec       q    Type
REMARK                         _______ _______ _______ _____ _____    ______ ____
ROOT
ATOM      1  C   UNL     1       9.165   4.082  24.074  0.00  0.00    +0.282 C 
ATOM      2  O   UNL     1       8.198   4.117  25.127  0.00  0.00    -0.341 OA
ATOM      3  C   UNL     1       6.976   4.803  24.815  0.00  0.00    +0.178 C 
ATOM      4  C   UNL     1       7.215   6.180  24.122  0.00  0.00    +0.177 C 
ATOM      5  C   UNL     1       8.370   6.238  23.105  0.00  0.00    +0.179 C 
ATOM      6  C   UNL     1       9.609   5.503  23.655  0.00  0.00    +0.201 C 
ENDROOT
BRANCH   4   7
ATOM      7  O   UNL     1       7.648   7.108  25.160  0.00  0.00    -0.386 OA
ATOM      8  H   UNL     1       6.861   7.575  25.491  0.00  0.00    +0.210 HD
ENDBRANCH   4   7
BRANCH   5   9
ATOM      9  O   UNL     1       7.951   5.743  21.833  0.00  0.00    -0.386 OA
ATOM     10  H   UNL     1       8.739   5.361  21.396  0.00  0.00    +0.210 HD
ENDBRANCH   5   9
BRANCH   6  11
ATOM     11  O   UNL     1      10.224   6.205  24.743  0.00  0.00    -0.384 OA
ATOM     12  H   UNL     1      11.073   6.566  24.411  0.00  0.00    +0.210 HD
ENDBRANCH   6  11
BRANCH   3  13
ATOM     13  C   UNL     1       5.804   3.811  24.404  0.00  0.00    +0.197 C 
BRANCH  13  14
ATOM     14  O   UNL     1       5.341   3.750  23.050  0.00  0.00    -0.346 OA
BRANCH  14  15
ATOM     15  C   UNL     1       4.111   4.439  22.595  0.00  0.00    +0.282 C 
ATOM     16  O   UNL     1       3.678   5.346  23.636  0.00  0.00    -0.341 OA
ATOM     17  C   UNL     1       2.308   5.716  23.883  0.00  0.00    +0.178 C 
ATOM     18  C   UNL     1       1.188   4.922  23.202  0.00  0.00    +0.177 C 
ATOM     19  C   UNL     1       1.647   3.588  22.628  0.00  0.00    +0.179 C 
ATOM     20  C   UNL     1       2.973   3.658  21.863  0.00  0.00    +0.201 C 
BRANCH  18  21
ATOM     21  O   UNL     1       0.628   5.748  22.158  0.00  0.00    -0.386 OA
ATOM     22  H   UNL     1      -0.283   5.427  22.000  0.00  0.00    +0.210 HD
ENDBRANCH  18  21
BRANCH  19  23
ATOM     23  O   UNL     1       1.678   2.580  23.638  0.00  0.00    -0.386 OA
ATOM     24  H   UNL     1       1.853   1.706  23.246  0.00  0.00    +0.210 HD
ENDBRANCH  19  23
BRANCH  20  25
ATOM     25  O   UNL     1       2.736   4.224  20.554  0.00  0.00    -0.384 OA
ATOM     26  H   UNL     1       3.596   4.399  20.130  0.00  0.00    +0.210 HD
ENDBRANCH  20  25
BRANCH  17  27
ATOM     27  C   UNL     1       2.041   5.759  25.425  0.00  0.00    +0.197 C 
BRANCH  27  28
ATOM     28  O   UNL     1       2.994   5.041  26.231  0.00  0.00    -0.346 OA
BRANCH  28  29
ATOM     29  C   UNL     1       2.432   4.463  27.404  0.00  0.00    +0.282 C 
ATOM     30  O   UNL     1       3.379   4.446  28.465  0.00  0.00    -0.341 OA
ATOM     31  C   UNL     1       3.925   3.211  28.938  0.00  0.00    +0.178 C 
ATOM     32  C   UNL     1       3.192   1.911  28.559  0.00  0.00    +0.177 C 
ATOM     33  C   UNL     1       2.505   1.973  27.191  0.00  0.00    +0.179 C 
ATOM     34  C   UNL     1       1.602   3.199  27.153  0.00  0.00    +0.201 C 
BRANCH  34  35
ATOM     35  O   UNL     1       0.587   3.069  28.177  0.00  0.00    -0.384 OA
ATOM     36  H   UNL     1      -0.168   2.573  27.799  0.00  0.00    +0.210 HD
ENDBRANCH  34  35
BRANCH  33  37
ATOM     37  O   UNL     1       3.414   1.957  26.094  0.00  0.00    -0.386 OA
ATOM     38  H   UNL     1       4.220   1.459  26.352  0.00  0.00    +0.210 HD
ENDBRANCH  33  37
BRANCH  32  39
ATOM     39  O   UNL     1       2.216   1.645  29.594  0.00  0.00    -0.386 OA
ATOM     40  H   UNL     1       2.633   1.869  30.457  0.00  0.00    +0.210 HD
ENDBRANCH  32  39
BRANCH  31  41
ATOM     41  C   UNL     1       5.437   3.151  28.667  0.00  0.00    +0.190 C 
BRANCH  41  42
ATOM     42  O   UNL     1       5.830   1.936  28.043  0.00  0.00    -0.392 OA
ATOM     43  H   UNL     1       6.784   2.023  27.851  0.00  0.00    +0.210 HD
ENDBRANCH  41  42
ENDBRANCH  31  41
ENDBRANCH  28  29
ENDBRANCH  27  28
ENDBRANCH  17  27
ENDBRANCH  14  15
ENDBRANCH  13  14
ENDBRANCH   3  13
BRANCH   1  44
ATOM     44  O   UNL     1       8.591   3.367  22.988  0.00  0.00    -0.346 OA
BRANCH  44  45
ATOM     45  C   UNL     1       8.867   1.972  22.970  0.00  0.00    +0.197 C 
BRANCH  45  48
ATOM     46  C   UNL     1       7.300  -0.186  25.527  0.00  0.00    +0.340 C 
ATOM     47  O   UNL     1       7.594   0.944  24.676  0.00  0.00    -0.331 OA
ATOM     48  C   UNL     1       8.946   1.368  24.381  0.00  0.00    +0.179 C 
ATOM     49  C   UNL     1      10.045   0.284  24.329  0.00  0.00    +0.177 C 
ATOM     50  C   UNL     1       9.421  -1.077  24.575  0.00  0.00    +0.180 C 
ATOM     51  C   UNL     1       8.569  -0.981  25.851  0.00  0.00    +0.214 C 
BRANCH  49  52
ATOM     52  O   UNL     1      11.073   0.590  25.285  0.00  0.00    -0.386 OA
ATOM     53  H   UNL     1      11.932   0.583  24.807  0.00  0.00    +0.210 HD
ENDBRANCH  49  52
BRANCH  50  54
ATOM     54  O   UNL     1       8.663  -1.491  23.419  0.00  0.00    -0.386 OA
ATOM     55  H   UNL     1       7.785  -1.798  23.718  0.00  0.00    +0.210 HD
ENDBRANCH  50  54
BRANCH  51  56
ATOM     56  O   UNL     1       9.338  -0.372  26.911  0.00  0.00    -0.383 OA
ATOM     57  H   UNL     1       9.557   0.545  26.652  0.00  0.00    +0.210 HD
ENDBRANCH  51  56
BRANCH  46  58
ATOM     58  O   UNL     1       6.372  -1.010  24.795  0.00  0.00    -0.453 OA
BRANCH  58  69
ATOM     59  C   UNL     1       5.152  -3.066  24.861  0.00  0.00    +0.181 A 
ATOM     60  O   UNL     1       4.133  -3.898  25.301  0.00  0.00    -0.451 OA
ATOM     61  C   UNL     1       3.538  -3.670  26.497  0.00  0.00    +0.147 A 
ATOM     62  C   UNL     1       3.881  -2.612  27.331  0.00  0.00    +0.109 A 
ATOM     63  C   UNL     1       3.319  -2.573  28.617  0.00  0.00    +0.135 A 
ATOM     64  C   UNL     1       2.366  -3.512  29.009  0.00  0.00    +0.091 A 
ATOM     65  C   UNL     1       1.937  -4.480  28.112  0.00  0.00    +0.124 A 
ATOM     66  C   UNL     1       4.784  -1.585  26.762  0.00  0.00    +0.238 A 
ATOM     67  O   UNL     1       4.950  -0.528  27.379  0.00  0.00    -0.283 OA
ATOM     68  C   UNL     1       2.552  -4.587  26.871  0.00  0.00    +0.092 A 
ATOM     69  C   UNL     1       5.466  -1.881  25.421  0.00  0.00    +0.214 A 
BRANCH  59  71
ATOM     70  C   UNL     1       5.705  -3.001  22.423  0.00  0.00    +0.015 A 
ATOM     71  C   UNL     1       5.756  -3.706  23.647  0.00  0.00    +0.025 A 
ATOM     72  C   UNL     1       6.041  -5.080  23.618  0.00  0.00    +0.060 A 
ATOM     73  C   UNL     1       6.156  -5.732  22.384  0.00  0.00    +0.159 A 
ATOM     74  C   UNL     1       6.018  -5.039  21.181  0.00  0.00    +0.158 A 
ATOM     75  C   UNL     1       5.832  -3.667  21.195  0.00  0.00    +0.050 A 
BRANCH  74  76
ATOM     76  O   UNL     1       6.009  -5.762  20.021  0.00  0.00    -0.503 OA
ATOM     77  H   UNL     1       5.087  -5.975  19.799  0.00  0.00    +0.292 HD
ENDBRANCH  74  76
BRANCH  73  78
ATOM     78  O   UNL     1       6.335  -7.086  22.329  0.00  0.00    -0.503 OA
ATOM     79  H   UNL     1       5.572  -7.421  21.827  0.00  0.00    +0.292 HD
ENDBRANCH  73  78
ENDBRANCH  59  71
BRANCH  65  80
ATOM     80  O   UNL     1       0.929  -5.346  28.407  0.00  0.00    -0.507 OA
ATOM     81  H   UNL     1       0.184  -4.845  28.782  0.00  0.00    +0.292 HD
ENDBRANCH  65  80
BRANCH  63  82
ATOM     82  O   UNL     1       3.639  -1.642  29.573  0.00  0.00    -0.506 OA
ATOM     83  H   UNL     1       3.061  -0.861  29.459  0.00  0.00    +0.292 HD
ENDBRANCH  63  82
ENDBRANCH  58  69
ENDBRANCH  46  58
ENDBRANCH  45  48
ENDBRANCH  44  45
ENDBRANCH   1  44
TORSDOF 30
ENDMDL
