MODEL 1
REMARK VINA RESULT:      -7.4      0.000      0.000
REMARK  Name = 
REMARK  13 active torsions:
REMARK  status: ('A' for Active; 'I' for Inactive)
REMARK    1  A    between atoms: C_1  and  O_2
REMARK    2  A    between atoms: O_2  and  C_3
REMARK    3  A    between atoms: C_4  and  C_30
REMARK    4  A    between atoms: C_10  and  O_15
REMARK    5  A    between atoms: C_12  and  O_14
REMARK    6  A    between atoms: O_15  and  C_16
REMARK    7  A    between atoms: C_18  and  O_29
REMARK    8  A    between atoms: C_19  and  O_28
REMARK    9  A    between atoms: C_21  and  O_27
REMARK   10  A    between atoms: C_23  and  C_25
REMARK   11  A    between atoms: C_25  and  O_26
REMARK   12  A    between atoms: C_32  and  O_37
REMARK   13  A    between atoms: C_33  and  O_36
REMARK                            x       y       z     vdW  Elec       q    Type
REMARK                         _______ _______ _______ _____ _____    ______ ____
ROOT
ATOM      1  C   UNL     1       4.963  -4.391  22.911  0.00  0.00    +0.211 A 
ATOM      2  C   UNL     1       5.806  -3.152  23.055  0.00  0.00    +0.238 A 
ATOM      3  O   UNL     1       6.597  -2.786  22.189  0.00  0.00    -0.283 OA
ATOM      4  C   UNL     1       5.645  -2.343  24.271  0.00  0.00    +0.110 A 
ATOM      5  C   UNL     1       6.485  -1.243  24.572  0.00  0.00    +0.142 A 
ATOM      6  C   UNL     1       6.256  -0.527  25.752  0.00  0.00    +0.092 A 
ATOM      7  C   UNL     1       5.160  -0.838  26.551  0.00  0.00    +0.124 A 
ATOM      8  C   UNL     1       4.319  -1.899  26.242  0.00  0.00    +0.092 A 
ATOM      9  C   UNL     1       4.582  -2.680  25.117  0.00  0.00    +0.147 A 
ATOM     10  O   UNL     1       3.748  -3.744  24.898  0.00  0.00    -0.451 OA
ATOM     11  C   UNL     1       4.001  -4.610  23.841  0.00  0.00    +0.181 A 
ENDROOT
BRANCH  11  12
ATOM     12  C   UNL     1       3.062  -5.781  23.796  0.00  0.00    +0.025 A 
ATOM     13  C   UNL     1       1.915  -5.748  22.975  0.00  0.00    +0.015 A 
ATOM     14  C   UNL     1       1.058  -6.852  22.868  0.00  0.00    +0.050 A 
ATOM     15  C   UNL     1       1.342  -8.005  23.580  0.00  0.00    +0.158 A 
ATOM     16  C   UNL     1       2.440  -8.050  24.429  0.00  0.00    +0.159 A 
ATOM     17  C   UNL     1       3.281  -6.945  24.560  0.00  0.00    +0.060 A 
BRANCH  15  18
ATOM     18  O   UNL     1       0.543  -9.103  23.438  0.00  0.00    -0.503 OA
ATOM     19  H   UNL     1       0.385  -9.169  22.475  0.00  0.00    +0.292 HD
ENDBRANCH  15  18
BRANCH  16  20
ATOM     20  O   UNL     1       2.662  -9.216  25.114  0.00  0.00    -0.503 OA
ATOM     21  H   UNL     1       1.807  -9.664  25.234  0.00  0.00    +0.292 HD
ENDBRANCH  16  20
ENDBRANCH  11  12
BRANCH   1  23
ATOM     22  C   UNL     1       6.234  -6.126  21.810  0.00  0.00    +0.277 C 
ATOM     23  O   UNL     1       5.107  -5.262  21.839  0.00  0.00    -0.488 OA
ENDBRANCH   1  23
BRANCH   7  24
ATOM     24  O   UNL     1       4.862  -0.088  27.650  0.00  0.00    -0.507 OA
ATOM     25  H   UNL     1       4.796   0.846  27.390  0.00  0.00    +0.292 HD
ENDBRANCH   7  24
BRANCH   5  26
ATOM     26  O   UNL     1       7.476  -0.919  23.669  0.00  0.00    -0.460 OA
BRANCH  26  27
ATOM     27  C   UNL     1       8.335   0.200  23.939  0.00  0.00    +0.339 C 
ATOM     28  O   UNL     1       7.834   1.427  23.411  0.00  0.00    -0.331 OA
ATOM     29  C   UNL     1       7.909   1.570  21.980  0.00  0.00    +0.179 C 
ATOM     30  C   UNL     1       9.341   1.355  21.439  0.00  0.00    +0.177 C 
ATOM     31  C   UNL     1       9.895   0.009  21.915  0.00  0.00    +0.180 C 
ATOM     32  C   UNL     1       9.768  -0.089  23.443  0.00  0.00    +0.214 C 
BRANCH  30  33
ATOM     33  O   UNL     1      10.195   2.412  21.897  0.00  0.00    -0.386 OA
ATOM     34  H   UNL     1      11.017   2.013  22.236  0.00  0.00    +0.210 HD
ENDBRANCH  30  33
BRANCH  31  35
ATOM     35  O   UNL     1       9.277  -1.074  21.215  0.00  0.00    -0.386 OA
ATOM     36  H   UNL     1       9.693  -1.209  20.341  0.00  0.00    +0.210 HD
ENDBRANCH  31  35
BRANCH  32  37
ATOM     37  O   UNL     1      10.258  -1.344  23.927  0.00  0.00    -0.383 OA
ATOM     38  H   UNL     1      11.199  -1.391  23.676  0.00  0.00    +0.210 HD
ENDBRANCH  32  37
BRANCH  29  39
ATOM     39  C   UNL     1       7.423   2.994  21.642  0.00  0.00    +0.190 C 
BRANCH  39  40
ATOM     40  O   UNL     1       8.070   3.997  22.439  0.00  0.00    -0.392 OA
ATOM     41  H   UNL     1       7.599   4.056  23.284  0.00  0.00    +0.210 HD
ENDBRANCH  39  40
ENDBRANCH  29  39
ENDBRANCH  26  27
ENDBRANCH   5  26
TORSDOF 12
ENDMDL
MODEL 2
REMARK VINA RESULT:      -7.3      2.072      4.363
REMARK  Name = 
REMARK  13 active torsions:
REMARK  status: ('A' for Active; 'I' for Inactive)
REMARK    1  A    between atoms: C_1  and  O_2
REMARK    2  A    between atoms: O_2  and  C_3
REMARK    3  A    between atoms: C_4  and  C_30
REMARK    4  A    between atoms: C_10  and  O_15
REMARK    5  A    between atoms: C_12  and  O_14
REMARK    6  A    between atoms: O_15  and  C_16
REMARK    7  A    between atoms: C_18  and  O_29
REMARK    8  A    between atoms: C_19  and  O_28
REMARK    9  A    between atoms: C_21  and  O_27
REMARK   10  A    between atoms: C_23  and  C_25
REMARK   11  A    between atoms: C_25  and  O_26
REMARK   12  A    between atoms: C_32  and  O_37
REMARK   13  A    between atoms: C_33  and  O_36
REMARK                            x       y       z     vdW  Elec       q    Type
REMARK                         _______ _______ _______ _____ _____    ______ ____
ROOT
ATOM      1  C   UNL     1       5.297  -2.011  24.924  0.00  0.00    +0.211 A 
ATOM      2  C   UNL     1       6.113  -0.774  24.654  0.00  0.00    +0.238 A 
ATOM      3  O   UNL     1       5.836   0.320  25.140  0.00  0.00    -0.283 OA
ATOM      4  C   UNL     1       7.299  -0.902  23.797  0.00  0.00    +0.110 A 
ATOM      5  C   UNL     1       8.052   0.217  23.364  0.00  0.00    +0.142 A 
ATOM      6  C   UNL     1       9.170  -0.000  22.551  0.00  0.00    +0.092 A 
ATOM      7  C   UNL     1       9.580  -1.299  22.267  0.00  0.00    +0.124 A 
ATOM      8  C   UNL     1       8.859  -2.397  22.715  0.00  0.00    +0.092 A 
ATOM      9  C   UNL     1       7.692  -2.201  23.452  0.00  0.00    +0.147 A 
ATOM     10  O   UNL     1       6.998  -3.323  23.816  0.00  0.00    -0.451 OA
ATOM     11  C   UNL     1       5.785  -3.196  24.482  0.00  0.00    +0.181 A 
ENDROOT
BRANCH  11  12
ATOM     12  C   UNL     1       5.098  -4.511  24.720  0.00  0.00    +0.025 A 
ATOM     13  C   UNL     1       4.161  -5.006  23.789  0.00  0.00    +0.015 A 
ATOM     14  C   UNL     1       3.553  -6.258  23.957  0.00  0.00    +0.050 A 
ATOM     15  C   UNL     1       3.881  -7.031  25.058  0.00  0.00    +0.158 A 
ATOM     16  C   UNL     1       4.768  -6.549  26.012  0.00  0.00    +0.159 A 
ATOM     17  C   UNL     1       5.354  -5.292  25.864  0.00  0.00    +0.060 A 
BRANCH  15  18
ATOM     18  O   UNL     1       3.335  -8.275  25.200  0.00  0.00    -0.503 OA
ATOM     19  H   UNL     1       2.562  -8.139  25.783  0.00  0.00    +0.292 HD
ENDBRANCH  15  18
BRANCH  16  20
ATOM     20  O   UNL     1       5.044  -7.357  27.084  0.00  0.00    -0.503 OA
ATOM     21  H   UNL     1       5.126  -8.270  26.761  0.00  0.00    +0.292 HD
ENDBRANCH  16  20
ENDBRANCH  11  12
BRANCH   1  23
ATOM     22  C   UNL     1       4.186  -1.916  27.068  0.00  0.00    +0.277 C 
ATOM     23  O   UNL     1       4.115  -1.970  25.650  0.00  0.00    -0.488 OA
ENDBRANCH   1  23
BRANCH   7  24
ATOM     24  O   UNL     1      10.724  -1.531  21.562  0.00  0.00    -0.507 OA
ATOM     25  H   UNL     1      11.446  -1.729  22.182  0.00  0.00    +0.292 HD
ENDBRANCH   7  24
BRANCH   5  26
ATOM     26  O   UNL     1       7.654   1.467  23.787  0.00  0.00    -0.460 OA
BRANCH  26  27
ATOM     27  C   UNL     1       7.571   2.540  22.835  0.00  0.00    +0.339 C 
ATOM     28  O   UNL     1       8.583   3.530  23.021  0.00  0.00    -0.331 OA
ATOM     29  C   UNL     1       8.417   4.385  24.169  0.00  0.00    +0.179 C 
ATOM     30  C   UNL     1       7.039   5.084  24.190  0.00  0.00    +0.177 C 
ATOM     31  C   UNL     1       5.914   4.052  24.072  0.00  0.00    +0.180 C 
ATOM     32  C   UNL     1       6.158   3.162  22.845  0.00  0.00    +0.214 C 
BRANCH  30  33
ATOM     33  O   UNL     1       6.951   6.014  23.101  0.00  0.00    -0.386 OA
ATOM     34  H   UNL     1       7.542   5.705  22.390  0.00  0.00    +0.210 HD
ENDBRANCH  30  33
BRANCH  31  35
ATOM     35  O   UNL     1       5.761   3.323  25.293  0.00  0.00    -0.386 OA
ATOM     36  H   UNL     1       5.003   2.708  25.241  0.00  0.00    +0.210 HD
ENDBRANCH  31  35
BRANCH  32  37
ATOM     37  O   UNL     1       5.137   2.168  22.711  0.00  0.00    -0.383 OA
ATOM     38  H   UNL     1       4.552   2.466  21.989  0.00  0.00    +0.210 HD
ENDBRANCH  32  37
BRANCH  29  39
ATOM     39  C   UNL     1       9.544   5.435  24.114  0.00  0.00    +0.190 C 
BRANCH  39  40
ATOM     40  O   UNL     1       9.701   6.005  22.807  0.00  0.00    -0.392 OA
ATOM     41  H   UNL     1       9.493   6.950  22.866  0.00  0.00    +0.210 HD
ENDBRANCH  39  40
ENDBRANCH  29  39
ENDBRANCH  26  27
ENDBRANCH   5  26
TORSDOF 12
ENDMDL
MODEL 3
REMARK VINA RESULT:      -7.2      2.484      9.388
REMARK  Name = 
REMARK  13 active torsions:
REMARK  status: ('A' for Active; 'I' for Inactive)
REMARK    1  A    between atoms: C_1  and  O_2
REMARK    2  A    between atoms: O_2  and  C_3
REMARK    3  A    between atoms: C_4  and  C_30
REMARK    4  A    between atoms: C_10  and  O_15
REMARK    5  A    between atoms: C_12  and  O_14
REMARK    6  A    between atoms: O_15  and  C_16
REMARK    7  A    between atoms: C_18  and  O_29
REMARK    8  A    between atoms: C_19  and  O_28
REMARK    9  A    between atoms: C_21  and  O_27
REMARK   10  A    between atoms: C_23  and  C_25
REMARK   11  A    between atoms: C_25  and  O_26
REMARK   12  A    between atoms: C_32  and  O_37
REMARK   13  A    between atoms: C_33  and  O_36
REMARK                            x       y       z     vdW  Elec       q    Type
REMARK                         _______ _______ _______ _____ _____    ______ ____
ROOT
ATOM      1  C   UNL     1       7.202  -1.009  25.342  0.00  0.00    +0.211 A 
ATOM      2  C   UNL     1       6.400  -2.277  25.467  0.00  0.00    +0.238 A 
ATOM      3  O   UNL     1       5.608  -2.471  26.387  0.00  0.00    -0.283 OA
ATOM      4  C   UNL     1       6.560  -3.302  24.427  0.00  0.00    +0.110 A 
ATOM      5  C   UNL     1       5.966  -4.584  24.522  0.00  0.00    +0.142 A 
ATOM      6  C   UNL     1       6.170  -5.496  23.480  0.00  0.00    +0.092 A 
ATOM      7  C   UNL     1       6.859  -5.102  22.337  0.00  0.00    +0.124 A 
ATOM      8  C   UNL     1       7.418  -3.836  22.232  0.00  0.00    +0.092 A 
ATOM      9  C   UNL     1       7.302  -2.942  23.295  0.00  0.00    +0.147 A 
ATOM     10  O   UNL     1       7.922  -1.730  23.151  0.00  0.00    -0.451 OA
ATOM     11  C   UNL     1       7.913  -0.823  24.204  0.00  0.00    +0.181 A 
ENDROOT
BRANCH  11  12
ATOM     12  C   UNL     1       8.722   0.413  23.929  0.00  0.00    +0.025 A 
ATOM     13  C   UNL     1      10.070   0.492  24.337  0.00  0.00    +0.015 A 
ATOM     14  C   UNL     1      10.862   1.608  24.037  0.00  0.00    +0.050 A 
ATOM     15  C   UNL     1      10.314   2.658  23.320  0.00  0.00    +0.158 A 
ATOM     16  C   UNL     1       8.978   2.626  22.943  0.00  0.00    +0.159 A 
ATOM     17  C   UNL     1       8.178   1.529  23.262  0.00  0.00    +0.060 A 
BRANCH  15  18
ATOM     18  O   UNL     1      11.095   3.725  22.976  0.00  0.00    -0.503 OA
ATOM     19  H   UNL     1      11.673   3.386  22.263  0.00  0.00    +0.292 HD
ENDBRANCH  15  18
BRANCH  16  20
ATOM     20  O   UNL     1       8.492   3.699  22.243  0.00  0.00    -0.503 OA
ATOM     21  H   UNL     1       7.757   3.389  21.686  0.00  0.00    +0.292 HD
ENDBRANCH  16  20
ENDBRANCH  11  12
BRANCH   1  23
ATOM     22  C   UNL     1       7.994  -0.189  27.473  0.00  0.00    +0.277 C 
ATOM     23  O   UNL     1       7.181  -0.023  26.320  0.00  0.00    -0.488 OA
ENDBRANCH   1  23
BRANCH   7  24
ATOM     24  O   UNL     1       6.980  -5.944  21.271  0.00  0.00    -0.507 OA
ATOM     25  H   UNL     1       7.754  -5.681  20.744  0.00  0.00    +0.292 HD
ENDBRANCH   7  24
BRANCH   5  26
ATOM     26  O   UNL     1       5.194  -4.860  25.630  0.00  0.00    -0.460 OA
BRANCH  26  27
ATOM     27  C   UNL     1       5.350  -6.120  26.301  0.00  0.00    +0.339 C 
ATOM     28  O   UNL     1       4.171  -6.923  26.259  0.00  0.00    -0.331 OA
ATOM     29  C   UNL     1       3.085  -6.484  27.097  0.00  0.00    +0.179 C 
ATOM     30  C   UNL     1       3.508  -6.315  28.573  0.00  0.00    +0.177 C 
ATOM     31  C   UNL     1       4.727  -5.394  28.678  0.00  0.00    +0.180 C 
ATOM     32  C   UNL     1       5.839  -5.904  27.749  0.00  0.00    +0.214 C 
BRANCH  30  33
ATOM     33  O   UNL     1       3.828  -7.596  29.135  0.00  0.00    -0.386 OA
ATOM     34  H   UNL     1       4.792  -7.635  29.272  0.00  0.00    +0.210 HD
ENDBRANCH  30  33
BRANCH  31  35
ATOM     35  O   UNL     1       4.359  -4.032  28.443  0.00  0.00    -0.386 OA
ATOM     36  H   UNL     1       3.610  -3.768  29.012  0.00  0.00    +0.210 HD
ENDBRANCH  31  35
BRANCH  32  37
ATOM     37  O   UNL     1       6.992  -5.056  27.801  0.00  0.00    -0.383 OA
ATOM     38  H   UNL     1       7.306  -5.070  28.725  0.00  0.00    +0.210 HD
ENDBRANCH  32  37
BRANCH  29  39
ATOM     39  C   UNL     1       1.970  -7.543  26.983  0.00  0.00    +0.190 C 
BRANCH  39  40
ATOM     40  O   UNL     1       2.244  -8.521  25.969  0.00  0.00    -0.392 OA
ATOM     41  H   UNL     1       2.787  -9.218  26.366  0.00  0.00    +0.210 HD
ENDBRANCH  39  40
ENDBRANCH  29  39
ENDBRANCH  26  27
ENDBRANCH   5  26
TORSDOF 12
ENDMDL
MODEL 4
REMARK VINA RESULT:      -7.1      2.695      8.902
REMARK  Name = 
REMARK  13 active torsions:
REMARK  status: ('A' for Active; 'I' for Inactive)
REMARK    1  A    between atoms: C_1  and  O_2
REMARK    2  A    between atoms: O_2  and  C_3
REMARK    3  A    between atoms: C_4  and  C_30
REMARK    4  A    between atoms: C_10  and  O_15
REMARK    5  A    between atoms: C_12  and  O_14
REMARK    6  A    between atoms: O_15  and  C_16
REMARK    7  A    between atoms: C_18  and  O_29
REMARK    8  A    between atoms: C_19  and  O_28
REMARK    9  A    between atoms: C_21  and  O_27
REMARK   10  A    between atoms: C_23  and  C_25
REMARK   11  A    between atoms: C_25  and  O_26
REMARK   12  A    between atoms: C_32  and  O_37
REMARK   13  A    between atoms: C_33  and  O_36
REMARK                            x       y       z     vdW  Elec       q    Type
REMARK                         _______ _______ _______ _____ _____    ______ ____
ROOT
ATOM      1  C   UNL     1       7.927  -1.894  25.658  0.00  0.00    +0.211 A 
ATOM      2  C   UNL     1       7.162  -3.163  25.930  0.00  0.00    +0.238 A 
ATOM      3  O   UNL     1       6.805  -3.490  27.059  0.00  0.00    -0.283 OA
ATOM      4  C   UNL     1       6.813  -4.019  24.788  0.00  0.00    +0.110 A 
ATOM      5  C   UNL     1       6.224  -5.297  24.945  0.00  0.00    +0.142 A 
ATOM      6  C   UNL     1       5.922  -6.041  23.798  0.00  0.00    +0.092 A 
ATOM      7  C   UNL     1       6.109  -5.482  22.538  0.00  0.00    +0.124 A 
ATOM      8  C   UNL     1       6.660  -4.217  22.384  0.00  0.00    +0.092 A 
ATOM      9  C   UNL     1       7.051  -3.494  23.511  0.00  0.00    +0.147 A 
ATOM     10  O   UNL     1       7.638  -2.278  23.289  0.00  0.00    -0.451 OA
ATOM     11  C   UNL     1       8.122  -1.542  24.364  0.00  0.00    +0.181 A 
ENDROOT
BRANCH  11  12
ATOM     12  C   UNL     1       8.829  -0.283  23.950  0.00  0.00    +0.025 A 
ATOM     13  C   UNL     1      10.051   0.083  24.552  0.00  0.00    +0.015 A 
ATOM     14  C   UNL     1      10.761   1.218  24.140  0.00  0.00    +0.050 A 
ATOM     15  C   UNL     1      10.256   2.001  23.115  0.00  0.00    +0.158 A 
ATOM     16  C   UNL     1       9.034   1.688  22.533  0.00  0.00    +0.159 A 
ATOM     17  C   UNL     1       8.311   0.574  22.958  0.00  0.00    +0.060 A 
BRANCH  15  18
ATOM     18  O   UNL     1      10.969   3.077  22.669  0.00  0.00    -0.503 OA
ATOM     19  H   UNL     1      11.321   3.492  23.483  0.00  0.00    +0.292 HD
ENDBRANCH  15  18
BRANCH  16  20
ATOM     20  O   UNL     1       8.584   2.506  21.530  0.00  0.00    -0.503 OA
ATOM     21  H   UNL     1       7.651   2.717  21.708  0.00  0.00    +0.292 HD
ENDBRANCH  16  20
ENDBRANCH  11  12
BRANCH   1  23
ATOM     22  C   UNL     1       7.469  -0.133  27.247  0.00  0.00    +0.277 C 
ATOM     23  O   UNL     1       8.375  -1.069  26.681  0.00  0.00    -0.488 OA
ENDBRANCH   1  23
BRANCH   7  24
ATOM     24  O   UNL     1       5.726  -6.152  21.414  0.00  0.00    -0.507 OA
ATOM     25  H   UNL     1       6.281  -5.866  20.668  0.00  0.00    +0.292 HD
ENDBRANCH   7  24
BRANCH   5  26
ATOM     26  O   UNL     1       5.956  -5.734  26.224  0.00  0.00    -0.460 OA
BRANCH  26  27
ATOM     27  C   UNL     1       4.645  -6.228  26.539  0.00  0.00    +0.339 C 
ATOM     28  O   UNL     1       3.613  -5.278  26.275  0.00  0.00    -0.331 OA
ATOM     29  C   UNL     1       3.537  -4.167  27.190  0.00  0.00    +0.179 C 
ATOM     30  C   UNL     1       3.418  -4.621  28.662  0.00  0.00    +0.177 C 
ATOM     31  C   UNL     1       4.554  -5.585  29.018  0.00  0.00    +0.180 C 
ATOM     32  C   UNL     1       4.595  -6.732  27.997  0.00  0.00    +0.214 C 
BRANCH  30  33
ATOM     33  O   UNL     1       2.157  -5.273  28.867  0.00  0.00    -0.386 OA
ATOM     34  H   UNL     1       2.239  -5.854  29.645  0.00  0.00    +0.210 HD
ENDBRANCH  30  33
BRANCH  31  35
ATOM     35  O   UNL     1       5.795  -4.885  29.148  0.00  0.00    -0.386 OA
ATOM     36  H   UNL     1       6.545  -5.509  29.203  0.00  0.00    +0.210 HD
ENDBRANCH  31  35
BRANCH  32  37
ATOM     37  O   UNL     1       5.658  -7.646  28.283  0.00  0.00    -0.383 OA
ATOM     38  H   UNL     1       6.468  -7.258  27.902  0.00  0.00    +0.210 HD
ENDBRANCH  32  37
BRANCH  29  39
ATOM     39  C   UNL     1       2.301  -3.337  26.789  0.00  0.00    +0.190 C 
BRANCH  39  40
ATOM     40  O   UNL     1       2.409  -2.795  25.465  0.00  0.00    -0.392 OA
ATOM     41  H   UNL     1       1.739  -2.102  25.371  0.00  0.00    +0.210 HD
ENDBRANCH  39  40
ENDBRANCH  29  39
ENDBRANCH  26  27
ENDBRANCH   5  26
TORSDOF 12
ENDMDL
MODEL 5
REMARK VINA RESULT:      -7.0      1.702      2.336
REMARK  Name = 
REMARK  13 active torsions:
REMARK  status: ('A' for Active; 'I' for Inactive)
REMARK    1  A    between atoms: C_1  and  O_2
REMARK    2  A    between atoms: O_2  and  C_3
REMARK    3  A    between atoms: C_4  and  C_30
REMARK    4  A    between atoms: C_10  and  O_15
REMARK    5  A    between atoms: C_12  and  O_14
REMARK    6  A    between atoms: O_15  and  C_16
REMARK    7  A    between atoms: C_18  and  O_29
REMARK    8  A    between atoms: C_19  and  O_28
REMARK    9  A    between atoms: C_21  and  O_27
REMARK   10  A    between atoms: C_23  and  C_25
REMARK   11  A    between atoms: C_25  and  O_26
REMARK   12  A    between atoms: C_32  and  O_37
REMARK   13  A    between atoms: C_33  and  O_36
REMARK                            x       y       z     vdW  Elec       q    Type
REMARK                         _______ _______ _______ _____ _____    ______ ____
ROOT
ATOM      1  C   UNL     1       6.056  -2.783  23.322  0.00  0.00    +0.211 A 
ATOM      2  C   UNL     1       6.569  -1.381  23.520  0.00  0.00    +0.238 A 
ATOM      3  O   UNL     1       7.272  -0.810  22.689  0.00  0.00    -0.283 OA
ATOM      4  C   UNL     1       6.184  -0.670  24.747  0.00  0.00    +0.110 A 
ATOM      5  C   UNL     1       6.723   0.591  25.099  0.00  0.00    +0.142 A 
ATOM      6  C   UNL     1       6.294   1.196  26.287  0.00  0.00    +0.092 A 
ATOM      7  C   UNL     1       5.285   0.606  27.041  0.00  0.00    +0.124 A 
ATOM      8  C   UNL     1       4.737  -0.617  26.682  0.00  0.00    +0.092 A 
ATOM      9  C   UNL     1       5.212  -1.279  25.551  0.00  0.00    +0.147 A 
ATOM     10  O   UNL     1       4.667  -2.506  25.281  0.00  0.00    -0.451 OA
ATOM     11  C   UNL     1       5.152  -3.254  24.215  0.00  0.00    +0.181 A 
ENDROOT
BRANCH  11  12
ATOM     12  C   UNL     1       4.527  -4.617  24.113  0.00  0.00    +0.025 A 
ATOM     13  C   UNL     1       5.063  -5.705  24.833  0.00  0.00    +0.015 A 
ATOM     14  C   UNL     1       4.461  -6.970  24.804  0.00  0.00    +0.050 A 
ATOM     15  C   UNL     1       3.311  -7.159  24.056  0.00  0.00    +0.158 A 
ATOM     16  C   UNL     1       2.786  -6.116  23.305  0.00  0.00    +0.159 A 
ATOM     17  C   UNL     1       3.397  -4.862  23.309  0.00  0.00    +0.060 A 
BRANCH  15  18
ATOM     18  O   UNL     1       2.687  -8.374  24.068  0.00  0.00    -0.503 OA
ATOM     19  H   UNL     1       2.362  -8.475  24.985  0.00  0.00    +0.292 HD
ENDBRANCH  15  18
BRANCH  16  20
ATOM     20  O   UNL     1       1.651  -6.368  22.579  0.00  0.00    -0.503 OA
ATOM     21  H   UNL     1       1.478  -7.325  22.611  0.00  0.00    +0.292 HD
ENDBRANCH  16  20
ENDBRANCH  11  12
BRANCH   1  23
ATOM     22  C   UNL     1       7.585  -4.389  22.362  0.00  0.00    +0.277 C 
ATOM     23  O   UNL     1       6.437  -3.561  22.237  0.00  0.00    -0.488 OA
ENDBRANCH   1  23
BRANCH   7  24
ATOM     24  O   UNL     1       4.785   1.230  28.146  0.00  0.00    -0.507 OA
ATOM     25  H   UNL     1       5.519   1.477  28.732  0.00  0.00    +0.292 HD
ENDBRANCH   7  24
BRANCH   5  26
ATOM     26  O   UNL     1       7.630   1.171  24.238  0.00  0.00    -0.460 OA
BRANCH  26  27
ATOM     27  C   UNL     1       8.896   1.620  24.746  0.00  0.00    +0.339 C 
ATOM     28  O   UNL     1       8.977   3.040  24.863  0.00  0.00    -0.331 OA
ATOM     29  C   UNL     1       9.090   3.765  23.624  0.00  0.00    +0.179 C 
ATOM     30  C   UNL     1      10.276   3.278  22.761  0.00  0.00    +0.177 C 
ATOM     31  C   UNL     1      10.189   1.765  22.539  0.00  0.00    +0.180 C 
ATOM     32  C   UNL     1      10.051   1.053  23.893  0.00  0.00    +0.214 C 
BRANCH  30  33
ATOM     33  O   UNL     1      11.513   3.595  23.414  0.00  0.00    -0.386 OA
ATOM     34  H   UNL     1      11.576   4.564  23.490  0.00  0.00    +0.210 HD
ENDBRANCH  30  33
BRANCH  31  35
ATOM     35  O   UNL     1       9.151   1.443  21.610  0.00  0.00    -0.386 OA
ATOM     36  H   UNL     1       8.323   1.911  21.834  0.00  0.00    +0.210 HD
ENDBRANCH  31  35
BRANCH  32  37
ATOM     37  O   UNL     1       9.946  -0.365  23.728  0.00  0.00    -0.383 OA
ATOM     38  H   UNL     1       9.000  -0.587  23.821  0.00  0.00    +0.210 HD
ENDBRANCH  32  37
BRANCH  29  39
ATOM     39  C   UNL     1       9.274   5.252  23.986  0.00  0.00    +0.190 C 
BRANCH  39  40
ATOM     40  O   UNL     1       9.949   5.989  22.956  0.00  0.00    -0.392 OA
ATOM     41  H   UNL     1      10.896   5.989  23.161  0.00  0.00    +0.210 HD
ENDBRANCH  39  40
ENDBRANCH  29  39
ENDBRANCH  26  27
ENDBRANCH   5  26
TORSDOF 12
ENDMDL
MODEL 6
REMARK VINA RESULT:      -6.8      2.180      4.410
REMARK  Name = 
REMARK  13 active torsions:
REMARK  status: ('A' for Active; 'I' for Inactive)
REMARK    1  A    between atoms: C_1  and  O_2
REMARK    2  A    between atoms: O_2  and  C_3
REMARK    3  A    between atoms: C_4  and  C_30
REMARK    4  A    between atoms: C_10  and  O_15
REMARK    5  A    between atoms: C_12  and  O_14
REMARK    6  A    between atoms: O_15  and  C_16
REMARK    7  A    between atoms: C_18  and  O_29
REMARK    8  A    between atoms: C_19  and  O_28
REMARK    9  A    between atoms: C_21  and  O_27
REMARK   10  A    between atoms: C_23  and  C_25
REMARK   11  A    between atoms: C_25  and  O_26
REMARK   12  A    between atoms: C_32  and  O_37
REMARK   13  A    between atoms: C_33  and  O_36
REMARK                            x       y       z     vdW  Elec       q    Type
REMARK                         _______ _______ _______ _____ _____    ______ ____
ROOT
ATOM      1  C   UNL     1       5.070  -2.306  24.751  0.00  0.00    +0.211 A 
ATOM      2  C   UNL     1       5.821  -1.025  24.501  0.00  0.00    +0.238 A 
ATOM      3  O   UNL     1       5.471   0.051  24.980  0.00  0.00    -0.283 OA
ATOM      4  C   UNL     1       7.033  -1.085  23.673  0.00  0.00    +0.110 A 
ATOM      5  C   UNL     1       7.732   0.075  23.259  0.00  0.00    +0.142 A 
ATOM      6  C   UNL     1       8.881  -0.077  22.474  0.00  0.00    +0.092 A 
ATOM      7  C   UNL     1       9.370  -1.351  22.200  0.00  0.00    +0.124 A 
ATOM      8  C   UNL     1       8.701  -2.489  22.630  0.00  0.00    +0.092 A 
ATOM      9  C   UNL     1       7.507  -2.360  23.338  0.00  0.00    +0.147 A 
ATOM     10  O   UNL     1       6.868  -3.520  23.686  0.00  0.00    -0.451 OA
ATOM     11  C   UNL     1       5.634  -3.461  24.322  0.00  0.00    +0.181 A 
ENDROOT
BRANCH  11  12
ATOM     12  C   UNL     1       5.016  -4.813  24.543  0.00  0.00    +0.025 A 
ATOM     13  C   UNL     1       5.280  -5.536  25.725  0.00  0.00    +0.015 A 
ATOM     14  C   UNL     1       4.666  -6.769  25.982  0.00  0.00    +0.050 A 
ATOM     15  C   UNL     1       3.777  -7.292  25.058  0.00  0.00    +0.158 A 
ATOM     16  C   UNL     1       3.532  -6.622  23.866  0.00  0.00    +0.159 A 
ATOM     17  C   UNL     1       4.161  -5.407  23.594  0.00  0.00    +0.060 A 
BRANCH  15  18
ATOM     18  O   UNL     1       3.133  -8.466  25.327  0.00  0.00    -0.503 OA
ATOM     19  H   UNL     1       3.370  -8.670  26.254  0.00  0.00    +0.292 HD
ENDBRANCH  15  18
BRANCH  16  20
ATOM     20  O   UNL     1       2.650  -7.195  22.989  0.00  0.00    -0.503 OA
ATOM     21  H   UNL     1       2.940  -6.982  22.085  0.00  0.00    +0.292 HD
ENDBRANCH  16  20
ENDBRANCH  11  12
BRANCH   1  23
ATOM     22  C   UNL     1       3.902  -2.256  26.866  0.00  0.00    +0.277 C 
ATOM     23  O   UNL     1       3.869  -2.333  25.448  0.00  0.00    -0.488 OA
ENDBRANCH   1  23
BRANCH   7  24
ATOM     24  O   UNL     1      10.542  -1.518  21.523  0.00  0.00    -0.507 OA
ATOM     25  H   UNL     1      10.589  -2.428  21.188  0.00  0.00    +0.292 HD
ENDBRANCH   7  24
BRANCH   5  26
ATOM     26  O   UNL     1       7.254   1.301  23.672  0.00  0.00    -0.460 OA
BRANCH  26  27
ATOM     27  C   UNL     1       8.150   2.229  24.303  0.00  0.00    +0.339 C 
ATOM     28  O   UNL     1       7.842   2.454  25.678  0.00  0.00    -0.331 OA
ATOM     29  C   UNL     1       6.664   3.243  25.935  0.00  0.00    +0.179 C 
ATOM     30  C   UNL     1       6.699   4.608  25.213  0.00  0.00    +0.177 C 
ATOM     31  C   UNL     1       6.949   4.415  23.714  0.00  0.00    +0.180 C 
ATOM     32  C   UNL     1       8.203   3.552  23.508  0.00  0.00    +0.214 C 
BRANCH  30  33
ATOM     33  O   UNL     1       7.739   5.424  25.769  0.00  0.00    -0.386 OA
ATOM     34  H   UNL     1       7.988   5.051  26.634  0.00  0.00    +0.210 HD
ENDBRANCH  30  33
BRANCH  31  35
ATOM     35  O   UNL     1       5.783   3.901  23.065  0.00  0.00    -0.386 OA
ATOM     36  H   UNL     1       5.148   3.542  23.715  0.00  0.00    +0.210 HD
ENDBRANCH  31  35
BRANCH  32  37
ATOM     37  O   UNL     1       8.460   3.329  22.118  0.00  0.00    -0.383 OA
ATOM     38  H   UNL     1       8.569   2.366  22.006  0.00  0.00    +0.210 HD
ENDBRANCH  32  37
BRANCH  29  39
ATOM     39  C   UNL     1       6.585   3.451  27.460  0.00  0.00    +0.190 C 
BRANCH  39  40
ATOM     40  O   UNL     1       7.538   2.651  28.174  0.00  0.00    -0.392 OA
ATOM     41  H   UNL     1       7.680   1.836  27.670  0.00  0.00    +0.210 HD
ENDBRANCH  39  40
ENDBRANCH  29  39
ENDBRANCH  26  27
ENDBRANCH   5  26
TORSDOF 12
ENDMDL
MODEL 7
REMARK VINA RESULT:      -6.6      2.220      9.089
REMARK  Name = 
REMARK  13 active torsions:
REMARK  status: ('A' for Active; 'I' for Inactive)
REMARK    1  A    between atoms: C_1  and  O_2
REMARK    2  A    between atoms: O_2  and  C_3
REMARK    3  A    between atoms: C_4  and  C_30
REMARK    4  A    between atoms: C_10  and  O_15
REMARK    5  A    between atoms: C_12  and  O_14
REMARK    6  A    between atoms: O_15  and  C_16
REMARK    7  A    between atoms: C_18  and  O_29
REMARK    8  A    between atoms: C_19  and  O_28
REMARK    9  A    between atoms: C_21  and  O_27
REMARK   10  A    between atoms: C_23  and  C_25
REMARK   11  A    between atoms: C_25  and  O_26
REMARK   12  A    between atoms: C_32  and  O_37
REMARK   13  A    between atoms: C_33  and  O_36
REMARK                            x       y       z     vdW  Elec       q    Type
REMARK                         _______ _______ _______ _____ _____    ______ ____
ROOT
ATOM      1  C   UNL     1       8.788   0.241  23.654  0.00  0.00    +0.211 A 
ATOM      2  C   UNL     1       7.994  -0.957  24.104  0.00  0.00    +0.238 A 
ATOM      3  O   UNL     1       8.073  -2.050  23.547  0.00  0.00    -0.283 OA
ATOM      4  C   UNL     1       7.116  -0.805  25.272  0.00  0.00    +0.110 A 
ATOM      5  C   UNL     1       6.221  -1.820  25.691  0.00  0.00    +0.142 A 
ATOM      6  C   UNL     1       5.425  -1.590  26.818  0.00  0.00    +0.092 A 
ATOM      7  C   UNL     1       5.592  -0.424  27.560  0.00  0.00    +0.124 A 
ATOM      8  C   UNL     1       6.489   0.559  27.165  0.00  0.00    +0.092 A 
ATOM      9  C   UNL     1       7.229   0.388  25.996  0.00  0.00    +0.147 A 
ATOM     10  O   UNL     1       8.055   1.418  25.633  0.00  0.00    -0.451 OA
ATOM     11  C   UNL     1       8.759   1.346  24.438  0.00  0.00    +0.181 A 
ENDROOT
BRANCH  11  12
ATOM     12  C   UNL     1       9.538   2.595  24.132  0.00  0.00    +0.025 A 
ATOM     13  C   UNL     1      10.887   2.516  23.727  0.00  0.00    +0.015 A 
ATOM     14  C   UNL     1      11.614   3.660  23.376  0.00  0.00    +0.050 A 
ATOM     15  C   UNL     1      10.998   4.899  23.423  0.00  0.00    +0.158 A 
ATOM     16  C   UNL     1       9.684   5.011  23.859  0.00  0.00    +0.159 A 
ATOM     17  C   UNL     1       8.963   3.877  24.235  0.00  0.00    +0.060 A 
BRANCH  15  18
ATOM     18  O   UNL     1      11.683   6.013  23.029  0.00  0.00    -0.503 OA
ATOM     19  H   UNL     1      12.626   5.764  23.114  0.00  0.00    +0.292 HD
ENDBRANCH  15  18
BRANCH  16  20
ATOM     20  O   UNL     1       9.133   6.265  23.891  0.00  0.00    -0.503 OA
ATOM     21  H   UNL     1       8.239   6.192  24.268  0.00  0.00    +0.292 HD
ENDBRANCH  16  20
ENDBRANCH  11  12
BRANCH   1  23
ATOM     22  C   UNL     1       8.965   0.470  21.255  0.00  0.00    +0.277 C 
ATOM     23  O   UNL     1       9.577   0.216  22.512  0.00  0.00    -0.488 OA
ENDBRANCH   1  23
BRANCH   7  24
ATOM     24  O   UNL     1       4.897  -0.227  28.716  0.00  0.00    -0.507 OA
ATOM     25  H   UNL     1       4.933   0.715  28.953  0.00  0.00    +0.292 HD
ENDBRANCH   7  24
BRANCH   5  26
ATOM     26  O   UNL     1       6.199  -2.999  24.976  0.00  0.00    -0.460 OA
BRANCH  26  27
ATOM     27  C   UNL     1       4.947  -3.498  24.480  0.00  0.00    +0.339 C 
ATOM     28  O   UNL     1       4.502  -4.668  25.166  0.00  0.00    -0.331 OA
ATOM     29  C   UNL     1       5.228  -5.877  24.876  0.00  0.00    +0.179 C 
ATOM     30  C   UNL     1       5.277  -6.188  23.363  0.00  0.00    +0.177 C 
ATOM     31  C   UNL     1       5.825  -4.986  22.588  0.00  0.00    +0.180 C 
ATOM     32  C   UNL     1       5.024  -3.728  22.955  0.00  0.00    +0.214 C 
BRANCH  30  33
ATOM     33  O   UNL     1       3.960  -6.502  22.891  0.00  0.00    -0.386 OA
ATOM     34  H   UNL     1       4.031  -7.247  22.267  0.00  0.00    +0.210 HD
ENDBRANCH  30  33
BRANCH  31  35
ATOM     35  O   UNL     1       7.235  -4.851  22.786  0.00  0.00    -0.386 OA
ATOM     36  H   UNL     1       7.431  -4.148  23.436  0.00  0.00    +0.210 HD
ENDBRANCH  31  35
BRANCH  32  37
ATOM     37  O   UNL     1       5.519  -2.576  22.266  0.00  0.00    -0.383 OA
ATOM     38  H   UNL     1       4.903  -1.846  22.466  0.00  0.00    +0.210 HD
ENDBRANCH  32  37
BRANCH  29  39
ATOM     39  C   UNL     1       4.519  -7.020  25.630  0.00  0.00    +0.190 C 
BRANCH  39  40
ATOM     40  O   UNL     1       5.059  -7.230  26.942  0.00  0.00    -0.392 OA
ATOM     41  H   UNL     1       4.340  -7.534  27.516  0.00  0.00    +0.210 HD
ENDBRANCH  39  40
ENDBRANCH  29  39
ENDBRANCH  26  27
ENDBRANCH   5  26
TORSDOF 12
ENDMDL
MODEL 8
REMARK VINA RESULT:      -6.6      2.507      8.832
REMARK  Name = 
REMARK  13 active torsions:
REMARK  status: ('A' for Active; 'I' for Inactive)
REMARK    1  A    between atoms: C_1  and  O_2
REMARK    2  A    between atoms: O_2  and  C_3
REMARK    3  A    between atoms: C_4  and  C_30
REMARK    4  A    between atoms: C_10  and  O_15
REMARK    5  A    between atoms: C_12  and  O_14
REMARK    6  A    between atoms: O_15  and  C_16
REMARK    7  A    between atoms: C_18  and  O_29
REMARK    8  A    between atoms: C_19  and  O_28
REMARK    9  A    between atoms: C_21  and  O_27
REMARK   10  A    between atoms: C_23  and  C_25
REMARK   11  A    between atoms: C_25  and  O_26
REMARK   12  A    between atoms: C_32  and  O_37
REMARK   13  A    between atoms: C_33  and  O_36
REMARK                            x       y       z     vdW  Elec       q    Type
REMARK                         _______ _______ _______ _____ _____    ______ ____
ROOT
ATOM      1  C   UNL     1       6.720  -1.336  25.129  0.00  0.00    +0.211 A 
ATOM      2  C   UNL     1       6.283  -2.734  25.477  0.00  0.00    +0.238 A 
ATOM      3  O   UNL     1       6.046  -3.085  26.631  0.00  0.00    -0.283 OA
ATOM      4  C   UNL     1       6.111  -3.698  24.382  0.00  0.00    +0.110 A 
ATOM      5  C   UNL     1       5.843  -5.070  24.609  0.00  0.00    +0.142 A 
ATOM      6  C   UNL     1       5.690  -5.916  23.504  0.00  0.00    +0.092 A 
ATOM      7  C   UNL     1       5.703  -5.386  22.218  0.00  0.00    +0.124 A 
ATOM      8  C   UNL     1       5.937  -4.036  21.996  0.00  0.00    +0.092 A 
ATOM      9  C   UNL     1       6.180  -3.192  23.078  0.00  0.00    +0.147 A 
ATOM     10  O   UNL     1       6.458  -1.883  22.789  0.00  0.00    -0.451 OA
ATOM     11  C   UNL     1       6.788  -1.007  23.816  0.00  0.00    +0.181 A 
ENDROOT
BRANCH  11  12
ATOM     12  C   UNL     1       7.167   0.363  23.328  0.00  0.00    +0.025 A 
ATOM     13  C   UNL     1       6.379   1.485  23.661  0.00  0.00    +0.015 A 
ATOM     14  C   UNL     1       6.746   2.780  23.271  0.00  0.00    +0.050 A 
ATOM     15  C   UNL     1       7.910   2.967  22.545  0.00  0.00    +0.158 A 
ATOM     16  C   UNL     1       8.683   1.877  22.168  0.00  0.00    +0.159 A 
ATOM     17  C   UNL     1       8.307   0.583  22.530  0.00  0.00    +0.060 A 
BRANCH  15  18
ATOM     18  O   UNL     1       8.303   4.231  22.210  0.00  0.00    -0.503 OA
ATOM     19  H   UNL     1       7.786   4.444  21.407  0.00  0.00    +0.292 HD
ENDBRANCH  15  18
BRANCH  16  20
ATOM     20  O   UNL     1       9.818   2.126  21.443  0.00  0.00    -0.503 OA
ATOM     21  H   UNL     1      10.581   2.054  22.042  0.00  0.00    +0.292 HD
ENDBRANCH  16  20
ENDBRANCH  11  12
BRANCH   1  23
ATOM     22  C   UNL     1       8.247  -0.425  26.765  0.00  0.00    +0.277 C 
ATOM     23  O   UNL     1       6.991  -0.384  26.102  0.00  0.00    -0.488 OA
ENDBRANCH   1  23
BRANCH   7  24
ATOM     24  O   UNL     1       5.455  -6.177  21.135  0.00  0.00    -0.507 OA
ATOM     25  H   UNL     1       6.280  -6.613  20.863  0.00  0.00    +0.292 HD
ENDBRANCH   7  24
BRANCH   5  26
ATOM     26  O   UNL     1       5.723  -5.500  25.914  0.00  0.00    -0.460 OA
BRANCH  26  27
ATOM     27  C   UNL     1       4.673  -6.417  26.260  0.00  0.00    +0.339 C 
ATOM     28  O   UNL     1       3.382  -5.965  25.850  0.00  0.00    -0.331 OA
ATOM     29  C   UNL     1       2.832  -4.872  26.610  0.00  0.00    +0.179 C 
ATOM     30  C   UNL     1       2.787  -5.170  28.125  0.00  0.00    +0.177 C 
ATOM     31  C   UNL     1       4.173  -5.583  28.630  0.00  0.00    +0.180 C 
ATOM     32  C   UNL     1       4.711  -6.736  27.769  0.00  0.00    +0.214 C 
BRANCH  30  33
ATOM     33  O   UNL     1       1.849  -6.224  28.384  0.00  0.00    -0.386 OA
ATOM     34  H   UNL     1       2.296  -7.074  28.219  0.00  0.00    +0.210 HD
ENDBRANCH  30  33
BRANCH  31  35
ATOM     35  O   UNL     1       5.049  -4.455  28.697  0.00  0.00    -0.386 OA
ATOM     36  H   UNL     1       4.715  -3.789  29.329  0.00  0.00    +0.210 HD
ENDBRANCH  31  35
BRANCH  32  37
ATOM     37  O   UNL     1       6.016  -7.139  28.196  0.00  0.00    -0.383 OA
ATOM     38  H   UNL     1       6.481  -7.463  27.402  0.00  0.00    +0.210 HD
ENDBRANCH  32  37
BRANCH  29  39
ATOM     39  C   UNL     1       1.407  -4.625  26.076  0.00  0.00    +0.190 C 
BRANCH  39  40
ATOM     40  O   UNL     1       0.581  -3.924  27.018  0.00  0.00    -0.392 OA
ATOM     41  H   UNL     1       0.132  -3.207  26.546  0.00  0.00    +0.210 HD
ENDBRANCH  39  40
ENDBRANCH  29  39
ENDBRANCH  26  27
ENDBRANCH   5  26
TORSDOF 12
ENDMDL
MODEL 9
REMARK VINA RESULT:      -6.5      2.561      3.847
REMARK  Name = 
REMARK  13 active torsions:
REMARK  status: ('A' for Active; 'I' for Inactive)
REMARK    1  A    between atoms: C_1  and  O_2
REMARK    2  A    between atoms: O_2  and  C_3
REMARK    3  A    between atoms: C_4  and  C_30
REMARK    4  A    between atoms: C_10  and  O_15
REMARK    5  A    between atoms: C_12  and  O_14
REMARK    6  A    between atoms: O_15  and  C_16
REMARK    7  A    between atoms: C_18  and  O_29
REMARK    8  A    between atoms: C_19  and  O_28
REMARK    9  A    between atoms: C_21  and  O_27
REMARK   10  A    between atoms: C_23  and  C_25
REMARK   11  A    between atoms: C_25  and  O_26
REMARK   12  A    between atoms: C_32  and  O_37
REMARK   13  A    between atoms: C_33  and  O_36
REMARK                            x       y       z     vdW  Elec       q    Type
REMARK                         _______ _______ _______ _____ _____    ______ ____
ROOT
ATOM      1  C   UNL     1       4.591  -2.961  25.890  0.00  0.00    +0.211 A 
ATOM      2  C   UNL     1       5.833  -2.195  25.516  0.00  0.00    +0.238 A 
ATOM      3  O   UNL     1       5.844  -0.972  25.394  0.00  0.00    -0.283 OA
ATOM      4  C   UNL     1       7.078  -2.950  25.317  0.00  0.00    +0.110 A 
ATOM      5  C   UNL     1       8.263  -2.351  24.826  0.00  0.00    +0.142 A 
ATOM      6  C   UNL     1       9.404  -3.147  24.672  0.00  0.00    +0.092 A 
ATOM      7  C   UNL     1       9.386  -4.474  25.092  0.00  0.00    +0.124 A 
ATOM      8  C   UNL     1       8.232  -5.054  25.600  0.00  0.00    +0.092 A 
ATOM      9  C   UNL     1       7.060  -4.303  25.679  0.00  0.00    +0.147 A 
ATOM     10  O   UNL     1       5.943  -4.949  26.137  0.00  0.00    -0.451 OA
ATOM     11  C   UNL     1       4.725  -4.282  26.166  0.00  0.00    +0.181 A 
ENDROOT
BRANCH  11  12
ATOM     12  C   UNL     1       3.580  -5.155  26.593  0.00  0.00    +0.025 A 
ATOM     13  C   UNL     1       2.365  -5.143  25.877  0.00  0.00    +0.015 A 
ATOM     14  C   UNL     1       1.305  -5.994  26.218  0.00  0.00    +0.050 A 
ATOM     15  C   UNL     1       1.451  -6.870  27.280  0.00  0.00    +0.158 A 
ATOM     16  C   UNL     1       2.620  -6.873  28.029  0.00  0.00    +0.159 A 
ATOM     17  C   UNL     1       3.668  -6.009  27.710  0.00  0.00    +0.060 A 
BRANCH  15  18
ATOM     18  O   UNL     1       0.444  -7.741  27.584  0.00  0.00    -0.503 OA
ATOM     19  H   UNL     1       0.784  -8.254  28.345  0.00  0.00    +0.292 HD
ENDBRANCH  15  18
BRANCH  16  20
ATOM     20  O   UNL     1       2.700  -7.756  29.073  0.00  0.00    -0.503 OA
ATOM     21  H   UNL     1       3.130  -8.567  28.751  0.00  0.00    +0.292 HD
ENDBRANCH  16  20
ENDBRANCH  11  12
BRANCH   1  23
ATOM     22  C   UNL     1       3.056  -1.647  27.215  0.00  0.00    +0.277 C 
ATOM     23  O   UNL     1       3.354  -2.345  26.014  0.00  0.00    -0.488 OA
ENDBRANCH   1  23
BRANCH   7  24
ATOM     24  O   UNL     1      10.515  -5.236  25.044  0.00  0.00    -0.507 OA
ATOM     25  H   UNL     1      10.505  -5.768  24.230  0.00  0.00    +0.292 HD
ENDBRANCH   7  24
BRANCH   5  26
ATOM     26  O   UNL     1       8.238  -1.001  24.546  0.00  0.00    -0.460 OA
BRANCH  26  27
ATOM     27  C   UNL     1       8.640  -0.545  23.244  0.00  0.00    +0.339 C 
ATOM     28  O   UNL     1       9.772   0.324  23.284  0.00  0.00    -0.331 OA
ATOM     29  C   UNL     1       9.528   1.647  23.797  0.00  0.00    +0.179 C 
ATOM     30  C   UNL     1       8.386   2.369  23.049  0.00  0.00    +0.177 C 
ATOM     31  C   UNL     1       7.119   1.508  23.049  0.00  0.00    +0.180 C 
ATOM     32  C   UNL     1       7.449   0.108  22.511  0.00  0.00    +0.214 C 
BRANCH  30  33
ATOM     33  O   UNL     1       8.784   2.635  21.697  0.00  0.00    -0.386 OA
ATOM     34  H   UNL     1       7.997   2.553  21.128  0.00  0.00    +0.210 HD
ENDBRANCH  30  33
BRANCH  31  35
ATOM     35  O   UNL     1       6.507   1.500  24.341  0.00  0.00    -0.386 OA
ATOM     36  H   UNL     1       5.565   1.753  24.285  0.00  0.00    +0.210 HD
ENDBRANCH  31  35
BRANCH  32  37
ATOM     37  O   UNL     1       6.293  -0.737  22.513  0.00  0.00    -0.383 OA
ATOM     38  H   UNL     1       5.518  -0.148  22.454  0.00  0.00    +0.210 HD
ENDBRANCH  32  37
BRANCH  29  39
ATOM     39  C   UNL     1      10.843   2.438  23.647  0.00  0.00    +0.190 C 
BRANCH  39  40
ATOM     40  O   UNL     1      10.620   3.816  23.314  0.00  0.00    -0.392 OA
ATOM     41  H   UNL     1      11.154   4.358  23.913  0.00  0.00    +0.210 HD
ENDBRANCH  39  40
ENDBRANCH  29  39
ENDBRANCH  26  27
ENDBRANCH   5  26
TORSDOF 12
ENDMDL
