MODEL 1
REMARK VINA RESULT:      -7.8      0.000      0.000
REMARK  Name = 
REMARK  16 active torsions:
REMARK  status: ('A' for Active; 'I' for Inactive)
REMARK    1  A    between atoms: C_2  and  O_42
REMARK    2  A    between atoms: C_3  and  O_41
REMARK    3  A    between atoms: C_4  and  O_40
REMARK    4  A    between atoms: C_5  and  O_7
REMARK    5  A    between atoms: O_7  and  C_8
REMARK    6  A    between atoms: C_9  and  C_32
REMARK    7  A    between atoms: C_13  and  O_20
REMARK    8  A    between atoms: C_15  and  O_19
REMARK    9  A    between atoms: O_20  and  C_21
REMARK   10  A    between atoms: C_22  and  O_31
REMARK   11  A    between atoms: C_23  and  O_30
REMARK   12  A    between atoms: C_24  and  O_29
REMARK   13  A    between atoms: C_25  and  C_27
REMARK   14  A    between atoms: C_27  and  O_28
REMARK   15  A    between atoms: C_34  and  O_39
REMARK   16  A    between atoms: C_35  and  O_38
REMARK                            x       y       z     vdW  Elec       q    Type
REMARK                         _______ _______ _______ _____ _____    ______ ____
ROOT
ATOM      1  C   UNL     1       7.019  -4.232  24.383  0.00  0.00    +0.214 A 
ATOM      2  C   UNL     1       7.887  -3.619  23.311  0.00  0.00    +0.238 A 
ATOM      3  O   UNL     1       8.155  -4.266  22.301  0.00  0.00    -0.283 OA
ATOM      4  C   UNL     1       8.383  -2.242  23.529  0.00  0.00    +0.109 A 
ATOM      5  C   UNL     1       8.125  -1.669  24.764  0.00  0.00    +0.147 A 
ATOM      6  C   UNL     1       8.518  -0.359  25.051  0.00  0.00    +0.093 A 
ATOM      7  C   UNL     1       9.220   0.396  24.116  0.00  0.00    +0.131 A 
ATOM      8  C   UNL     1       9.507  -0.176  22.872  0.00  0.00    +0.092 A 
ATOM      9  O   UNL     1       7.498  -2.321  25.784  0.00  0.00    -0.451 OA
ATOM     10  C   UNL     1       9.079  -1.484  22.578  0.00  0.00    +0.135 A 
ATOM     11  C   UNL     1       6.953  -3.572  25.566  0.00  0.00    +0.181 A 
ENDROOT
BRANCH  11  12
ATOM     12  C   UNL     1       6.345  -4.072  26.821  0.00  0.00    +0.025 A 
ATOM     13  C   UNL     1       5.222  -3.441  27.384  0.00  0.00    +0.015 A 
ATOM     14  C   UNL     1       4.694  -3.870  28.603  0.00  0.00    +0.050 A 
ATOM     15  C   UNL     1       5.241  -4.980  29.223  0.00  0.00    +0.158 A 
ATOM     16  C   UNL     1       6.294  -5.674  28.636  0.00  0.00    +0.159 A 
ATOM     17  C   UNL     1       6.855  -5.228  27.444  0.00  0.00    +0.060 A 
BRANCH  16  18
ATOM     18  O   UNL     1       6.753  -6.790  29.280  0.00  0.00    -0.503 OA
ATOM     19  H   UNL     1       6.818  -7.514  28.634  0.00  0.00    +0.292 HD
ENDBRANCH  16  18
BRANCH  15  20
ATOM     20  O   UNL     1       4.733  -5.386  30.422  0.00  0.00    -0.503 OA
ATOM     21  H   UNL     1       5.169  -4.816  31.085  0.00  0.00    +0.292 HD
ENDBRANCH  15  20
ENDBRANCH  11  12
BRANCH  10  22
ATOM     22  O   UNL     1       9.335  -1.994  21.336  0.00  0.00    -0.506 OA
ATOM     23  H   UNL     1       9.110  -1.355  20.641  0.00  0.00    +0.292 HD
ENDBRANCH  10  22
BRANCH   7  24
ATOM     24  O   UNL     1       9.645   1.688  24.309  0.00  0.00    -0.461 OA
BRANCH  24  25
ATOM     25  C   UNL     1       9.484   2.586  23.192  0.00  0.00    +0.339 C 
ATOM     26  O   UNL     1      10.718   3.221  22.815  0.00  0.00    -0.331 OA
ATOM     27  C   UNL     1      11.255   4.118  23.811  0.00  0.00    +0.179 C 
ATOM     28  C   UNL     1      10.241   5.240  24.083  0.00  0.00    +0.177 C 
ATOM     29  C   UNL     1       8.908   4.631  24.541  0.00  0.00    +0.180 C 
ATOM     30  C   UNL     1       8.400   3.642  23.487  0.00  0.00    +0.214 C 
BRANCH  29  31
ATOM     31  O   UNL     1       7.942   5.669  24.743  0.00  0.00    -0.386 OA
ATOM     32  H   UNL     1       7.065   5.262  24.594  0.00  0.00    +0.210 HD
ENDBRANCH  29  31
BRANCH  30  33
ATOM     33  O   UNL     1       7.162   3.026  23.856  0.00  0.00    -0.383 OA
ATOM     34  H   UNL     1       6.517   3.731  24.040  0.00  0.00    +0.210 HD
ENDBRANCH  30  33
BRANCH  28  35
ATOM     35  O   UNL     1       9.999   6.015  22.893  0.00  0.00    -0.386 OA
ATOM     36  H   UNL     1      10.862   6.307  22.536  0.00  0.00    +0.210 HD
ENDBRANCH  28  35
BRANCH  27  37
ATOM     37  C   UNL     1      12.573   4.697  23.267  0.00  0.00    +0.190 C 
BRANCH  37  38
ATOM     38  O   UNL     1      12.978   5.851  24.003  0.00  0.00    -0.392 OA
ATOM     39  H   UNL     1      12.600   5.787  24.897  0.00  0.00    +0.210 HD
ENDBRANCH  37  38
ENDBRANCH  27  37
ENDBRANCH  24  25
ENDBRANCH   7  24
BRANCH   1  40
ATOM     40  O   UNL     1       6.443  -5.439  24.024  0.00  0.00    -0.453 OA
BRANCH  40  43
ATOM     41  C   UNL     1       3.666  -7.461  25.122  0.00  0.00    +0.198 C 
ATOM     42  O   UNL     1       4.953  -7.129  24.606  0.00  0.00    -0.337 OA
ATOM     43  C   UNL     1       5.090  -5.721  24.373  0.00  0.00    +0.339 C 
ATOM     44  C   UNL     1       4.139  -5.364  23.211  0.00  0.00    +0.214 C 
ATOM     45  C   UNL     1       2.702  -5.666  23.666  0.00  0.00    +0.180 C 
ATOM     46  C   UNL     1       2.563  -7.134  24.123  0.00  0.00    +0.171 C 
BRANCH  46  47
ATOM     47  O   UNL     1       1.299  -7.400  24.736  0.00  0.00    -0.387 OA
ATOM     48  H   UNL     1       0.752  -7.910  24.115  0.00  0.00    +0.210 HD
ENDBRANCH  46  47
BRANCH  45  49
ATOM     49  O   UNL     1       1.782  -5.399  22.604  0.00  0.00    -0.386 OA
ATOM     50  H   UNL     1       1.166  -4.725  22.957  0.00  0.00    +0.210 HD
ENDBRANCH  45  49
BRANCH  44  51
ATOM     51  O   UNL     1       4.394  -6.149  22.030  0.00  0.00    -0.383 OA
ATOM     52  H   UNL     1       5.367  -6.203  21.933  0.00  0.00    +0.210 HD
ENDBRANCH  44  51
ENDBRANCH  40  43
ENDBRANCH   1  40
TORSDOF 16
ENDMDL
MODEL 2
REMARK VINA RESULT:      -7.7      1.781     10.682
REMARK  Name = 
REMARK  16 active torsions:
REMARK  status: ('A' for Active; 'I' for Inactive)
REMARK    1  A    between atoms: C_2  and  O_42
REMARK    2  A    between atoms: C_3  and  O_41
REMARK    3  A    between atoms: C_4  and  O_40
REMARK    4  A    between atoms: C_5  and  O_7
REMARK    5  A    between atoms: O_7  and  C_8
REMARK    6  A    between atoms: C_9  and  C_32
REMARK    7  A    between atoms: C_13  and  O_20
REMARK    8  A    between atoms: C_15  and  O_19
REMARK    9  A    between atoms: O_20  and  C_21
REMARK   10  A    between atoms: C_22  and  O_31
REMARK   11  A    between atoms: C_23  and  O_30
REMARK   12  A    between atoms: C_24  and  O_29
REMARK   13  A    between atoms: C_25  and  C_27
REMARK   14  A    between atoms: C_27  and  O_28
REMARK   15  A    between atoms: C_34  and  O_39
REMARK   16  A    between atoms: C_35  and  O_38
REMARK                            x       y       z     vdW  Elec       q    Type
REMARK                         _______ _______ _______ _____ _____    ______ ____
ROOT
ATOM      1  C   UNL     1       9.099   1.973  23.194  0.00  0.00    +0.214 A 
ATOM      2  C   UNL     1       9.591   0.575  22.915  0.00  0.00    +0.238 A 
ATOM      3  O   UNL     1      10.518   0.401  22.127  0.00  0.00    -0.283 OA
ATOM      4  C   UNL     1       8.924  -0.544  23.618  0.00  0.00    +0.109 A 
ATOM      5  C   UNL     1       7.807  -0.234  24.376  0.00  0.00    +0.147 A 
ATOM      6  C   UNL     1       7.133  -1.215  25.107  0.00  0.00    +0.093 A 
ATOM      7  C   UNL     1       7.541  -2.545  25.062  0.00  0.00    +0.131 A 
ATOM      8  C   UNL     1       8.654  -2.878  24.284  0.00  0.00    +0.092 A 
ATOM      9  O   UNL     1       7.273   1.018  24.458  0.00  0.00    -0.451 OA
ATOM     10  C   UNL     1       9.348  -1.880  23.576  0.00  0.00    +0.135 A 
ATOM     11  C   UNL     1       7.934   2.085  23.880  0.00  0.00    +0.181 A 
ENDROOT
BRANCH  11  12
ATOM     12  C   UNL     1       7.152   3.325  24.093  0.00  0.00    +0.025 A 
ATOM     13  C   UNL     1       7.138   3.968  25.342  0.00  0.00    +0.015 A 
ATOM     14  C   UNL     1       6.345   5.096  25.560  0.00  0.00    +0.050 A 
ATOM     15  C   UNL     1       5.623   5.628  24.506  0.00  0.00    +0.158 A 
ATOM     16  C   UNL     1       5.696   5.061  23.238  0.00  0.00    +0.159 A 
ATOM     17  C   UNL     1       6.449   3.911  23.022  0.00  0.00    +0.060 A 
BRANCH  16  18
ATOM     18  O   UNL     1       4.996   5.668  22.232  0.00  0.00    -0.503 OA
ATOM     19  H   UNL     1       5.626   5.977  21.560  0.00  0.00    +0.292 HD
ENDBRANCH  16  18
BRANCH  15  20
ATOM     20  O   UNL     1       4.836   6.720  24.727  0.00  0.00    -0.503 OA
ATOM     21  H   UNL     1       4.606   7.048  23.835  0.00  0.00    +0.292 HD
ENDBRANCH  15  20
ENDBRANCH  11  12
BRANCH  10  22
ATOM     22  O   UNL     1      10.460  -2.233  22.864  0.00  0.00    -0.506 OA
ATOM     23  H   UNL     1      10.325  -3.073  22.397  0.00  0.00    +0.292 HD
ENDBRANCH  10  22
BRANCH   7  24
ATOM     24  O   UNL     1       6.941  -3.574  25.747  0.00  0.00    -0.461 OA
BRANCH  24  25
ATOM     25  C   UNL     1       6.958  -4.864  25.103  0.00  0.00    +0.339 C 
ATOM     26  O   UNL     1       5.958  -4.979  24.076  0.00  0.00    -0.331 OA
ATOM     27  C   UNL     1       4.600  -4.934  24.560  0.00  0.00    +0.179 C 
ATOM     28  C   UNL     1       4.370  -6.096  25.539  0.00  0.00    +0.177 C 
ATOM     29  C   UNL     1       5.376  -6.006  26.694  0.00  0.00    +0.180 C 
ATOM     30  C   UNL     1       6.805  -5.997  26.138  0.00  0.00    +0.214 C 
BRANCH  29  31
ATOM     31  O   UNL     1       5.204  -7.118  27.579  0.00  0.00    -0.386 OA
ATOM     32  H   UNL     1       5.872  -7.013  28.287  0.00  0.00    +0.210 HD
ENDBRANCH  29  31
BRANCH  30  33
ATOM     33  O   UNL     1       7.798  -5.902  27.164  0.00  0.00    -0.383 OA
ATOM     34  H   UNL     1       8.327  -5.102  26.997  0.00  0.00    +0.210 HD
ENDBRANCH  30  33
BRANCH  28  35
ATOM     35  O   UNL     1       4.550  -7.366  24.881  0.00  0.00    -0.386 OA
ATOM     36  H   UNL     1       3.973  -7.386  24.091  0.00  0.00    +0.210 HD
ENDBRANCH  28  35
BRANCH  27  37
ATOM     37  C   UNL     1       3.658  -5.050  23.348  0.00  0.00    +0.190 C 
BRANCH  37  38
ATOM     38  O   UNL     1       4.124  -6.028  22.418  0.00  0.00    -0.392 OA
ATOM     39  H   UNL     1       3.659  -5.889  21.575  0.00  0.00    +0.210 HD
ENDBRANCH  37  38
ENDBRANCH  27  37
ENDBRANCH  24  25
ENDBRANCH   7  24
BRANCH   1  40
ATOM     40  O   UNL     1       9.890   2.971  22.650  0.00  0.00    -0.453 OA
BRANCH  40  43
ATOM     41  C   UNL     1      10.734   5.929  24.533  0.00  0.00    +0.198 C 
ATOM     42  O   UNL     1      10.085   5.099  23.573  0.00  0.00    -0.337 OA
ATOM     43  C   UNL     1      10.685   3.799  23.496  0.00  0.00    +0.339 C 
ATOM     44  C   UNL     1      12.098   3.990  22.904  0.00  0.00    +0.214 C 
ATOM     45  C   UNL     1      12.904   4.865  23.877  0.00  0.00    +0.180 C 
ATOM     46  C   UNL     1      12.182   6.203  24.147  0.00  0.00    +0.171 C 
BRANCH  46  47
ATOM     47  O   UNL     1      12.799   6.957  25.194  0.00  0.00    -0.387 OA
ATOM     48  H   UNL     1      12.719   7.903  24.985  0.00  0.00    +0.210 HD
ENDBRANCH  46  47
BRANCH  45  49
ATOM     49  O   UNL     1      14.209   5.116  23.349  0.00  0.00    -0.386 OA
ATOM     50  H   UNL     1      14.763   4.371  23.662  0.00  0.00    +0.210 HD
ENDBRANCH  45  49
BRANCH  44  51
ATOM     51  O   UNL     1      12.074   4.666  21.631  0.00  0.00    -0.383 OA
ATOM     52  H   UNL     1      11.309   5.277  21.651  0.00  0.00    +0.210 HD
ENDBRANCH  44  51
ENDBRANCH  40  43
ENDBRANCH   1  40
TORSDOF 16
ENDMDL
MODEL 3
REMARK VINA RESULT:      -7.7      1.228      1.961
REMARK  Name = 
REMARK  16 active torsions:
REMARK  status: ('A' for Active; 'I' for Inactive)
REMARK    1  A    between atoms: C_2  and  O_42
REMARK    2  A    between atoms: C_3  and  O_41
REMARK    3  A    between atoms: C_4  and  O_40
REMARK    4  A    between atoms: C_5  and  O_7
REMARK    5  A    between atoms: O_7  and  C_8
REMARK    6  A    between atoms: C_9  and  C_32
REMARK    7  A    between atoms: C_13  and  O_20
REMARK    8  A    between atoms: C_15  and  O_19
REMARK    9  A    between atoms: O_20  and  C_21
REMARK   10  A    between atoms: C_22  and  O_31
REMARK   11  A    between atoms: C_23  and  O_30
REMARK   12  A    between atoms: C_24  and  O_29
REMARK   13  A    between atoms: C_25  and  C_27
REMARK   14  A    between atoms: C_27  and  O_28
REMARK   15  A    between atoms: C_34  and  O_39
REMARK   16  A    between atoms: C_35  and  O_38
REMARK                            x       y       z     vdW  Elec       q    Type
REMARK                         _______ _______ _______ _____ _____    ______ ____
ROOT
ATOM      1  C   UNL     1       7.293  -4.031  25.324  0.00  0.00    +0.214 A 
ATOM      2  C   UNL     1       8.472  -3.611  24.483  0.00  0.00    +0.238 A 
ATOM      3  O   UNL     1       9.058  -4.444  23.795  0.00  0.00    -0.283 OA
ATOM      4  C   UNL     1       8.877  -2.188  24.525  0.00  0.00    +0.109 A 
ATOM      5  C   UNL     1       8.226  -1.376  25.439  0.00  0.00    +0.147 A 
ATOM      6  C   UNL     1       8.510  -0.011  25.527  0.00  0.00    +0.093 A 
ATOM      7  C   UNL     1       9.489   0.567  24.723  0.00  0.00    +0.131 A 
ATOM      8  C   UNL     1      10.171  -0.244  23.811  0.00  0.00    +0.092 A 
ATOM      9  O   UNL     1       7.290  -1.830  26.321  0.00  0.00    -0.451 OA
ATOM     10  C   UNL     1       9.857  -1.611  23.705  0.00  0.00    +0.135 A 
ATOM     11  C   UNL     1       6.840  -3.133  26.234  0.00  0.00    +0.181 A 
ENDROOT
BRANCH  11  12
ATOM     12  C   UNL     1       5.844  -3.385  27.302  0.00  0.00    +0.025 A 
ATOM     13  C   UNL     1       5.937  -4.519  28.125  0.00  0.00    +0.015 A 
ATOM     14  C   UNL     1       4.958  -4.792  29.084  0.00  0.00    +0.050 A 
ATOM     15  C   UNL     1       3.927  -3.890  29.271  0.00  0.00    +0.158 A 
ATOM     16  C   UNL     1       3.867  -2.714  28.529  0.00  0.00    +0.159 A 
ATOM     17  C   UNL     1       4.813  -2.456  27.542  0.00  0.00    +0.060 A 
BRANCH  16  18
ATOM     18  O   UNL     1       2.847  -1.845  28.801  0.00  0.00    -0.503 OA
ATOM     19  H   UNL     1       3.172  -0.938  28.668  0.00  0.00    +0.292 HD
ENDBRANCH  16  18
BRANCH  15  20
ATOM     20  O   UNL     1       2.963  -4.168  30.196  0.00  0.00    -0.503 OA
ATOM     21  H   UNL     1       2.510  -4.963  29.855  0.00  0.00    +0.292 HD
ENDBRANCH  15  20
ENDBRANCH  11  12
BRANCH  10  22
ATOM     22  O   UNL     1      10.509  -2.364  22.768  0.00  0.00    -0.506 OA
ATOM     23  H   UNL     1      11.246  -1.872  22.375  0.00  0.00    +0.292 HD
ENDBRANCH  10  22
BRANCH   7  24
ATOM     24  O   UNL     1       9.834   1.897  24.739  0.00  0.00    -0.461 OA
BRANCH  24  25
ATOM     25  C   UNL     1       9.563   2.640  23.534  0.00  0.00    +0.339 C 
ATOM     26  O   UNL     1      10.738   3.278  23.005  0.00  0.00    -0.331 OA
ATOM     27  C   UNL     1      11.282   4.315  23.848  0.00  0.00    +0.179 C 
ATOM     28  C   UNL     1      10.228   5.416  24.046  0.00  0.00    +0.177 C 
ATOM     29  C   UNL     1       8.958   4.809  24.658  0.00  0.00    +0.180 C 
ATOM     30  C   UNL     1       8.443   3.674  23.766  0.00  0.00    +0.214 C 
BRANCH  29  31
ATOM     31  O   UNL     1       7.952   5.820  24.792  0.00  0.00    -0.386 OA
ATOM     32  H   UNL     1       8.244   6.405  25.521  0.00  0.00    +0.210 HD
ENDBRANCH  29  31
BRANCH  30  33
ATOM     33  O   UNL     1       7.262   3.054  24.285  0.00  0.00    -0.383 OA
ATOM     34  H   UNL     1       6.766   2.677  23.538  0.00  0.00    +0.210 HD
ENDBRANCH  30  33
BRANCH  28  35
ATOM     35  O   UNL     1       9.878   6.024  22.787  0.00  0.00    -0.386 OA
ATOM     36  H   UNL     1      10.566   5.791  22.132  0.00  0.00    +0.210 HD
ENDBRANCH  28  35
BRANCH  27  37
ATOM     37  C   UNL     1      12.535   4.881  23.156  0.00  0.00    +0.190 C 
BRANCH  37  38
ATOM     38  O   UNL     1      13.187   5.855  23.971  0.00  0.00    -0.392 OA
ATOM     39  H   UNL     1      12.869   6.734  23.703  0.00  0.00    +0.210 HD
ENDBRANCH  37  38
ENDBRANCH  27  37
ENDBRANCH  24  25
ENDBRANCH   7  24
BRANCH   1  40
ATOM     40  O   UNL     1       6.861  -5.326  25.088  0.00  0.00    -0.453 OA
BRANCH  40  43
ATOM     41  C   UNL     1       3.783  -4.542  23.379  0.00  0.00    +0.198 C 
ATOM     42  O   UNL     1       4.845  -4.447  24.325  0.00  0.00    -0.337 OA
ATOM     43  C   UNL     1       5.738  -5.565  24.242  0.00  0.00    +0.339 C 
ATOM     44  C   UNL     1       4.950  -6.805  24.716  0.00  0.00    +0.214 C 
ATOM     45  C   UNL     1       3.776  -7.019  23.747  0.00  0.00    +0.180 C 
ATOM     46  C   UNL     1       2.899  -5.752  23.653  0.00  0.00    +0.171 C 
BRANCH  46  47
ATOM     47  O   UNL     1       1.916  -5.842  22.618  0.00  0.00    -0.387 OA
ATOM     48  H   UNL     1       1.948  -6.735  22.236  0.00  0.00    +0.210 HD
ENDBRANCH  46  47
BRANCH  45  49
ATOM     49  O   UNL     1       2.982  -8.129  24.172  0.00  0.00    -0.386 OA
ATOM     50  H   UNL     1       2.117  -8.014  23.728  0.00  0.00    +0.210 HD
ENDBRANCH  45  49
BRANCH  44  51
ATOM     51  O   UNL     1       4.397  -6.634  26.036  0.00  0.00    -0.383 OA
ATOM     52  H   UNL     1       4.647  -5.735  26.331  0.00  0.00    +0.210 HD
ENDBRANCH  44  51
ENDBRANCH  40  43
ENDBRANCH   1  40
TORSDOF 16
ENDMDL
MODEL 4
REMARK VINA RESULT:      -7.6      2.255     10.429
REMARK  Name = 
REMARK  16 active torsions:
REMARK  status: ('A' for Active; 'I' for Inactive)
REMARK    1  A    between atoms: C_2  and  O_42
REMARK    2  A    between atoms: C_3  and  O_41
REMARK    3  A    between atoms: C_4  and  O_40
REMARK    4  A    between atoms: C_5  and  O_7
REMARK    5  A    between atoms: O_7  and  C_8
REMARK    6  A    between atoms: C_9  and  C_32
REMARK    7  A    between atoms: C_13  and  O_20
REMARK    8  A    between atoms: C_15  and  O_19
REMARK    9  A    between atoms: O_20  and  C_21
REMARK   10  A    between atoms: C_22  and  O_31
REMARK   11  A    between atoms: C_23  and  O_30
REMARK   12  A    between atoms: C_24  and  O_29
REMARK   13  A    between atoms: C_25  and  C_27
REMARK   14  A    between atoms: C_27  and  O_28
REMARK   15  A    between atoms: C_34  and  O_39
REMARK   16  A    between atoms: C_35  and  O_38
REMARK                            x       y       z     vdW  Elec       q    Type
REMARK                         _______ _______ _______ _____ _____    ______ ____
ROOT
ATOM      1  C   UNL     1       8.287   2.394  22.825  0.00  0.00    +0.214 A 
ATOM      2  C   UNL     1       9.017   1.179  22.306  0.00  0.00    +0.238 A 
ATOM      3  O   UNL     1      10.091   1.316  21.723  0.00  0.00    -0.283 OA
ATOM      4  C   UNL     1       8.395  -0.145  22.529  0.00  0.00    +0.109 A 
ATOM      5  C   UNL     1       7.123  -0.159  23.076  0.00  0.00    +0.147 A 
ATOM      6  C   UNL     1       6.470  -1.360  23.361  0.00  0.00    +0.093 A 
ATOM      7  C   UNL     1       7.063  -2.584  23.061  0.00  0.00    +0.131 A 
ATOM      8  C   UNL     1       8.338  -2.586  22.487  0.00  0.00    +0.092 A 
ATOM      9  O   UNL     1       6.411   0.968  23.362  0.00  0.00    -0.451 OA
ATOM     10  C   UNL     1       9.004  -1.373  22.234  0.00  0.00    +0.135 A 
ATOM     11  C   UNL     1       7.011   2.208  23.243  0.00  0.00    +0.181 A 
ENDROOT
BRANCH  11  12
ATOM     12  C   UNL     1       6.035   3.265  23.594  0.00  0.00    +0.025 A 
ATOM     13  C   UNL     1       5.574   3.417  24.913  0.00  0.00    +0.015 A 
ATOM     14  C   UNL     1       4.601   4.369  25.228  0.00  0.00    +0.050 A 
ATOM     15  C   UNL     1       4.145   5.221  24.238  0.00  0.00    +0.158 A 
ATOM     16  C   UNL     1       4.656   5.148  22.946  0.00  0.00    +0.159 A 
ATOM     17  C   UNL     1       5.593   4.175  22.613  0.00  0.00    +0.060 A 
BRANCH  16  18
ATOM     18  O   UNL     1       4.195   6.053  22.031  0.00  0.00    -0.503 OA
ATOM     19  H   UNL     1       4.914   6.255  21.408  0.00  0.00    +0.292 HD
ENDBRANCH  16  18
BRANCH  15  20
ATOM     20  O   UNL     1       3.183   6.137  24.546  0.00  0.00    -0.503 OA
ATOM     21  H   UNL     1       2.971   5.973  25.486  0.00  0.00    +0.292 HD
ENDBRANCH  15  20
ENDBRANCH  11  12
BRANCH  10  22
ATOM     22  O   UNL     1      10.269  -1.414  21.717  0.00  0.00    -0.506 OA
ATOM     23  H   UNL     1      10.862  -0.810  22.192  0.00  0.00    +0.292 HD
ENDBRANCH  10  22
BRANCH   7  24
ATOM     24  O   UNL     1       6.497  -3.812  23.305  0.00  0.00    -0.461 OA
BRANCH  24  25
ATOM     25  C   UNL     1       5.418  -3.838  24.261  0.00  0.00    +0.339 C 
ATOM     26  O   UNL     1       5.887  -3.884  25.619  0.00  0.00    -0.331 OA
ATOM     27  C   UNL     1       6.587  -5.098  25.966  0.00  0.00    +0.179 C 
ATOM     28  C   UNL     1       5.647  -6.299  25.777  0.00  0.00    +0.177 C 
ATOM     29  C   UNL     1       5.146  -6.339  24.327  0.00  0.00    +0.180 C 
ATOM     30  C   UNL     1       4.461  -5.013  23.977  0.00  0.00    +0.214 C 
BRANCH  29  31
ATOM     31  O   UNL     1       4.225  -7.422  24.159  0.00  0.00    -0.386 OA
ATOM     32  H   UNL     1       3.903  -7.370  23.236  0.00  0.00    +0.210 HD
ENDBRANCH  29  31
BRANCH  30  33
ATOM     33  O   UNL     1       3.978  -4.976  22.631  0.00  0.00    -0.383 OA
ATOM     34  H   UNL     1       3.226  -5.590  22.563  0.00  0.00    +0.210 HD
ENDBRANCH  30  33
BRANCH  28  35
ATOM     35  O   UNL     1       4.503  -6.198  26.648  0.00  0.00    -0.386 OA
ATOM     36  H   UNL     1       3.740  -5.893  26.118  0.00  0.00    +0.210 HD
ENDBRANCH  28  35
BRANCH  27  37
ATOM     37  C   UNL     1       7.036  -4.985  27.434  0.00  0.00    +0.190 C 
BRANCH  37  38
ATOM     38  O   UNL     1       7.376  -6.262  27.975  0.00  0.00    -0.392 OA
ATOM     39  H   UNL     1       6.837  -6.404  28.772  0.00  0.00    +0.210 HD
ENDBRANCH  37  38
ENDBRANCH  27  37
ENDBRANCH  24  25
ENDBRANCH   7  24
BRANCH   1  40
ATOM     40  O   UNL     1       9.017   3.569  22.747  0.00  0.00    -0.453 OA
BRANCH  40  43
ATOM     41  C   UNL     1       8.810   5.663  25.676  0.00  0.00    +0.198 C 
ATOM     42  O   UNL     1       8.481   5.116  24.402  0.00  0.00    -0.337 OA
ATOM     43  C   UNL     1       9.484   4.204  23.935  0.00  0.00    +0.339 C 
ATOM     44  C   UNL     1      10.751   5.038  23.648  0.00  0.00    +0.214 C 
ATOM     45  C   UNL     1      11.213   5.668  24.972  0.00  0.00    +0.180 C 
ATOM     46  C   UNL     1      10.081   6.500  25.614  0.00  0.00    +0.171 C 
BRANCH  46  47
ATOM     47  O   UNL     1      10.405   6.937  26.936  0.00  0.00    -0.387 OA
ATOM     48  H   UNL     1      10.489   6.157  27.510  0.00  0.00    +0.210 HD
ENDBRANCH  46  47
BRANCH  45  49
ATOM     49  O   UNL     1      12.358   6.496  24.751  0.00  0.00    -0.386 OA
ATOM     50  H   UNL     1      12.006   7.334  24.388  0.00  0.00    +0.210 HD
ENDBRANCH  45  49
BRANCH  44  51
ATOM     51  O   UNL     1      10.504   6.112  22.720  0.00  0.00    -0.383 OA
ATOM     52  H   UNL     1       9.589   5.994  22.390  0.00  0.00    +0.210 HD
ENDBRANCH  44  51
ENDBRANCH  40  43
ENDBRANCH   1  40
TORSDOF 16
ENDMDL
MODEL 5
REMARK VINA RESULT:      -7.5      1.797     10.525
REMARK  Name = 
REMARK  16 active torsions:
REMARK  status: ('A' for Active; 'I' for Inactive)
REMARK    1  A    between atoms: C_2  and  O_42
REMARK    2  A    between atoms: C_3  and  O_41
REMARK    3  A    between atoms: C_4  and  O_40
REMARK    4  A    between atoms: C_5  and  O_7
REMARK    5  A    between atoms: O_7  and  C_8
REMARK    6  A    between atoms: C_9  and  C_32
REMARK    7  A    between atoms: C_13  and  O_20
REMARK    8  A    between atoms: C_15  and  O_19
REMARK    9  A    between atoms: O_20  and  C_21
REMARK   10  A    between atoms: C_22  and  O_31
REMARK   11  A    between atoms: C_23  and  O_30
REMARK   12  A    between atoms: C_24  and  O_29
REMARK   13  A    between atoms: C_25  and  C_27
REMARK   14  A    between atoms: C_27  and  O_28
REMARK   15  A    between atoms: C_34  and  O_39
REMARK   16  A    between atoms: C_35  and  O_38
REMARK                            x       y       z     vdW  Elec       q    Type
REMARK                         _______ _______ _______ _____ _____    ______ ____
ROOT
ATOM      1  C   UNL     1       8.991   2.170  23.221  0.00  0.00    +0.214 A 
ATOM      2  C   UNL     1       9.346   0.868  22.546  0.00  0.00    +0.238 A 
ATOM      3  O   UNL     1      10.055   0.876  21.542  0.00  0.00    -0.283 OA
ATOM      4  C   UNL     1       8.814  -0.380  23.136  0.00  0.00    +0.109 A 
ATOM      5  C   UNL     1       7.919  -0.250  24.184  0.00  0.00    +0.147 A 
ATOM      6  C   UNL     1       7.393  -1.371  24.832  0.00  0.00    +0.093 A 
ATOM      7  C   UNL     1       7.722  -2.657  24.413  0.00  0.00    +0.131 A 
ATOM      8  C   UNL     1       8.608  -2.805  23.341  0.00  0.00    +0.092 A 
ATOM      9  O   UNL     1       7.472   0.950  24.652  0.00  0.00    -0.451 OA
ATOM     10  C   UNL     1       9.159  -1.673  22.715  0.00  0.00    +0.135 A 
ATOM     11  C   UNL     1       8.024   2.122  24.172  0.00  0.00    +0.181 A 
ENDROOT
BRANCH  11  12
ATOM     12  C   UNL     1       7.367   3.281  24.819  0.00  0.00    +0.025 A 
ATOM     13  C   UNL     1       6.299   3.949  24.196  0.00  0.00    +0.015 A 
ATOM     14  C   UNL     1       5.727   5.084  24.775  0.00  0.00    +0.050 A 
ATOM     15  C   UNL     1       6.171   5.507  26.015  0.00  0.00    +0.158 A 
ATOM     16  C   UNL     1       7.165   4.805  26.690  0.00  0.00    +0.159 A 
ATOM     17  C   UNL     1       7.771   3.699  26.102  0.00  0.00    +0.060 A 
BRANCH  16  18
ATOM     18  O   UNL     1       7.521   5.251  27.933  0.00  0.00    -0.503 OA
ATOM     19  H   UNL     1       7.249   4.586  28.589  0.00  0.00    +0.292 HD
ENDBRANCH  16  18
BRANCH  15  20
ATOM     20  O   UNL     1       5.622   6.625  26.569  0.00  0.00    -0.503 OA
ATOM     21  H   UNL     1       5.137   6.304  27.354  0.00  0.00    +0.292 HD
ENDBRANCH  15  20
ENDBRANCH  11  12
BRANCH  10  22
ATOM     22  O   UNL     1      10.059  -1.856  21.702  0.00  0.00    -0.506 OA
ATOM     23  H   UNL     1       9.625  -1.808  20.835  0.00  0.00    +0.292 HD
ENDBRANCH  10  22
BRANCH   7  24
ATOM     24  O   UNL     1       7.256  -3.814  24.989  0.00  0.00    -0.461 OA
BRANCH  24  25
ATOM     25  C   UNL     1       5.873  -3.812  25.395  0.00  0.00    +0.339 C 
ATOM     26  O   UNL     1       5.686  -4.345  26.717  0.00  0.00    -0.331 OA
ATOM     27  C   UNL     1       6.006  -5.746  26.845  0.00  0.00    +0.179 C 
ATOM     28  C   UNL     1       5.103  -6.560  25.905  0.00  0.00    +0.177 C 
ATOM     29  C   UNL     1       5.290  -6.075  24.461  0.00  0.00    +0.180 C 
ATOM     30  C   UNL     1       5.000  -4.572  24.376  0.00  0.00    +0.214 C 
BRANCH  29  31
ATOM     31  O   UNL     1       4.409  -6.791  23.587  0.00  0.00    -0.386 OA
ATOM     32  H   UNL     1       4.395  -6.296  22.743  0.00  0.00    +0.210 HD
ENDBRANCH  29  31
BRANCH  30  33
ATOM     33  O   UNL     1       5.167  -4.048  23.055  0.00  0.00    -0.383 OA
ATOM     34  H   UNL     1       5.154  -4.794  22.431  0.00  0.00    +0.210 HD
ENDBRANCH  30  33
BRANCH  28  35
ATOM     35  O   UNL     1       3.715  -6.401  26.259  0.00  0.00    -0.386 OA
ATOM     36  H   UNL     1       3.335  -7.289  26.415  0.00  0.00    +0.210 HD
ENDBRANCH  28  35
BRANCH  27  37
ATOM     37  C   UNL     1       5.773  -6.156  28.310  0.00  0.00    +0.190 C 
BRANCH  37  38
ATOM     38  O   UNL     1       5.482  -7.549  28.423  0.00  0.00    -0.392 OA
ATOM     39  H   UNL     1       5.991  -8.019  27.741  0.00  0.00    +0.210 HD
ENDBRANCH  37  38
ENDBRANCH  27  37
ENDBRANCH  24  25
ENDBRANCH   7  24
BRANCH   1  40
ATOM     40  O   UNL     1       9.675   3.269  22.728  0.00  0.00    -0.453 OA
BRANCH  40  43
ATOM     41  C   UNL     1      10.715   6.127  24.666  0.00  0.00    +0.198 C 
ATOM     42  O   UNL     1      10.008   5.359  23.695  0.00  0.00    -0.337 OA
ATOM     43  C   UNL     1      10.527   4.028  23.582  0.00  0.00    +0.339 C 
ATOM     44  C   UNL     1      11.942   4.148  22.977  0.00  0.00    +0.214 C 
ATOM     45  C   UNL     1      12.811   4.951  23.959  0.00  0.00    +0.180 C 
ATOM     46  C   UNL     1      12.173   6.323  24.268  0.00  0.00    +0.171 C 
BRANCH  46  47
ATOM     47  O   UNL     1      12.845   7.014  25.324  0.00  0.00    -0.387 OA
ATOM     48  H   UNL     1      12.245   7.077  26.086  0.00  0.00    +0.210 HD
ENDBRANCH  46  47
BRANCH  45  49
ATOM     49  O   UNL     1      14.122   5.135  23.421  0.00  0.00    -0.386 OA
ATOM     50  H   UNL     1      14.015   5.779  22.690  0.00  0.00    +0.210 HD
ENDBRANCH  45  49
BRANCH  44  51
ATOM     51  O   UNL     1      11.945   4.853  21.720  0.00  0.00    -0.383 OA
ATOM     52  H   UNL     1      11.172   4.530  21.214  0.00  0.00    +0.210 HD
ENDBRANCH  44  51
ENDBRANCH  40  43
ENDBRANCH   1  40
TORSDOF 16
ENDMDL
MODEL 6
REMARK VINA RESULT:      -7.0      1.840      2.397
REMARK  Name = 
REMARK  16 active torsions:
REMARK  status: ('A' for Active; 'I' for Inactive)
REMARK    1  A    between atoms: C_2  and  O_42
REMARK    2  A    between atoms: C_3  and  O_41
REMARK    3  A    between atoms: C_4  and  O_40
REMARK    4  A    between atoms: C_5  and  O_7
REMARK    5  A    between atoms: O_7  and  C_8
REMARK    6  A    between atoms: C_9  and  C_32
REMARK    7  A    between atoms: C_13  and  O_20
REMARK    8  A    between atoms: C_15  and  O_19
REMARK    9  A    between atoms: O_20  and  C_21
REMARK   10  A    between atoms: C_22  and  O_31
REMARK   11  A    between atoms: C_23  and  O_30
REMARK   12  A    between atoms: C_24  and  O_29
REMARK   13  A    between atoms: C_25  and  C_27
REMARK   14  A    between atoms: C_27  and  O_28
REMARK   15  A    between atoms: C_34  and  O_39
REMARK   16  A    between atoms: C_35  and  O_38
REMARK                            x       y       z     vdW  Elec       q    Type
REMARK                         _______ _______ _______ _____ _____    ______ ____
ROOT
ATOM      1  C   UNL     1       6.882  -4.054  24.575  0.00  0.00    +0.214 A 
ATOM      2  C   UNL     1       7.628  -3.225  23.560  0.00  0.00    +0.238 A 
ATOM      3  O   UNL     1       8.020  -3.744  22.518  0.00  0.00    -0.283 OA
ATOM      4  C   UNL     1       7.857  -1.796  23.872  0.00  0.00    +0.109 A 
ATOM      5  C   UNL     1       7.488  -1.361  25.134  0.00  0.00    +0.147 A 
ATOM      6  C   UNL     1       7.627  -0.022  25.509  0.00  0.00    +0.093 A 
ATOM      7  C   UNL     1       8.184   0.909  24.636  0.00  0.00    +0.131 A 
ATOM      8  C   UNL     1       8.582   0.480  23.366  0.00  0.00    +0.092 A 
ATOM      9  O   UNL     1       6.985  -2.182  26.100  0.00  0.00    -0.451 OA
ATOM     10  C   UNL     1       8.408  -0.862  22.983  0.00  0.00    +0.135 A 
ATOM     11  C   UNL     1       6.684  -3.496  25.795  0.00  0.00    +0.181 A 
ENDROOT
BRANCH  11  12
ATOM     12  C   UNL     1       6.170  -4.179  27.005  0.00  0.00    +0.025 A 
ATOM     13  C   UNL     1       5.036  -3.698  27.682  0.00  0.00    +0.015 A 
ATOM     14  C   UNL     1       4.595  -4.302  28.861  0.00  0.00    +0.050 A 
ATOM     15  C   UNL     1       5.242  -5.434  29.323  0.00  0.00    +0.158 A 
ATOM     16  C   UNL     1       6.309  -5.980  28.617  0.00  0.00    +0.159 A 
ATOM     17  C   UNL     1       6.782  -5.360  27.465  0.00  0.00    +0.060 A 
BRANCH  16  18
ATOM     18  O   UNL     1       6.869  -7.128  29.105  0.00  0.00    -0.503 OA
ATOM     19  H   UNL     1       7.280  -6.929  29.965  0.00  0.00    +0.292 HD
ENDBRANCH  16  18
BRANCH  15  20
ATOM     20  O   UNL     1       4.818  -6.011  30.484  0.00  0.00    -0.503 OA
ATOM     21  H   UNL     1       4.085  -6.600  30.220  0.00  0.00    +0.292 HD
ENDBRANCH  15  20
ENDBRANCH  11  12
BRANCH  10  22
ATOM     22  O   UNL     1       8.764  -1.236  21.717  0.00  0.00    -0.506 OA
ATOM     23  H   UNL     1       9.725  -1.185  21.594  0.00  0.00    +0.292 HD
ENDBRANCH  10  22
BRANCH   7  24
ATOM     24  O   UNL     1       8.358   2.242  24.917  0.00  0.00    -0.461 OA
BRANCH  24  25
ATOM     25  C   UNL     1       7.157   3.027  25.055  0.00  0.00    +0.339 C 
ATOM     26  O   UNL     1       6.860   3.792  23.874  0.00  0.00    -0.331 OA
ATOM     27  C   UNL     1       7.826   4.822  23.574  0.00  0.00    +0.179 C 
ATOM     28  C   UNL     1       7.890   5.815  24.744  0.00  0.00    +0.177 C 
ATOM     29  C   UNL     1       8.253   5.069  26.035  0.00  0.00    +0.180 C 
ATOM     30  C   UNL     1       7.241   3.947  26.289  0.00  0.00    +0.214 C 
BRANCH  29  31
ATOM     31  O   UNL     1       8.259   5.981  27.140  0.00  0.00    -0.386 OA
ATOM     32  H   UNL     1       7.472   5.763  27.681  0.00  0.00    +0.210 HD
ENDBRANCH  29  31
BRANCH  30  33
ATOM     33  O   UNL     1       7.527   3.200  27.476  0.00  0.00    -0.383 OA
ATOM     34  H   UNL     1       8.165   3.709  28.006  0.00  0.00    +0.210 HD
ENDBRANCH  30  33
BRANCH  28  35
ATOM     35  O   UNL     1       6.617   6.463  24.939  0.00  0.00    -0.386 OA
ATOM     36  H   UNL     1       5.982   5.797  25.270  0.00  0.00    +0.210 HD
ENDBRANCH  28  35
BRANCH  27  37
ATOM     37  C   UNL     1       7.379   5.531  22.283  0.00  0.00    +0.190 C 
BRANCH  37  38
ATOM     38  O   UNL     1       5.974   5.391  22.070  0.00  0.00    -0.392 OA
ATOM     39  H   UNL     1       5.756   4.444  22.113  0.00  0.00    +0.210 HD
ENDBRANCH  37  38
ENDBRANCH  27  37
ENDBRANCH  24  25
ENDBRANCH   7  24
BRANCH   1  40
ATOM     40  O   UNL     1       6.543  -5.322  24.131  0.00  0.00    -0.453 OA
BRANCH  40  43
ATOM     41  C   UNL     1       3.068  -4.650  23.443  0.00  0.00    +0.198 C 
ATOM     42  O   UNL     1       4.347  -4.555  24.064  0.00  0.00    -0.337 OA
ATOM     43  C   UNL     1       5.243  -5.576  23.605  0.00  0.00    +0.339 C 
ATOM     44  C   UNL     1       4.695  -6.922  24.125  0.00  0.00    +0.214 C 
ATOM     45  C   UNL     1       3.308  -7.142  23.498  0.00  0.00    +0.180 C 
ATOM     46  C   UNL     1       2.368  -5.955  23.802  0.00  0.00    +0.171 C 
BRANCH  46  47
ATOM     47  O   UNL     1       1.140  -6.030  23.074  0.00  0.00    -0.387 OA
ATOM     48  H   UNL     1       0.416  -6.192  23.701  0.00  0.00    +0.210 HD
ENDBRANCH  46  47
BRANCH  45  49
ATOM     49  O   UNL     1       2.733  -8.355  23.989  0.00  0.00    -0.386 OA
ATOM     50  H   UNL     1       2.613  -8.216  24.951  0.00  0.00    +0.210 HD
ENDBRANCH  45  49
BRANCH  44  51
ATOM     51  O   UNL     1       4.529  -6.932  25.556  0.00  0.00    -0.383 OA
ATOM     52  H   UNL     1       4.515  -5.997  25.845  0.00  0.00    +0.210 HD
ENDBRANCH  44  51
ENDBRANCH  40  43
ENDBRANCH   1  40
TORSDOF 16
ENDMDL
MODEL 7
REMARK VINA RESULT:      -6.9      2.888     10.058
REMARK  Name = 
REMARK  16 active torsions:
REMARK  status: ('A' for Active; 'I' for Inactive)
REMARK    1  A    between atoms: C_2  and  O_42
REMARK    2  A    between atoms: C_3  and  O_41
REMARK    3  A    between atoms: C_4  and  O_40
REMARK    4  A    between atoms: C_5  and  O_7
REMARK    5  A    between atoms: O_7  and  C_8
REMARK    6  A    between atoms: C_9  and  C_32
REMARK    7  A    between atoms: C_13  and  O_20
REMARK    8  A    between atoms: C_15  and  O_19
REMARK    9  A    between atoms: O_20  and  C_21
REMARK   10  A    between atoms: C_22  and  O_31
REMARK   11  A    between atoms: C_23  and  O_30
REMARK   12  A    between atoms: C_24  and  O_29
REMARK   13  A    between atoms: C_25  and  C_27
REMARK   14  A    between atoms: C_27  and  O_28
REMARK   15  A    between atoms: C_34  and  O_39
REMARK   16  A    between atoms: C_35  and  O_38
REMARK                            x       y       z     vdW  Elec       q    Type
REMARK                         _______ _______ _______ _____ _____    ______ ____
ROOT
ATOM      1  C   UNL     1       7.268   1.334  25.044  0.00  0.00    +0.214 A 
ATOM      2  C   UNL     1       7.883   0.285  24.151  0.00  0.00    +0.238 A 
ATOM      3  O   UNL     1       8.944   0.520  23.576  0.00  0.00    -0.283 OA
ATOM      4  C   UNL     1       7.167  -1.002  24.005  0.00  0.00    +0.109 A 
ATOM      5  C   UNL     1       5.917  -1.096  24.594  0.00  0.00    +0.147 A 
ATOM      6  C   UNL     1       5.181  -2.283  24.546  0.00  0.00    +0.093 A 
ATOM      7  C   UNL     1       5.666  -3.397  23.865  0.00  0.00    +0.131 A 
ATOM      8  C   UNL     1       6.918  -3.310  23.247  0.00  0.00    +0.092 A 
ATOM      9  O   UNL     1       5.305  -0.062  25.239  0.00  0.00    -0.451 OA
ATOM     10  C   UNL     1       7.668  -2.123  23.328  0.00  0.00    +0.135 A 
ATOM     11  C   UNL     1       5.995   1.114  25.458  0.00  0.00    +0.181 A 
ENDROOT
BRANCH  11  12
ATOM     12  C   UNL     1       5.118   2.080  26.159  0.00  0.00    +0.025 A 
ATOM     13  C   UNL     1       5.228   2.285  27.545  0.00  0.00    +0.015 A 
ATOM     14  C   UNL     1       4.353   3.143  28.215  0.00  0.00    +0.050 A 
ATOM     15  C   UNL     1       3.416   3.855  27.487  0.00  0.00    +0.158 A 
ATOM     16  C   UNL     1       3.351   3.736  26.103  0.00  0.00    +0.159 A 
ATOM     17  C   UNL     1       4.190   2.851  25.432  0.00  0.00    +0.060 A 
BRANCH  16  18
ATOM     18  O   UNL     1       2.434   4.505  25.443  0.00  0.00    -0.503 OA
ATOM     19  H   UNL     1       1.769   3.918  25.043  0.00  0.00    +0.292 HD
ENDBRANCH  16  18
BRANCH  15  20
ATOM     20  O   UNL     1       2.552   4.679  28.147  0.00  0.00    -0.503 OA
ATOM     21  H   UNL     1       2.563   4.365  29.073  0.00  0.00    +0.292 HD
ENDBRANCH  15  20
ENDBRANCH  11  12
BRANCH  10  22
ATOM     22  O   UNL     1       8.908  -2.090  22.753  0.00  0.00    -0.506 OA
ATOM     23  H   UNL     1       8.845  -2.078  21.785  0.00  0.00    +0.292 HD
ENDBRANCH  10  22
BRANCH   7  24
ATOM     24  O   UNL     1       5.015  -4.602  23.767  0.00  0.00    -0.461 OA
BRANCH  24  25
ATOM     25  C   UNL     1       3.876  -4.784  24.633  0.00  0.00    +0.339 C 
ATOM     26  O   UNL     1       4.256  -4.997  26.003  0.00  0.00    -0.331 OA
ATOM     27  C   UNL     1       4.977  -6.225  26.237  0.00  0.00    +0.179 C 
ATOM     28  C   UNL     1       4.096  -7.416  25.828  0.00  0.00    +0.177 C 
ATOM     29  C   UNL     1       3.693  -7.278  24.354  0.00  0.00    +0.180 C 
ATOM     30  C   UNL     1       2.984  -5.938  24.133  0.00  0.00    +0.214 C 
BRANCH  29  31
ATOM     31  O   UNL     1       2.826  -8.356  23.983  0.00  0.00    -0.386 OA
ATOM     32  H   UNL     1       2.054  -8.308  24.583  0.00  0.00    +0.210 HD
ENDBRANCH  29  31
BRANCH  30  33
ATOM     33  O   UNL     1       2.590  -5.737  22.772  0.00  0.00    -0.383 OA
ATOM     34  H   UNL     1       2.114  -4.890  22.717  0.00  0.00    +0.210 HD
ENDBRANCH  30  33
BRANCH  28  35
ATOM     35  O   UNL     1       2.895  -7.464  26.623  0.00  0.00    -0.386 OA
ATOM     36  H   UNL     1       2.953  -6.770  27.310  0.00  0.00    +0.210 HD
ENDBRANCH  28  35
BRANCH  27  37
ATOM     37  C   UNL     1       5.324  -6.295  27.735  0.00  0.00    +0.190 C 
BRANCH  37  38
ATOM     38  O   UNL     1       5.321  -7.642  28.209  0.00  0.00    -0.392 OA
ATOM     39  H   UNL     1       4.975  -7.641  29.118  0.00  0.00    +0.210 HD
ENDBRANCH  37  38
ENDBRANCH  27  37
ENDBRANCH  24  25
ENDBRANCH   7  24
BRANCH   1  40
ATOM     40  O   UNL     1       8.085   2.428  25.277  0.00  0.00    -0.453 OA
BRANCH  40  43
ATOM     41  C   UNL     1       6.630   4.611  22.803  0.00  0.00    +0.198 C 
ATOM     42  O   UNL     1       7.047   3.405  23.437  0.00  0.00    -0.337 OA
ATOM     43  C   UNL     1       7.846   3.660  24.600  0.00  0.00    +0.339 C 
ATOM     44  C   UNL     1       9.171   4.279  24.107  0.00  0.00    +0.214 C 
ATOM     45  C   UNL     1       8.842   5.612  23.414  0.00  0.00    +0.180 C 
ATOM     46  C   UNL     1       7.818   5.406  22.277  0.00  0.00    +0.171 C 
BRANCH  46  47
ATOM     47  O   UNL     1       7.339   6.642  21.741  0.00  0.00    -0.387 OA
ATOM     48  H   UNL     1       6.485   6.851  22.156  0.00  0.00    +0.210 HD
ENDBRANCH  46  47
BRANCH  45  49
ATOM     49  O   UNL     1      10.034   6.204  22.893  0.00  0.00    -0.386 OA
ATOM     50  H   UNL     1      10.633   6.303  23.662  0.00  0.00    +0.210 HD
ENDBRANCH  45  49
BRANCH  44  51
ATOM     51  O   UNL     1       9.844   3.445  23.144  0.00  0.00    -0.383 OA
ATOM     52  H   UNL     1      10.356   2.784  23.654  0.00  0.00    +0.210 HD
ENDBRANCH  44  51
ENDBRANCH  40  43
ENDBRANCH   1  40
TORSDOF 16
ENDMDL
MODEL 8
REMARK VINA RESULT:      -6.8      1.347      2.434
REMARK  Name = 
REMARK  16 active torsions:
REMARK  status: ('A' for Active; 'I' for Inactive)
REMARK    1  A    between atoms: C_2  and  O_42
REMARK    2  A    between atoms: C_3  and  O_41
REMARK    3  A    between atoms: C_4  and  O_40
REMARK    4  A    between atoms: C_5  and  O_7
REMARK    5  A    between atoms: O_7  and  C_8
REMARK    6  A    between atoms: C_9  and  C_32
REMARK    7  A    between atoms: C_13  and  O_20
REMARK    8  A    between atoms: C_15  and  O_19
REMARK    9  A    between atoms: O_20  and  C_21
REMARK   10  A    between atoms: C_22  and  O_31
REMARK   11  A    between atoms: C_23  and  O_30
REMARK   12  A    between atoms: C_24  and  O_29
REMARK   13  A    between atoms: C_25  and  C_27
REMARK   14  A    between atoms: C_27  and  O_28
REMARK   15  A    between atoms: C_34  and  O_39
REMARK   16  A    between atoms: C_35  and  O_38
REMARK                            x       y       z     vdW  Elec       q    Type
REMARK                         _______ _______ _______ _____ _____    ______ ____
ROOT
ATOM      1  C   UNL     1       6.669  -4.183  24.665  0.00  0.00    +0.214 A 
ATOM      2  C   UNL     1       7.571  -3.619  23.595  0.00  0.00    +0.238 A 
ATOM      3  O   UNL     1       8.121  -4.377  22.799  0.00  0.00    -0.283 OA
ATOM      4  C   UNL     1       7.755  -2.151  23.552  0.00  0.00    +0.109 A 
ATOM      5  C   UNL     1       7.193  -1.416  24.583  0.00  0.00    +0.147 A 
ATOM      6  C   UNL     1       7.278  -0.022  24.610  0.00  0.00    +0.093 A 
ATOM      7  C   UNL     1       7.971   0.670  23.619  0.00  0.00    +0.131 A 
ATOM      8  C   UNL     1       8.563  -0.060  22.583  0.00  0.00    +0.092 A 
ATOM      9  O   UNL     1       6.540  -1.976  25.641  0.00  0.00    -0.451 OA
ATOM     10  C   UNL     1       8.444  -1.461  22.545  0.00  0.00    +0.135 A 
ATOM     11  C   UNL     1       6.284  -3.334  25.650  0.00  0.00    +0.181 A 
ENDROOT
BRANCH  11  12
ATOM     12  C   UNL     1       5.581  -3.697  26.902  0.00  0.00    +0.025 A 
ATOM     13  C   UNL     1       4.288  -3.219  27.172  0.00  0.00    +0.015 A 
ATOM     14  C   UNL     1       3.655  -3.505  28.383  0.00  0.00    +0.050 A 
ATOM     15  C   UNL     1       4.286  -4.333  29.295  0.00  0.00    +0.158 A 
ATOM     16  C   UNL     1       5.527  -4.891  29.008  0.00  0.00    +0.159 A 
ATOM     17  C   UNL     1       6.184  -4.576  27.823  0.00  0.00    +0.060 A 
BRANCH  16  18
ATOM     18  O   UNL     1       6.070  -5.738  29.934  0.00  0.00    -0.503 OA
ATOM     19  H   UNL     1       6.590  -6.414  29.466  0.00  0.00    +0.292 HD
ENDBRANCH  16  18
BRANCH  15  20
ATOM     20  O   UNL     1       3.673  -4.596  30.485  0.00  0.00    -0.503 OA
ATOM     21  H   UNL     1       3.073  -5.345  30.298  0.00  0.00    +0.292 HD
ENDBRANCH  15  20
ENDBRANCH  11  12
BRANCH  10  22
ATOM     22  O   UNL     1       8.994  -2.137  21.492  0.00  0.00    -0.506 OA
ATOM     23  H   UNL     1       9.653  -1.594  21.031  0.00  0.00    +0.292 HD
ENDBRANCH  10  22
BRANCH   7  24
ATOM     24  O   UNL     1       8.105   2.036  23.563  0.00  0.00    -0.461 OA
BRANCH  24  25
ATOM     25  C   UNL     1       9.047   2.622  24.485  0.00  0.00    +0.339 C 
ATOM     26  O   UNL     1       8.413   3.125  25.673  0.00  0.00    -0.331 OA
ATOM     27  C   UNL     1       7.524   4.239  25.447  0.00  0.00    +0.179 C 
ATOM     28  C   UNL     1       8.316   5.405  24.835  0.00  0.00    +0.177 C 
ATOM     29  C   UNL     1       8.982   4.949  23.530  0.00  0.00    +0.180 C 
ATOM     30  C   UNL     1       9.871   3.730  23.799  0.00  0.00    +0.214 C 
BRANCH  29  31
ATOM     31  O   UNL     1       9.768   6.015  22.984  0.00  0.00    -0.386 OA
ATOM     32  H   UNL     1      10.615   6.012  23.476  0.00  0.00    +0.210 HD
ENDBRANCH  29  31
BRANCH  30  33
ATOM     33  O   UNL     1      10.516   3.242  22.618  0.00  0.00    -0.383 OA
ATOM     34  H   UNL     1      10.846   2.346  22.803  0.00  0.00    +0.210 HD
ENDBRANCH  30  33
BRANCH  28  35
ATOM     35  O   UNL     1       9.348   5.854  25.736  0.00  0.00    -0.386 OA
ATOM     36  H   UNL     1      10.200   5.846  25.255  0.00  0.00    +0.210 HD
ENDBRANCH  28  35
BRANCH  27  37
ATOM     37  C   UNL     1       6.917   4.646  26.801  0.00  0.00    +0.190 C 
BRANCH  37  38
ATOM     38  O   UNL     1       7.210   3.684  27.815  0.00  0.00    -0.392 OA
ATOM     39  H   UNL     1       6.373   3.272  28.090  0.00  0.00    +0.210 HD
ENDBRANCH  37  38
ENDBRANCH  27  37
ENDBRANCH  24  25
ENDBRANCH   7  24
BRANCH   1  40
ATOM     40  O   UNL     1       6.399  -5.534  24.523  0.00  0.00    -0.453 OA
BRANCH  40  43
ATOM     41  C   UNL     1       3.003  -5.191  23.360  0.00  0.00    +0.198 C 
ATOM     42  O   UNL     1       4.214  -4.889  24.048  0.00  0.00    -0.337 OA
ATOM     43  C   UNL     1       5.159  -5.964  23.966  0.00  0.00    +0.339 C 
ATOM     44  C   UNL     1       4.573  -7.139  24.778  0.00  0.00    +0.214 C 
ATOM     45  C   UNL     1       3.257  -7.567  24.108  0.00  0.00    +0.180 C 
ATOM     46  C   UNL     1       2.282  -6.375  23.992  0.00  0.00    +0.171 C 
BRANCH  46  47
ATOM     47  O   UNL     1       1.132  -6.684  23.201  0.00  0.00    -0.387 OA
ATOM     48  H   UNL     1       0.406  -6.092  23.461  0.00  0.00    +0.210 HD
ENDBRANCH  46  47
BRANCH  45  49
ATOM     49  O   UNL     1       2.645  -8.623  24.853  0.00  0.00    -0.386 OA
ATOM     50  H   UNL     1       3.364  -9.265  25.031  0.00  0.00    +0.210 HD
ENDBRANCH  45  49
BRANCH  44  51
ATOM     51  O   UNL     1       4.268  -6.771  26.137  0.00  0.00    -0.383 OA
ATOM     52  H   UNL     1       4.217  -5.793  26.160  0.00  0.00    +0.210 HD
ENDBRANCH  44  51
ENDBRANCH  40  43
ENDBRANCH   1  40
TORSDOF 16
ENDMDL
MODEL 9
REMARK VINA RESULT:      -6.8      2.649      4.715
REMARK  Name = 
REMARK  16 active torsions:
REMARK  status: ('A' for Active; 'I' for Inactive)
REMARK    1  A    between atoms: C_2  and  O_42
REMARK    2  A    between atoms: C_3  and  O_41
REMARK    3  A    between atoms: C_4  and  O_40
REMARK    4  A    between atoms: C_5  and  O_7
REMARK    5  A    between atoms: O_7  and  C_8
REMARK    6  A    between atoms: C_9  and  C_32
REMARK    7  A    between atoms: C_13  and  O_20
REMARK    8  A    between atoms: C_15  and  O_19
REMARK    9  A    between atoms: O_20  and  C_21
REMARK   10  A    between atoms: C_22  and  O_31
REMARK   11  A    between atoms: C_23  and  O_30
REMARK   12  A    between atoms: C_24  and  O_29
REMARK   13  A    between atoms: C_25  and  C_27
REMARK   14  A    between atoms: C_27  and  O_28
REMARK   15  A    between atoms: C_34  and  O_39
REMARK   16  A    between atoms: C_35  and  O_38
REMARK                            x       y       z     vdW  Elec       q    Type
REMARK                         _______ _______ _______ _____ _____    ______ ____
ROOT
ATOM      1  C   UNL     1       5.290  -1.950  27.175  0.00  0.00    +0.214 A 
ATOM      2  C   UNL     1       4.390  -0.740  27.242  0.00  0.00    +0.238 A 
ATOM      3  O   UNL     1       3.341  -0.796  27.880  0.00  0.00    -0.283 OA
ATOM      4  C   UNL     1       4.821   0.479  26.524  0.00  0.00    +0.109 A 
ATOM      5  C   UNL     1       5.952   0.376  25.731  0.00  0.00    +0.147 A 
ATOM      6  C   UNL     1       6.460   1.483  25.046  0.00  0.00    +0.093 A 
ATOM      7  C   UNL     1       5.817   2.717  25.106  0.00  0.00    +0.131 A 
ATOM      8  C   UNL     1       4.661   2.831  25.884  0.00  0.00    +0.092 A 
ATOM      9  O   UNL     1       6.640  -0.786  25.543  0.00  0.00    -0.451 OA
ATOM     10  C   UNL     1       4.174   1.721  26.598  0.00  0.00    +0.135 A 
ATOM     11  C   UNL     1       6.303  -1.909  26.274  0.00  0.00    +0.181 A 
ENDROOT
BRANCH  11  12
ATOM     12  C   UNL     1       7.179  -3.037  25.881  0.00  0.00    +0.025 A 
ATOM     13  C   UNL     1       8.165  -3.526  26.754  0.00  0.00    +0.015 A 
ATOM     14  C   UNL     1       9.036  -4.542  26.356  0.00  0.00    +0.050 A 
ATOM     15  C   UNL     1       8.873  -5.122  25.111  0.00  0.00    +0.158 A 
ATOM     16  C   UNL     1       7.845  -4.714  24.267  0.00  0.00    +0.159 A 
ATOM     17  C   UNL     1       7.000  -3.673  24.638  0.00  0.00    +0.060 A 
BRANCH  16  18
ATOM     18  O   UNL     1       7.713  -5.364  23.071  0.00  0.00    -0.503 OA
ATOM     19  H   UNL     1       8.313  -6.129  23.067  0.00  0.00    +0.292 HD
ENDBRANCH  16  18
BRANCH  15  20
ATOM     20  O   UNL     1       9.737  -6.102  24.718  0.00  0.00    -0.503 OA
ATOM     21  H   UNL     1      10.400  -5.645  24.165  0.00  0.00    +0.292 HD
ENDBRANCH  15  20
ENDBRANCH  11  12
BRANCH  10  22
ATOM     22  O   UNL     1       3.070   1.882  27.387  0.00  0.00    -0.506 OA
ATOM     23  H   UNL     1       3.147   1.369  28.207  0.00  0.00    +0.292 HD
ENDBRANCH  10  22
BRANCH   7  24
ATOM     24  O   UNL     1       6.244   3.856  24.468  0.00  0.00    -0.461 OA
BRANCH  24  25
ATOM     25  C   UNL     1       7.565   3.809  23.893  0.00  0.00    +0.339 C 
ATOM     26  O   UNL     1       8.542   4.486  24.702  0.00  0.00    -0.331 OA
ATOM     27  C   UNL     1       8.341   5.912  24.808  0.00  0.00    +0.179 C 
ATOM     28  C   UNL     1       8.410   6.539  23.407  0.00  0.00    +0.177 C 
ATOM     29  C   UNL     1       7.353   5.894  22.500  0.00  0.00    +0.180 C 
ATOM     30  C   UNL     1       7.562   4.376  22.459  0.00  0.00    +0.214 C 
BRANCH  29  31
ATOM     31  O   UNL     1       7.450   6.435  21.177  0.00  0.00    -0.386 OA
ATOM     32  H   UNL     1       6.997   5.800  20.585  0.00  0.00    +0.210 HD
ENDBRANCH  29  31
BRANCH  30  33
ATOM     33  O   UNL     1       6.600   3.706  21.638  0.00  0.00    -0.383 OA
ATOM     34  H   UNL     1       6.797   3.918  20.709  0.00  0.00    +0.210 HD
ENDBRANCH  30  33
BRANCH  28  35
ATOM     35  O   UNL     1       9.705   6.330  22.812  0.00  0.00    -0.386 OA
ATOM     36  H   UNL     1      10.102   7.205  22.627  0.00  0.00    +0.210 HD
ENDBRANCH  28  35
BRANCH  27  37
ATOM     37  C   UNL     1       9.448   6.481  25.713  0.00  0.00    +0.190 C 
BRANCH  37  38
ATOM     38  O   UNL     1       9.086   6.405  27.092  0.00  0.00    -0.392 OA
ATOM     39  H   UNL     1       8.952   5.469  27.316  0.00  0.00    +0.210 HD
ENDBRANCH  37  38
ENDBRANCH  27  37
ENDBRANCH  24  25
ENDBRANCH   7  24
BRANCH   1  40
ATOM     40  O   UNL     1       4.916  -2.981  28.020  0.00  0.00    -0.453 OA
BRANCH  40  43
ATOM     41  C   UNL     1       2.511  -5.490  27.057  0.00  0.00    +0.198 C 
ATOM     42  O   UNL     1       3.058  -4.350  27.714  0.00  0.00    -0.337 OA
ATOM     43  C   UNL     1       4.468  -4.223  27.483  0.00  0.00    +0.339 C 
ATOM     44  C   UNL     1       5.148  -5.408  28.203  0.00  0.00    +0.214 C 
ATOM     45  C   UNL     1       4.642  -6.708  27.556  0.00  0.00    +0.180 C 
ATOM     46  C   UNL     1       3.100  -6.785  27.603  0.00  0.00    +0.171 C 
BRANCH  46  47
ATOM     47  O   UNL     1       2.583  -7.878  26.840  0.00  0.00    -0.387 OA
ATOM     48  H   UNL     1       2.298  -7.546  25.972  0.00  0.00    +0.210 HD
ENDBRANCH  46  47
BRANCH  45  49
ATOM     49  O   UNL     1       5.205  -7.841  28.222  0.00  0.00    -0.386 OA
ATOM     50  H   UNL     1       6.148  -7.618  28.363  0.00  0.00    +0.210 HD
ENDBRANCH  45  49
BRANCH  44  51
ATOM     51  O   UNL     1       4.818  -5.464  29.604  0.00  0.00    -0.383 OA
ATOM     52  H   UNL     1       5.596  -5.119  30.090  0.00  0.00    +0.210 HD
ENDBRANCH  44  51
ENDBRANCH  40  43
ENDBRANCH   1  40
TORSDOF 16
ENDMDL
