MODEL 1
REMARK VINA RESULT:      -7.3      0.000      0.000
REMARK  Name = 
REMARK  11 active torsions:
REMARK  status: ('A' for Active; 'I' for Inactive)
REMARK    1  A    between atoms: C_3  and  O_35
REMARK    2  A    between atoms: C_4  and  O_34
REMARK    3  A    between atoms: C_6  and  C_7
REMARK    4  A    between atoms: C_8  and  O_20
REMARK    5  A    between atoms: C_12  and  O_19
REMARK    6  A    between atoms: C_14  and  O_18
REMARK    7  A    between atoms: O_20  and  C_21
REMARK    8  A    between atoms: C_23  and  O_33
REMARK    9  A    between atoms: C_25  and  O_32
REMARK   10  A    between atoms: C_27  and  C_30
REMARK   11  A    between atoms: C_30  and  O_31
REMARK                            x       y       z     vdW  Elec       q    Type
REMARK                         _______ _______ _______ _____ _____    ______ ____
ROOT
ATOM      1  C   UNL     1       8.444  -1.592  24.745  0.00  0.00    +0.181 A 
ATOM      2  O   UNL     1       8.349  -0.361  25.420  0.00  0.00    -0.451 OA
ATOM      3  C   UNL     1       8.447   0.822  24.746  0.00  0.00    +0.147 A 
ATOM      4  C   UNL     1       8.720   0.881  23.398  0.00  0.00    +0.109 A 
ATOM      5  C   UNL     1       8.835   2.117  22.739  0.00  0.00    +0.135 A 
ATOM      6  C   UNL     1       8.671   3.302  23.435  0.00  0.00    +0.091 A 
ATOM      7  C   UNL     1       8.388   3.240  24.795  0.00  0.00    +0.124 A 
ATOM      8  C   UNL     1       8.892  -0.368  22.684  0.00  0.00    +0.238 A 
ATOM      9  O   UNL     1       9.211  -0.251  21.505  0.00  0.00    -0.283 OA
ATOM     10  C   UNL     1       8.276   2.013  25.456  0.00  0.00    +0.092 A 
ATOM     11  C   UNL     1       8.713  -1.678  23.414  0.00  0.00    +0.214 A 
ENDROOT
BRANCH   1  13
ATOM     12  C   UNL     1       9.025  -3.815  25.919  0.00  0.00    +0.015 A 
ATOM     13  C   UNL     1       8.158  -2.726  25.707  0.00  0.00    +0.025 A 
ATOM     14  C   UNL     1       6.924  -2.767  26.402  0.00  0.00    +0.060 A 
ATOM     15  C   UNL     1       6.548  -3.879  27.154  0.00  0.00    +0.159 A 
ATOM     16  C   UNL     1       7.372  -4.987  27.234  0.00  0.00    +0.158 A 
ATOM     17  C   UNL     1       8.631  -4.946  26.658  0.00  0.00    +0.050 A 
BRANCH  15  18
ATOM     18  O   UNL     1       5.336  -3.889  27.786  0.00  0.00    -0.503 OA
ATOM     19  H   UNL     1       4.711  -4.242  27.120  0.00  0.00    +0.292 HD
ENDBRANCH  15  18
BRANCH  16  20
ATOM     20  O   UNL     1       6.897  -6.104  27.858  0.00  0.00    -0.503 OA
ATOM     21  H   UNL     1       6.221  -5.816  28.498  0.00  0.00    +0.292 HD
ENDBRANCH  16  20
ENDBRANCH   1  13
BRANCH   5  22
ATOM     22  O   UNL     1       9.114   2.228  21.402  0.00  0.00    -0.506 OA
ATOM     23  H   UNL     1       9.949   1.750  21.224  0.00  0.00    +0.292 HD
ENDBRANCH   5  22
BRANCH   7  24
ATOM     24  O   UNL     1       8.218   4.380  25.519  0.00  0.00    -0.507 OA
ATOM     25  H   UNL     1       8.814   4.355  26.293  0.00  0.00    +0.292 HD
ENDBRANCH   7  24
BRANCH  11  26
ATOM     26  O   UNL     1       8.813  -2.896  22.704  0.00  0.00    -0.453 OA
BRANCH  26  27
ATOM     27  C   UNL     1       7.562  -3.395  22.217  0.00  0.00    +0.340 C 
ATOM     28  O   UNL     1       6.443  -3.120  23.092  0.00  0.00    -0.331 OA
ATOM     29  C   UNL     1       5.330  -3.742  22.396  0.00  0.00    +0.179 C 
ATOM     30  C   UNL     1       5.938  -4.988  21.709  0.00  0.00    +0.180 C 
ATOM     31  C   UNL     1       7.427  -4.918  22.102  0.00  0.00    +0.214 C 
BRANCH  30  32
ATOM     32  O   UNL     1       5.815  -4.819  20.287  0.00  0.00    -0.386 OA
ATOM     33  H   UNL     1       5.449  -5.644  19.923  0.00  0.00    +0.210 HD
ENDBRANCH  30  32
BRANCH  31  34
ATOM     34  O   UNL     1       7.651  -5.608  23.336  0.00  0.00    -0.383 OA
ATOM     35  H   UNL     1       6.886  -5.424  23.914  0.00  0.00    +0.210 HD
ENDBRANCH  31  34
BRANCH  29  36
ATOM     36  C   UNL     1       4.175  -4.016  23.354  0.00  0.00    +0.190 C 
BRANCH  36  37
ATOM     37  O   UNL     1       3.386  -5.118  22.929  0.00  0.00    -0.392 OA
ATOM     38  H   UNL     1       3.021  -4.865  22.062  0.00  0.00    +0.210 HD
ENDBRANCH  36  37
ENDBRANCH  29  36
ENDBRANCH  26  27
ENDBRANCH  11  26
TORSDOF 11
ENDMDL
MODEL 2
REMARK VINA RESULT:      -7.2      2.154      7.567
REMARK  Name = 
REMARK  11 active torsions:
REMARK  status: ('A' for Active; 'I' for Inactive)
REMARK    1  A    between atoms: C_3  and  O_35
REMARK    2  A    between atoms: C_4  and  O_34
REMARK    3  A    between atoms: C_6  and  C_7
REMARK    4  A    between atoms: C_8  and  O_20
REMARK    5  A    between atoms: C_12  and  O_19
REMARK    6  A    between atoms: C_14  and  O_18
REMARK    7  A    between atoms: O_20  and  C_21
REMARK    8  A    between atoms: C_23  and  O_33
REMARK    9  A    between atoms: C_25  and  O_32
REMARK   10  A    between atoms: C_27  and  C_30
REMARK   11  A    between atoms: C_30  and  O_31
REMARK                            x       y       z     vdW  Elec       q    Type
REMARK                         _______ _______ _______ _____ _____    ______ ____
ROOT
ATOM      1  C   UNL     1       8.453  -1.778  24.320  0.00  0.00    +0.181 A 
ATOM      2  O   UNL     1       8.140  -2.613  23.232  0.00  0.00    -0.451 OA
ATOM      3  C   UNL     1       7.336  -3.705  23.389  0.00  0.00    +0.147 A 
ATOM      4  C   UNL     1       6.855  -4.093  24.619  0.00  0.00    +0.109 A 
ATOM      5  C   UNL     1       6.046  -5.234  24.749  0.00  0.00    +0.135 A 
ATOM      6  C   UNL     1       5.713  -5.990  23.637  0.00  0.00    +0.091 A 
ATOM      7  C   UNL     1       6.194  -5.591  22.395  0.00  0.00    +0.124 A 
ATOM      8  C   UNL     1       7.214  -3.294  25.773  0.00  0.00    +0.238 A 
ATOM      9  O   UNL     1       6.823  -3.733  26.850  0.00  0.00    -0.283 OA
ATOM     10  C   UNL     1       7.002  -4.458  22.261  0.00  0.00    +0.092 A 
ATOM     11  C   UNL     1       8.045  -2.046  25.590  0.00  0.00    +0.214 A 
ENDROOT
BRANCH   1  13
ATOM     12  C   UNL     1      10.352  -0.040  24.504  0.00  0.00    +0.015 A 
ATOM     13  C   UNL     1       9.237  -0.576  23.834  0.00  0.00    +0.025 A 
ATOM     14  C   UNL     1       8.811   0.121  22.676  0.00  0.00    +0.060 A 
ATOM     15  C   UNL     1       9.392   1.331  22.300  0.00  0.00    +0.159 A 
ATOM     16  C   UNL     1      10.402   1.894  23.058  0.00  0.00    +0.158 A 
ATOM     17  C   UNL     1      10.919   1.193  24.136  0.00  0.00    +0.050 A 
BRANCH  15  18
ATOM     18  O   UNL     1       8.932   1.986  21.192  0.00  0.00    -0.503 OA
ATOM     19  H   UNL     1       9.488   2.789  21.128  0.00  0.00    +0.292 HD
ENDBRANCH  15  18
BRANCH  16  20
ATOM     20  O   UNL     1      10.837   3.146  22.733  0.00  0.00    -0.503 OA
ATOM     21  H   UNL     1      11.628   3.044  22.174  0.00  0.00    +0.292 HD
ENDBRANCH  16  20
ENDBRANCH   1  13
BRANCH   5  22
ATOM     22  O   UNL     1       5.549  -5.667  25.951  0.00  0.00    -0.506 OA
ATOM     23  H   UNL     1       4.915  -6.392  25.776  0.00  0.00    +0.292 HD
ENDBRANCH   5  22
BRANCH   7  24
ATOM     24  O   UNL     1       5.891  -6.303  21.275  0.00  0.00    -0.507 OA
ATOM     25  H   UNL     1       4.929  -6.467  21.255  0.00  0.00    +0.292 HD
ENDBRANCH   7  24
BRANCH  11  26
ATOM     26  O   UNL     1       8.339  -1.229  26.704  0.00  0.00    -0.453 OA
BRANCH  26  27
ATOM     27  C   UNL     1       7.376  -0.197  26.945  0.00  0.00    +0.340 C 
ATOM     28  O   UNL     1       7.738   1.084  26.377  0.00  0.00    -0.331 OA
ATOM     29  C   UNL     1       6.635   1.939  26.780  0.00  0.00    +0.179 C 
ATOM     30  C   UNL     1       6.209   1.407  28.169  0.00  0.00    +0.180 C 
ATOM     31  C   UNL     1       7.166   0.223  28.405  0.00  0.00    +0.214 C 
BRANCH  30  32
ATOM     32  O   UNL     1       4.862   0.914  28.065  0.00  0.00    -0.386 OA
ATOM     33  H   UNL     1       4.393   1.164  28.881  0.00  0.00    +0.210 HD
ENDBRANCH  30  32
BRANCH  31  34
ATOM     34  O   UNL     1       8.363   0.669  29.051  0.00  0.00    -0.383 OA
ATOM     35  H   UNL     1       8.523   1.588  28.762  0.00  0.00    +0.210 HD
ENDBRANCH  31  34
BRANCH  29  36
ATOM     36  C   UNL     1       7.042   3.408  26.734  0.00  0.00    +0.190 C 
BRANCH  36  37
ATOM     37  O   UNL     1       7.503   3.869  27.997  0.00  0.00    -0.392 OA
ATOM     38  H   UNL     1       6.765   4.378  28.379  0.00  0.00    +0.210 HD
ENDBRANCH  36  37
ENDBRANCH  29  36
ENDBRANCH  26  27
ENDBRANCH  11  26
TORSDOF 11
ENDMDL
MODEL 3
REMARK VINA RESULT:      -7.1      2.248      6.795
REMARK  Name = 
REMARK  11 active torsions:
REMARK  status: ('A' for Active; 'I' for Inactive)
REMARK    1  A    between atoms: C_3  and  O_35
REMARK    2  A    between atoms: C_4  and  O_34
REMARK    3  A    between atoms: C_6  and  C_7
REMARK    4  A    between atoms: C_8  and  O_20
REMARK    5  A    between atoms: C_12  and  O_19
REMARK    6  A    between atoms: C_14  and  O_18
REMARK    7  A    between atoms: O_20  and  C_21
REMARK    8  A    between atoms: C_23  and  O_33
REMARK    9  A    between atoms: C_25  and  O_32
REMARK   10  A    between atoms: C_27  and  C_30
REMARK   11  A    between atoms: C_30  and  O_31
REMARK                            x       y       z     vdW  Elec       q    Type
REMARK                         _______ _______ _______ _____ _____    ______ ____
ROOT
ATOM      1  C   UNL     1       5.840  -2.078  24.718  0.00  0.00    +0.181 A 
ATOM      2  O   UNL     1       5.284  -3.133  25.463  0.00  0.00    -0.451 OA
ATOM      3  C   UNL     1       5.034  -4.346  24.890  0.00  0.00    +0.147 A 
ATOM      4  C   UNL     1       5.234  -4.582  23.548  0.00  0.00    +0.109 A 
ATOM      5  C   UNL     1       4.946  -5.837  22.986  0.00  0.00    +0.135 A 
ATOM      6  C   UNL     1       4.458  -6.865  23.774  0.00  0.00    +0.091 A 
ATOM      7  C   UNL     1       4.264  -6.627  25.130  0.00  0.00    +0.124 A 
ATOM      8  C   UNL     1       5.742  -3.495  22.736  0.00  0.00    +0.238 A 
ATOM      9  O   UNL     1       5.825  -3.739  21.536  0.00  0.00    -0.283 OA
ATOM     10  C   UNL     1       4.546  -5.379  25.694  0.00  0.00    +0.092 A 
ATOM     11  C   UNL     1       6.086  -2.174  23.382  0.00  0.00    +0.214 A 
ENDROOT
BRANCH   1  13
ATOM     12  C   UNL     1       5.465   0.326  25.579  0.00  0.00    +0.015 A 
ATOM     13  C   UNL     1       6.140  -0.908  25.632  0.00  0.00    +0.025 A 
ATOM     14  C   UNL     1       7.205  -0.996  26.562  0.00  0.00    +0.060 A 
ATOM     15  C   UNL     1       7.629   0.114  27.292  0.00  0.00    +0.159 A 
ATOM     16  C   UNL     1       7.023   1.345  27.118  0.00  0.00    +0.158 A 
ATOM     17  C   UNL     1       5.911   1.449  26.298  0.00  0.00    +0.050 A 
BRANCH  15  18
ATOM     18  O   UNL     1       8.679  -0.008  28.158  0.00  0.00    -0.503 OA
ATOM     19  H   UNL     1       9.474  -0.023  27.586  0.00  0.00    +0.292 HD
ENDBRANCH  15  18
BRANCH  16  20
ATOM     20  O   UNL     1       7.566   2.429  27.743  0.00  0.00    -0.503 OA
ATOM     21  H   UNL     1       8.315   2.112  28.280  0.00  0.00    +0.292 HD
ENDBRANCH  16  20
ENDBRANCH   1  13
BRANCH   5  22
ATOM     22  O   UNL     1       5.121  -6.118  21.656  0.00  0.00    -0.506 OA
ATOM     23  H   UNL     1       6.081  -6.200  21.485  0.00  0.00    +0.292 HD
ENDBRANCH   5  22
BRANCH   7  24
ATOM     24  O   UNL     1       3.788  -7.609  25.944  0.00  0.00    -0.507 OA
ATOM     25  H   UNL     1       4.147  -7.478  26.843  0.00  0.00    +0.292 HD
ENDBRANCH   7  24
BRANCH  11  26
ATOM     26  O   UNL     1       6.645  -1.137  22.604  0.00  0.00    -0.453 OA
BRANCH  26  27
ATOM     27  C   UNL     1       7.838  -0.568  23.156  0.00  0.00    +0.340 C 
ATOM     28  O   UNL     1       8.034   0.825  22.813  0.00  0.00    -0.331 OA
ATOM     29  C   UNL     1       9.297   1.140  23.457  0.00  0.00    +0.179 C 
ATOM     30  C   UNL     1      10.124  -0.164  23.368  0.00  0.00    +0.180 C 
ATOM     31  C   UNL     1       9.170  -1.142  22.656  0.00  0.00    +0.214 C 
BRANCH  30  32
ATOM     32  O   UNL     1      10.368  -0.632  24.706  0.00  0.00    -0.386 OA
ATOM     33  H   UNL     1      10.381   0.146  25.292  0.00  0.00    +0.210 HD
ENDBRANCH  30  32
BRANCH  31  34
ATOM     34  O   UNL     1       9.334  -1.055  21.236  0.00  0.00    -0.383 OA
ATOM     35  H   UNL     1      10.026  -1.696  20.985  0.00  0.00    +0.210 HD
ENDBRANCH  31  34
BRANCH  29  36
ATOM     36  C   UNL     1       9.938   2.370  22.823  0.00  0.00    +0.190 C 
BRANCH  36  37
ATOM     37  O   UNL     1      10.129   2.205  21.424  0.00  0.00    -0.392 OA
ATOM     38  H   UNL     1       9.792   3.021  21.012  0.00  0.00    +0.210 HD
ENDBRANCH  36  37
ENDBRANCH  29  36
ENDBRANCH  26  27
ENDBRANCH  11  26
TORSDOF 11
ENDMDL
MODEL 4
REMARK VINA RESULT:      -7.0      2.281      7.240
REMARK  Name = 
REMARK  11 active torsions:
REMARK  status: ('A' for Active; 'I' for Inactive)
REMARK    1  A    between atoms: C_3  and  O_35
REMARK    2  A    between atoms: C_4  and  O_34
REMARK    3  A    between atoms: C_6  and  C_7
REMARK    4  A    between atoms: C_8  and  O_20
REMARK    5  A    between atoms: C_12  and  O_19
REMARK    6  A    between atoms: C_14  and  O_18
REMARK    7  A    between atoms: O_20  and  C_21
REMARK    8  A    between atoms: C_23  and  O_33
REMARK    9  A    between atoms: C_25  and  O_32
REMARK   10  A    between atoms: C_27  and  C_30
REMARK   11  A    between atoms: C_30  and  O_31
REMARK                            x       y       z     vdW  Elec       q    Type
REMARK                         _______ _______ _______ _____ _____    ______ ____
ROOT
ATOM      1  C   UNL     1       8.225  -1.935  24.171  0.00  0.00    +0.181 A 
ATOM      2  O   UNL     1       8.023  -2.724  23.024  0.00  0.00    -0.451 OA
ATOM      3  C   UNL     1       7.212  -3.822  23.057  0.00  0.00    +0.147 A 
ATOM      4  C   UNL     1       6.615  -4.262  24.217  0.00  0.00    +0.109 A 
ATOM      5  C   UNL     1       5.803  -5.408  24.220  0.00  0.00    +0.135 A 
ATOM      6  C   UNL     1       5.583  -6.117  23.051  0.00  0.00    +0.091 A 
ATOM      7  C   UNL     1       6.181  -5.667  21.879  0.00  0.00    +0.124 A 
ATOM      8  C   UNL     1       6.857  -3.511  25.432  0.00  0.00    +0.238 A 
ATOM      9  O   UNL     1       6.365  -3.994  26.447  0.00  0.00    -0.283 OA
ATOM     10  C   UNL     1       6.993  -4.528  21.872  0.00  0.00    +0.092 A 
ATOM     11  C   UNL     1       7.696  -2.256  25.383  0.00  0.00    +0.214 A 
ENDROOT
BRANCH   1  13
ATOM     12  C   UNL     1      10.026  -0.151  24.653  0.00  0.00    +0.015 A 
ATOM     13  C   UNL     1       9.047  -0.714  23.813  0.00  0.00    +0.025 A 
ATOM     14  C   UNL     1       8.795  -0.026  22.600  0.00  0.00    +0.060 A 
ATOM     15  C   UNL     1       9.399   1.198  22.318  0.00  0.00    +0.159 A 
ATOM     16  C   UNL     1      10.261   1.785  23.228  0.00  0.00    +0.158 A 
ATOM     17  C   UNL     1      10.615   1.096  24.377  0.00  0.00    +0.050 A 
BRANCH  15  18
ATOM     18  O   UNL     1       9.107   1.842  21.149  0.00  0.00    -0.503 OA
ATOM     19  H   UNL     1       9.259   2.790  21.342  0.00  0.00    +0.292 HD
ENDBRANCH  15  18
BRANCH  16  20
ATOM     20  O   UNL     1      10.711   3.048  22.973  0.00  0.00    -0.503 OA
ATOM     21  H   UNL     1      10.901   3.103  22.019  0.00  0.00    +0.292 HD
ENDBRANCH  16  20
ENDBRANCH   1  13
BRANCH   5  22
ATOM     22  O   UNL     1       5.194  -5.890  25.350  0.00  0.00    -0.506 OA
ATOM     23  H   UNL     1       5.854  -6.407  25.855  0.00  0.00    +0.292 HD
ENDBRANCH   5  22
BRANCH   7  24
ATOM     24  O   UNL     1       5.992  -6.331  20.707  0.00  0.00    -0.507 OA
ATOM     25  H   UNL     1       6.433  -7.201  20.762  0.00  0.00    +0.292 HD
ENDBRANCH   7  24
BRANCH  11  26
ATOM     26  O   UNL     1       7.877  -1.486  26.553  0.00  0.00    -0.453 OA
BRANCH  26  27
ATOM     27  C   UNL     1       6.733  -0.709  26.927  0.00  0.00    +0.340 C 
ATOM     28  O   UNL     1       6.044  -0.108  25.805  0.00  0.00    -0.331 OA
ATOM     29  C   UNL     1       4.969   0.629  26.445  0.00  0.00    +0.179 C 
ATOM     30  C   UNL     1       5.565   1.115  27.787  0.00  0.00    +0.180 C 
ATOM     31  C   UNL     1       6.998   0.547  27.766  0.00  0.00    +0.214 C 
BRANCH  30  32
ATOM     32  O   UNL     1       4.827   0.497  28.855  0.00  0.00    -0.386 OA
ATOM     33  H   UNL     1       4.232   1.171  29.230  0.00  0.00    +0.210 HD
ENDBRANCH  30  32
BRANCH  31  34
ATOM     34  O   UNL     1       7.894   1.474  27.142  0.00  0.00    -0.383 OA
ATOM     35  H   UNL     1       8.721   0.992  26.951  0.00  0.00    +0.210 HD
ENDBRANCH  31  34
BRANCH  29  36
ATOM     36  C   UNL     1       4.438   1.724  25.525  0.00  0.00    +0.190 C 
BRANCH  36  37
ATOM     37  O   UNL     1       4.860   1.535  24.181  0.00  0.00    -0.392 OA
ATOM     38  H   UNL     1       5.781   1.849  24.145  0.00  0.00    +0.210 HD
ENDBRANCH  36  37
ENDBRANCH  29  36
ENDBRANCH  26  27
ENDBRANCH  11  26
TORSDOF 11
ENDMDL
MODEL 5
REMARK VINA RESULT:      -7.0      2.513      7.412
REMARK  Name = 
REMARK  11 active torsions:
REMARK  status: ('A' for Active; 'I' for Inactive)
REMARK    1  A    between atoms: C_3  and  O_35
REMARK    2  A    between atoms: C_4  and  O_34
REMARK    3  A    between atoms: C_6  and  C_7
REMARK    4  A    between atoms: C_8  and  O_20
REMARK    5  A    between atoms: C_12  and  O_19
REMARK    6  A    between atoms: C_14  and  O_18
REMARK    7  A    between atoms: O_20  and  C_21
REMARK    8  A    between atoms: C_23  and  O_33
REMARK    9  A    between atoms: C_25  and  O_32
REMARK   10  A    between atoms: C_27  and  C_30
REMARK   11  A    between atoms: C_30  and  O_31
REMARK                            x       y       z     vdW  Elec       q    Type
REMARK                         _______ _______ _______ _____ _____    ______ ____
ROOT
ATOM      1  C   UNL     1       7.566  -1.312  24.038  0.00  0.00    +0.181 A 
ATOM      2  O   UNL     1       7.807  -2.528  23.374  0.00  0.00    -0.451 OA
ATOM      3  C   UNL     1       6.839  -3.486  23.283  0.00  0.00    +0.147 A 
ATOM      4  C   UNL     1       5.613  -3.354  23.896  0.00  0.00    +0.109 A 
ATOM      5  C   UNL     1       4.646  -4.368  23.800  0.00  0.00    +0.135 A 
ATOM      6  C   UNL     1       4.907  -5.522  23.081  0.00  0.00    +0.091 A 
ATOM      7  C   UNL     1       6.143  -5.650  22.457  0.00  0.00    +0.124 A 
ATOM      8  C   UNL     1       5.356  -2.141  24.646  0.00  0.00    +0.238 A 
ATOM      9  O   UNL     1       4.279  -2.115  25.235  0.00  0.00    -0.283 OA
ATOM     10  C   UNL     1       7.110  -4.645  22.552  0.00  0.00    +0.092 A 
ATOM     11  C   UNL     1       6.399  -1.051  24.689  0.00  0.00    +0.214 A 
ENDROOT
BRANCH   1  13
ATOM     12  C   UNL     1       9.776  -0.230  24.817  0.00  0.00    +0.015 A 
ATOM     13  C   UNL     1       8.755  -0.389  23.862  0.00  0.00    +0.025 A 
ATOM     14  C   UNL     1       8.842   0.435  22.713  0.00  0.00    +0.060 A 
ATOM     15  C   UNL     1       9.818   1.424  22.598  0.00  0.00    +0.159 A 
ATOM     16  C   UNL     1      10.729   1.637  23.617  0.00  0.00    +0.158 A 
ATOM     17  C   UNL     1      10.744   0.785  24.709  0.00  0.00    +0.050 A 
BRANCH  15  18
ATOM     18  O   UNL     1       9.850   2.217  21.485  0.00  0.00    -0.503 OA
ATOM     19  H   UNL     1       9.868   3.132  21.831  0.00  0.00    +0.292 HD
ENDBRANCH  15  18
BRANCH  16  20
ATOM     20  O   UNL     1      11.568   2.709  23.523  0.00  0.00    -0.503 OA
ATOM     21  H   UNL     1      11.449   3.096  22.637  0.00  0.00    +0.292 HD
ENDBRANCH  16  20
ENDBRANCH   1  13
BRANCH   5  22
ATOM     22  O   UNL     1       3.415  -4.287  24.397  0.00  0.00    -0.506 OA
ATOM     23  H   UNL     1       2.746  -4.617  23.763  0.00  0.00    +0.292 HD
ENDBRANCH   5  22
BRANCH   7  24
ATOM     24  O   UNL     1       6.443  -6.767  21.739  0.00  0.00    -0.507 OA
ATOM     25  H   UNL     1       7.378  -6.722  21.460  0.00  0.00    +0.292 HD
ENDBRANCH   7  24
BRANCH  11  26
ATOM     26  O   UNL     1       6.124   0.159  25.363  0.00  0.00    -0.453 OA
BRANCH  26  27
ATOM     27  C   UNL     1       5.596   1.192  24.523  0.00  0.00    +0.340 C 
ATOM     28  O   UNL     1       6.581   2.168  24.108  0.00  0.00    -0.331 OA
ATOM     29  C   UNL     1       5.798   3.096  23.310  0.00  0.00    +0.179 C 
ATOM     30  C   UNL     1       4.406   3.123  23.984  0.00  0.00    +0.180 C 
ATOM     31  C   UNL     1       4.558   2.130  25.153  0.00  0.00    +0.214 C 
BRANCH  30  32
ATOM     32  O   UNL     1       3.445   2.608  23.047  0.00  0.00    -0.386 OA
ATOM     33  H   UNL     1       2.865   3.344  22.786  0.00  0.00    +0.210 HD
ENDBRANCH  30  32
BRANCH  31  34
ATOM     34  O   UNL     1       5.032   2.804  26.324  0.00  0.00    -0.383 OA
ATOM     35  H   UNL     1       5.397   3.662  26.036  0.00  0.00    +0.210 HD
ENDBRANCH  31  34
BRANCH  29  36
ATOM     36  C   UNL     1       6.503   4.444  23.199  0.00  0.00    +0.190 C 
BRANCH  36  37
ATOM     37  O   UNL     1       6.525   4.920  21.860  0.00  0.00    -0.392 OA
ATOM     38  H   UNL     1       6.931   4.209  21.333  0.00  0.00    +0.210 HD
ENDBRANCH  36  37
ENDBRANCH  29  36
ENDBRANCH  26  27
ENDBRANCH  11  26
TORSDOF 11
ENDMDL
MODEL 6
REMARK VINA RESULT:      -6.9      2.140      7.390
REMARK  Name = 
REMARK  11 active torsions:
REMARK  status: ('A' for Active; 'I' for Inactive)
REMARK    1  A    between atoms: C_3  and  O_35
REMARK    2  A    between atoms: C_4  and  O_34
REMARK    3  A    between atoms: C_6  and  C_7
REMARK    4  A    between atoms: C_8  and  O_20
REMARK    5  A    between atoms: C_12  and  O_19
REMARK    6  A    between atoms: C_14  and  O_18
REMARK    7  A    between atoms: O_20  and  C_21
REMARK    8  A    between atoms: C_23  and  O_33
REMARK    9  A    between atoms: C_25  and  O_32
REMARK   10  A    between atoms: C_27  and  C_30
REMARK   11  A    between atoms: C_30  and  O_31
REMARK                            x       y       z     vdW  Elec       q    Type
REMARK                         _______ _______ _______ _____ _____    ______ ____
ROOT
ATOM      1  C   UNL     1       7.386  -2.985  23.917  0.00  0.00    +0.181 A 
ATOM      2  O   UNL     1       6.432  -3.753  23.225  0.00  0.00    -0.451 OA
ATOM      3  C   UNL     1       5.770  -4.776  23.839  0.00  0.00    +0.147 A 
ATOM      4  C   UNL     1       6.049  -5.163  25.131  0.00  0.00    +0.109 A 
ATOM      5  C   UNL     1       5.363  -6.234  25.727  0.00  0.00    +0.135 A 
ATOM      6  C   UNL     1       4.386  -6.921  25.025  0.00  0.00    +0.091 A 
ATOM      7  C   UNL     1       4.100  -6.523  23.724  0.00  0.00    +0.124 A 
ATOM      8  C   UNL     1       7.075  -4.436  25.851  0.00  0.00    +0.238 A 
ATOM      9  O   UNL     1       7.335  -4.876  26.967  0.00  0.00    -0.283 OA
ATOM     10  C   UNL     1       4.783  -5.460  23.125  0.00  0.00    +0.092 A 
ATOM     11  C   UNL     1       7.759  -3.260  25.197  0.00  0.00    +0.214 A 
ENDROOT
BRANCH   1  13
ATOM     12  C   UNL     1       9.079  -1.826  22.350  0.00  0.00    +0.015 A 
ATOM     13  C   UNL     1       7.853  -1.840  23.042  0.00  0.00    +0.025 A 
ATOM     14  C   UNL     1       7.070  -0.663  22.945  0.00  0.00    +0.060 A 
ATOM     15  C   UNL     1       7.546   0.478  22.301  0.00  0.00    +0.159 A 
ATOM     16  C   UNL     1       8.811   0.496  21.743  0.00  0.00    +0.158 A 
ATOM     17  C   UNL     1       9.566  -0.666  21.723  0.00  0.00    +0.050 A 
BRANCH  15  18
ATOM     18  O   UNL     1       6.769   1.602  22.255  0.00  0.00    -0.503 OA
ATOM     19  H   UNL     1       5.903   1.293  21.921  0.00  0.00    +0.292 HD
ENDBRANCH  15  18
BRANCH  16  20
ATOM     20  O   UNL     1       9.288   1.678  21.254  0.00  0.00    -0.503 OA
ATOM     21  H   UNL     1       9.601   1.513  20.347  0.00  0.00    +0.292 HD
ENDBRANCH  16  20
ENDBRANCH   1  13
BRANCH   5  22
ATOM     22  O   UNL     1       5.610  -6.662  27.005  0.00  0.00    -0.506 OA
ATOM     23  H   UNL     1       5.002  -7.405  27.200  0.00  0.00    +0.292 HD
ENDBRANCH   5  22
BRANCH   7  24
ATOM     24  O   UNL     1       3.148  -7.168  22.997  0.00  0.00    -0.507 OA
ATOM     25  H   UNL     1       2.278  -7.029  23.420  0.00  0.00    +0.292 HD
ENDBRANCH   7  24
BRANCH  11  26
ATOM     26  O   UNL     1       8.710  -2.509  25.922  0.00  0.00    -0.453 OA
BRANCH  26  27
ATOM     27  C   UNL     1       8.144  -1.492  26.756  0.00  0.00    +0.340 C 
ATOM     28  O   UNL     1       6.822  -1.068  26.344  0.00  0.00    -0.331 OA
ATOM     29  C   UNL     1       6.498  -0.037  27.315  0.00  0.00    +0.179 C 
ATOM     30  C   UNL     1       7.848   0.648  27.632  0.00  0.00    +0.180 C 
ATOM     31  C   UNL     1       8.855  -0.133  26.765  0.00  0.00    +0.214 C 
BRANCH  30  32
ATOM     32  O   UNL     1       8.147   0.425  29.021  0.00  0.00    -0.386 OA
ATOM     33  H   UNL     1       8.221  -0.536  29.156  0.00  0.00    +0.210 HD
ENDBRANCH  30  32
BRANCH  31  34
ATOM     34  O   UNL     1       8.967   0.464  25.469  0.00  0.00    -0.383 OA
ATOM     35  H   UNL     1       9.844   0.890  25.421  0.00  0.00    +0.210 HD
ENDBRANCH  31  34
BRANCH  29  36
ATOM     36  C   UNL     1       5.402   0.882  26.785  0.00  0.00    +0.190 C 
BRANCH  36  37
ATOM     37  O   UNL     1       4.918   0.452  25.519  0.00  0.00    -0.392 OA
ATOM     38  H   UNL     1       4.906   1.247  24.956  0.00  0.00    +0.210 HD
ENDBRANCH  36  37
ENDBRANCH  29  36
ENDBRANCH  26  27
ENDBRANCH  11  26
TORSDOF 11
ENDMDL
MODEL 7
REMARK VINA RESULT:      -6.9      2.128      3.431
REMARK  Name = 
REMARK  11 active torsions:
REMARK  status: ('A' for Active; 'I' for Inactive)
REMARK    1  A    between atoms: C_3  and  O_35
REMARK    2  A    between atoms: C_4  and  O_34
REMARK    3  A    between atoms: C_6  and  C_7
REMARK    4  A    between atoms: C_8  and  O_20
REMARK    5  A    between atoms: C_12  and  O_19
REMARK    6  A    between atoms: C_14  and  O_18
REMARK    7  A    between atoms: O_20  and  C_21
REMARK    8  A    between atoms: C_23  and  O_33
REMARK    9  A    between atoms: C_25  and  O_32
REMARK   10  A    between atoms: C_27  and  C_30
REMARK   11  A    between atoms: C_30  and  O_31
REMARK                            x       y       z     vdW  Elec       q    Type
REMARK                         _______ _______ _______ _____ _____    ______ ____
ROOT
ATOM      1  C   UNL     1       7.383  -3.830  25.839  0.00  0.00    +0.181 A 
ATOM      2  O   UNL     1       8.008  -2.610  26.153  0.00  0.00    -0.451 OA
ATOM      3  C   UNL     1       8.626  -1.865  25.191  0.00  0.00    +0.147 A 
ATOM      4  C   UNL     1       8.741  -2.295  23.888  0.00  0.00    +0.109 A 
ATOM      5  C   UNL     1       9.401  -1.512  22.927  0.00  0.00    +0.135 A 
ATOM      6  C   UNL     1       9.947  -0.287  23.271  0.00  0.00    +0.091 A 
ATOM      7  C   UNL     1       9.822   0.149  24.586  0.00  0.00    +0.124 A 
ATOM      8  C   UNL     1       8.168  -3.580  23.544  0.00  0.00    +0.238 A 
ATOM      9  O   UNL     1       8.371  -3.945  22.390  0.00  0.00    -0.283 OA
ATOM     10  C   UNL     1       9.169  -0.628  25.548  0.00  0.00    +0.092 A 
ATOM     11  C   UNL     1       7.423  -4.373  24.591  0.00  0.00    +0.214 A 
ENDROOT
BRANCH   1  13
ATOM     12  C   UNL     1       6.990  -5.577  27.697  0.00  0.00    +0.015 A 
ATOM     13  C   UNL     1       6.663  -4.366  27.059  0.00  0.00    +0.025 A 
ATOM     14  C   UNL     1       5.542  -3.672  27.577  0.00  0.00    +0.060 A 
ATOM     15  C   UNL     1       4.744  -4.220  28.580  0.00  0.00    +0.159 A 
ATOM     16  C   UNL     1       5.023  -5.474  29.094  0.00  0.00    +0.158 A 
ATOM     17  C   UNL     1       6.169  -6.139  28.691  0.00  0.00    +0.050 A 
BRANCH  15  18
ATOM     18  O   UNL     1       3.655  -3.529  29.031  0.00  0.00    -0.503 OA
ATOM     19  H   UNL     1       2.909  -4.158  28.949  0.00  0.00    +0.292 HD
ENDBRANCH  15  18
BRANCH  16  20
ATOM     20  O   UNL     1       4.132  -6.029  29.967  0.00  0.00    -0.503 OA
ATOM     21  H   UNL     1       3.294  -5.541  29.878  0.00  0.00    +0.292 HD
ENDBRANCH  16  20
ENDBRANCH   1  13
BRANCH   5  22
ATOM     22  O   UNL     1       9.550  -1.899  21.620  0.00  0.00    -0.506 OA
ATOM     23  H   UNL     1       9.638  -1.093  21.071  0.00  0.00    +0.292 HD
ENDBRANCH   5  22
BRANCH   7  24
ATOM     24  O   UNL     1      10.342   1.347  24.970  0.00  0.00    -0.507 OA
ATOM     25  H   UNL     1      11.178   1.190  25.450  0.00  0.00    +0.292 HD
ENDBRANCH   7  24
BRANCH  11  26
ATOM     26  O   UNL     1       6.805  -5.593  24.240  0.00  0.00    -0.453 OA
BRANCH  26  27
ATOM     27  C   UNL     1       5.375  -5.566  24.300  0.00  0.00    +0.340 C 
ATOM     28  O   UNL     1       4.774  -6.865  24.514  0.00  0.00    -0.331 OA
ATOM     29  C   UNL     1       3.352  -6.567  24.506  0.00  0.00    +0.179 C 
ATOM     30  C   UNL     1       3.194  -5.411  23.491  0.00  0.00    +0.180 C 
ATOM     31  C   UNL     1       4.638  -5.152  23.020  0.00  0.00    +0.214 C 
BRANCH  30  32
ATOM     32  O   UNL     1       2.713  -4.256  24.199  0.00  0.00    -0.386 OA
ATOM     33  H   UNL     1       2.778  -4.446  25.152  0.00  0.00    +0.210 HD
ENDBRANCH  30  32
BRANCH  31  34
ATOM     34  O   UNL     1       4.950  -5.974  21.890  0.00  0.00    -0.383 OA
ATOM     35  H   UNL     1       4.434  -5.635  21.134  0.00  0.00    +0.210 HD
ENDBRANCH  31  34
BRANCH  29  36
ATOM     36  C   UNL     1       2.536  -7.821  24.209  0.00  0.00    +0.190 C 
BRANCH  36  37
ATOM     37  O   UNL     1       2.728  -8.823  25.198  0.00  0.00    -0.392 OA
ATOM     38  H   UNL     1       2.083  -9.524  24.994  0.00  0.00    +0.210 HD
ENDBRANCH  36  37
ENDBRANCH  29  36
ENDBRANCH  26  27
ENDBRANCH  11  26
TORSDOF 11
ENDMDL
MODEL 8
REMARK VINA RESULT:      -6.9      1.717      4.419
REMARK  Name = 
REMARK  11 active torsions:
REMARK  status: ('A' for Active; 'I' for Inactive)
REMARK    1  A    between atoms: C_3  and  O_35
REMARK    2  A    between atoms: C_4  and  O_34
REMARK    3  A    between atoms: C_6  and  C_7
REMARK    4  A    between atoms: C_8  and  O_20
REMARK    5  A    between atoms: C_12  and  O_19
REMARK    6  A    between atoms: C_14  and  O_18
REMARK    7  A    between atoms: O_20  and  C_21
REMARK    8  A    between atoms: C_23  and  O_33
REMARK    9  A    between atoms: C_25  and  O_32
REMARK   10  A    between atoms: C_27  and  C_30
REMARK   11  A    between atoms: C_30  and  O_31
REMARK                            x       y       z     vdW  Elec       q    Type
REMARK                         _______ _______ _______ _____ _____    ______ ____
ROOT
ATOM      1  C   UNL     1       7.086  -1.542  23.522  0.00  0.00    +0.181 A 
ATOM      2  O   UNL     1       8.022  -0.760  22.822  0.00  0.00    -0.451 OA
ATOM      3  C   UNL     1       8.460   0.432  23.322  0.00  0.00    +0.147 A 
ATOM      4  C   UNL     1       7.960   0.970  24.487  0.00  0.00    +0.109 A 
ATOM      5  C   UNL     1       8.419   2.209  24.963  0.00  0.00    +0.135 A 
ATOM      6  C   UNL     1       9.389   2.914  24.271  0.00  0.00    +0.091 A 
ATOM      7  C   UNL     1       9.898   2.365  23.099  0.00  0.00    +0.124 A 
ATOM      8  C   UNL     1       6.944   0.222  25.199  0.00  0.00    +0.238 A 
ATOM      9  O   UNL     1       6.480   0.787  26.185  0.00  0.00    -0.283 OA
ATOM     10  C   UNL     1       9.442   1.134  22.618  0.00  0.00    +0.092 A 
ATOM     11  C   UNL     1       6.509  -1.129  24.684  0.00  0.00    +0.214 A 
ENDROOT
BRANCH   1  13
ATOM     12  C   UNL     1       5.826  -3.136  21.931  0.00  0.00    +0.015 A 
ATOM     13  C   UNL     1       6.891  -2.865  22.811  0.00  0.00    +0.025 A 
ATOM     14  C   UNL     1       7.771  -3.944  23.075  0.00  0.00    +0.060 A 
ATOM     15  C   UNL     1       7.522  -5.224  22.584  0.00  0.00    +0.159 A 
ATOM     16  C   UNL     1       6.394  -5.482  21.827  0.00  0.00    +0.158 A 
ATOM     17  C   UNL     1       5.565  -4.435  21.457  0.00  0.00    +0.050 A 
BRANCH  15  18
ATOM     18  O   UNL     1       8.382  -6.243  22.887  0.00  0.00    -0.503 OA
ATOM     19  H   UNL     1       9.265  -5.822  22.923  0.00  0.00    +0.292 HD
ENDBRANCH  15  18
BRANCH  16  20
ATOM     20  O   UNL     1       6.118  -6.776  21.494  0.00  0.00    -0.503 OA
ATOM     21  H   UNL     1       5.340  -6.767  20.908  0.00  0.00    +0.292 HD
ENDBRANCH  16  20
ENDBRANCH   1  13
BRANCH   5  22
ATOM     22  O   UNL     1       7.947   2.790  26.112  0.00  0.00    -0.506 OA
ATOM     23  H   UNL     1       8.052   2.148  26.844  0.00  0.00    +0.292 HD
ENDBRANCH   5  22
BRANCH   7  24
ATOM     24  O   UNL     1      10.853   3.022  22.386  0.00  0.00    -0.507 OA
ATOM     25  H   UNL     1      10.510   3.900  22.131  0.00  0.00    +0.292 HD
ENDBRANCH   7  24
BRANCH  11  26
ATOM     26  O   UNL     1       5.569  -1.889  25.413  0.00  0.00    -0.453 OA
BRANCH  26  27
ATOM     27  C   UNL     1       6.063  -3.154  25.869  0.00  0.00    +0.340 C 
ATOM     28  O   UNL     1       5.250  -4.280  25.462  0.00  0.00    -0.331 OA
ATOM     29  C   UNL     1       5.939  -5.408  26.064  0.00  0.00    +0.179 C 
ATOM     30  C   UNL     1       6.513  -4.860  27.392  0.00  0.00    +0.180 C 
ATOM     31  C   UNL     1       6.074  -3.383  27.386  0.00  0.00    +0.214 C 
BRANCH  30  32
ATOM     32  O   UNL     1       7.948  -4.928  27.321  0.00  0.00    -0.386 OA
ATOM     33  H   UNL     1       8.266  -5.309  28.158  0.00  0.00    +0.210 HD
ENDBRANCH  30  32
BRANCH  31  34
ATOM     34  O   UNL     1       4.786  -3.242  27.995  0.00  0.00    -0.383 OA
ATOM     35  H   UNL     1       4.490  -4.135  28.255  0.00  0.00    +0.210 HD
ENDBRANCH  31  34
BRANCH  29  36
ATOM     36  C   UNL     1       5.005  -6.607  26.195  0.00  0.00    +0.190 C 
BRANCH  36  37
ATOM     37  O   UNL     1       5.166  -7.269  27.442  0.00  0.00    -0.392 OA
ATOM     38  H   UNL     1       4.488  -7.968  27.461  0.00  0.00    +0.210 HD
ENDBRANCH  36  37
ENDBRANCH  29  36
ENDBRANCH  26  27
ENDBRANCH  11  26
TORSDOF 11
ENDMDL
MODEL 9
REMARK VINA RESULT:      -6.8      2.061      3.532
REMARK  Name = 
REMARK  11 active torsions:
REMARK  status: ('A' for Active; 'I' for Inactive)
REMARK    1  A    between atoms: C_3  and  O_35
REMARK    2  A    between atoms: C_4  and  O_34
REMARK    3  A    between atoms: C_6  and  C_7
REMARK    4  A    between atoms: C_8  and  O_20
REMARK    5  A    between atoms: C_12  and  O_19
REMARK    6  A    between atoms: C_14  and  O_18
REMARK    7  A    between atoms: O_20  and  C_21
REMARK    8  A    between atoms: C_23  and  O_33
REMARK    9  A    between atoms: C_25  and  O_32
REMARK   10  A    between atoms: C_27  and  C_30
REMARK   11  A    between atoms: C_30  and  O_31
REMARK                            x       y       z     vdW  Elec       q    Type
REMARK                         _______ _______ _______ _____ _____    ______ ____
ROOT
ATOM      1  C   UNL     1       6.540  -0.735  25.585  0.00  0.00    +0.181 A 
ATOM      2  O   UNL     1       6.019   0.298  24.784  0.00  0.00    -0.451 OA
ATOM      3  C   UNL     1       6.843   1.163  24.123  0.00  0.00    +0.147 A 
ATOM      4  C   UNL     1       8.213   1.126  24.263  0.00  0.00    +0.109 A 
ATOM      5  C   UNL     1       9.031   2.044  23.584  0.00  0.00    +0.135 A 
ATOM      6  C   UNL     1       8.474   3.004  22.756  0.00  0.00    +0.091 A 
ATOM      7  C   UNL     1       7.092   3.035  22.611  0.00  0.00    +0.124 A 
ATOM      8  C   UNL     1       8.780   0.117  25.134  0.00  0.00    +0.238 A 
ATOM      9  O   UNL     1       9.997   0.184  25.281  0.00  0.00    -0.283 OA
ATOM     10  C   UNL     1       6.272   2.125  23.287  0.00  0.00    +0.092 A 
ATOM     11  C   UNL     1       7.874  -0.884  25.810  0.00  0.00    +0.214 A 
ENDROOT
BRANCH   1  13
ATOM     12  C   UNL     1       4.956  -1.645  27.407  0.00  0.00    +0.015 A 
ATOM     13  C   UNL     1       5.413  -1.619  26.076  0.00  0.00    +0.025 A 
ATOM     14  C   UNL     1       4.804  -2.541  25.190  0.00  0.00    +0.060 A 
ATOM     15  C   UNL     1       3.893  -3.495  25.643  0.00  0.00    +0.159 A 
ATOM     16  C   UNL     1       3.565  -3.574  26.984  0.00  0.00    +0.158 A 
ATOM     17  C   UNL     1       4.057  -2.624  27.866  0.00  0.00    +0.050 A 
BRANCH  15  18
ATOM     18  O   UNL     1       3.350  -4.385  24.759  0.00  0.00    -0.503 OA
ATOM     19  H   UNL     1       2.385  -4.329  24.912  0.00  0.00    +0.292 HD
ENDBRANCH  15  18
BRANCH  16  20
ATOM     20  O   UNL     1       2.785  -4.614  27.401  0.00  0.00    -0.503 OA
ATOM     21  H   UNL     1       2.825  -4.637  28.374  0.00  0.00    +0.292 HD
ENDBRANCH  16  20
ENDBRANCH   1  13
BRANCH   5  22
ATOM     22  O   UNL     1      10.397   2.054  23.696  0.00  0.00    -0.506 OA
ATOM     23  H   UNL     1      10.625   2.249  24.628  0.00  0.00    +0.292 HD
ENDBRANCH   5  22
BRANCH   7  24
ATOM     24  O   UNL     1       6.501   3.960  21.807  0.00  0.00    -0.507 OA
ATOM     25  H   UNL     1       7.103   4.166  21.066  0.00  0.00    +0.292 HD
ENDBRANCH   7  24
BRANCH  11  26
ATOM     26  O   UNL     1       8.431  -1.910  26.606  0.00  0.00    -0.453 OA
BRANCH  26  27
ATOM     27  C   UNL     1       8.775  -3.095  25.879  0.00  0.00    +0.340 C 
ATOM     28  O   UNL     1       7.969  -3.309  24.696  0.00  0.00    -0.331 OA
ATOM     29  C   UNL     1       8.490  -4.561  24.174  0.00  0.00    +0.179 C 
ATOM     30  C   UNL     1       8.885  -5.379  25.426  0.00  0.00    +0.180 C 
ATOM     31  C   UNL     1       8.540  -4.433  26.592  0.00  0.00    +0.214 C 
BRANCH  30  32
ATOM     32  O   UNL     1      10.307  -5.590  25.392  0.00  0.00    -0.386 OA
ATOM     33  H   UNL     1      10.474  -6.391  24.865  0.00  0.00    +0.210 HD
ENDBRANCH  30  32
BRANCH  31  34
ATOM     34  O   UNL     1       7.185  -4.629  27.011  0.00  0.00    -0.383 OA
ATOM     35  H   UNL     1       6.913  -5.515  26.705  0.00  0.00    +0.210 HD
ENDBRANCH  31  34
BRANCH  29  36
ATOM     36  C   UNL     1       7.478  -5.225  23.246  0.00  0.00    +0.190 C 
BRANCH  36  37
ATOM     37  O   UNL     1       6.257  -5.513  23.914  0.00  0.00    -0.392 OA
ATOM     38  H   UNL     1       5.588  -5.611  23.214  0.00  0.00    +0.210 HD
ENDBRANCH  36  37
ENDBRANCH  29  36
ENDBRANCH  26  27
ENDBRANCH  11  26
TORSDOF 11
ENDMDL
