MODEL 1
REMARK VINA RESULT:      -6.5      0.000      0.000
REMARK  Name = 
REMARK  23 active torsions:
REMARK  status: ('A' for Active; 'I' for Inactive)
REMARK    1  A    between atoms: C_1  and  C_2
REMARK    2  A    between atoms: C_3  and  O_62
REMARK    3  A    between atoms: C_5  and  O_61
REMARK    4  A    between atoms: C_6  and  O_60
REMARK    5  A    between atoms: C_8  and  O_11
REMARK    6  A    between atoms: O_11  and  C_12
REMARK    7  A    between atoms: C_13  and  O_24
REMARK    8  A    between atoms: C_16  and  C_22
REMARK    9  A    between atoms: C_17  and  O_21
REMARK   10  A    between atoms: C_19  and  O_20
REMARK   11  A    between atoms: C_22  and  O_23
REMARK   12  A    between atoms: O_24  and  C_25
REMARK   13  A    between atoms: C_26  and  C_52
REMARK   14  A    between atoms: C_30  and  O_37
REMARK   15  A    between atoms: C_32  and  O_36
REMARK   16  A    between atoms: O_37  and  C_38
REMARK   17  A    between atoms: C_40  and  O_51
REMARK   18  A    between atoms: C_41  and  O_50
REMARK   19  A    between atoms: C_43  and  O_49
REMARK   20  A    between atoms: C_45  and  C_47
REMARK   21  A    between atoms: C_47  and  O_48
REMARK   22  A    between atoms: C_54  and  O_59
REMARK   23  A    between atoms: C_55  and  O_58
REMARK                            x       y       z     vdW  Elec       q    Type
REMARK                         _______ _______ _______ _____ _____    ______ ____
ROOT
ATOM      1  C   UNL     1       5.114  -2.112  27.507  0.00  0.00    +0.214 A 
ATOM      2  C   UNL     1       4.373  -0.810  27.720  0.00  0.00    +0.238 A 
ATOM      3  O   UNL     1       3.373  -0.724  28.421  0.00  0.00    -0.283 OA
ATOM      4  C   UNL     1       4.868   0.392  27.010  0.00  0.00    +0.109 A 
ATOM      5  C   UNL     1       5.996   0.239  26.227  0.00  0.00    +0.147 A 
ATOM      6  C   UNL     1       6.593   1.323  25.582  0.00  0.00    +0.093 A 
ATOM      7  C   UNL     1       6.028   2.590  25.651  0.00  0.00    +0.131 A 
ATOM      8  C   UNL     1       4.855   2.757  26.395  0.00  0.00    +0.092 A 
ATOM      9  O   UNL     1       6.594  -0.959  25.987  0.00  0.00    -0.451 OA
ATOM     10  C   UNL     1       4.285   1.668  27.081  0.00  0.00    +0.135 A 
ATOM     11  C   UNL     1       6.122  -2.079  26.616  0.00  0.00    +0.181 A 
ENDROOT
BRANCH  11  12
ATOM     12  C   UNL     1       6.894  -3.250  26.152  0.00  0.00    +0.025 A 
ATOM     13  C   UNL     1       7.975  -3.698  26.924  0.00  0.00    +0.015 A 
ATOM     14  C   UNL     1       8.923  -4.582  26.393  0.00  0.00    +0.050 A 
ATOM     15  C   UNL     1       8.793  -5.002  25.079  0.00  0.00    +0.158 A 
ATOM     16  C   UNL     1       7.721  -4.574  24.300  0.00  0.00    +0.159 A 
ATOM     17  C   UNL     1       6.755  -3.712  24.828  0.00  0.00    +0.060 A 
BRANCH  16  18
ATOM     18  O   UNL     1       7.706  -4.977  22.991  0.00  0.00    -0.503 OA
ATOM     19  H   UNL     1       6.796  -5.226  22.756  0.00  0.00    +0.292 HD
ENDBRANCH  16  18
BRANCH  15  20
ATOM     20  O   UNL     1       9.765  -5.786  24.530  0.00  0.00    -0.503 OA
ATOM     21  H   UNL     1       9.609  -6.677  24.903  0.00  0.00    +0.292 HD
ENDBRANCH  15  20
ENDBRANCH  11  12
BRANCH  10  22
ATOM     22  O   UNL     1       3.141   1.875  27.802  0.00  0.00    -0.506 OA
ATOM     23  H   UNL     1       2.454   2.271  27.240  0.00  0.00    +0.292 HD
ENDBRANCH  10  22
BRANCH   7  24
ATOM     24  O   UNL     1       6.542   3.706  25.044  0.00  0.00    -0.461 OA
BRANCH  24  25
ATOM     25  C   UNL     1       7.286   3.511  23.818  0.00  0.00    +0.339 C 
ATOM     26  O   UNL     1       8.480   4.295  23.720  0.00  0.00    -0.331 OA
ATOM     27  C   UNL     1       8.246   5.712  23.793  0.00  0.00    +0.179 C 
ATOM     28  C   UNL     1       7.267   6.217  22.702  0.00  0.00    +0.177 C 
ATOM     29  C   UNL     1       6.019   5.327  22.592  0.00  0.00    +0.180 C 
ATOM     30  C   UNL     1       6.397   3.835  22.605  0.00  0.00    +0.214 C 
BRANCH  30  31
ATOM     31  O   UNL     1       5.225   3.014  22.530  0.00  0.00    -0.383 OA
ATOM     32  H   UNL     1       5.363   2.316  21.870  0.00  0.00    +0.210 HD
ENDBRANCH  30  31
BRANCH  29  33
ATOM     33  O   UNL     1       5.121   5.695  23.646  0.00  0.00    -0.386 OA
ATOM     34  H   UNL     1       5.565   6.332  24.227  0.00  0.00    +0.210 HD
ENDBRANCH  29  33
BRANCH  28  35
ATOM     35  O   UNL     1       7.906   6.272  21.424  0.00  0.00    -0.386 OA
ATOM     36  H   UNL     1       7.686   5.446  20.954  0.00  0.00    +0.210 HD
ENDBRANCH  28  35
BRANCH  27  37
ATOM     37  C   UNL     1       9.605   6.438  23.712  0.00  0.00    +0.190 C 
BRANCH  37  38
ATOM     38  O   UNL     1      10.543   5.766  22.868  0.00  0.00    -0.392 OA
ATOM     39  H   UNL     1      10.083   5.039  22.419  0.00  0.00    +0.210 HD
ENDBRANCH  37  38
ENDBRANCH  27  37
ENDBRANCH  24  25
ENDBRANCH   7  24
BRANCH   1  40
ATOM     40  O   UNL     1       4.843  -3.317  28.163  0.00  0.00    -0.453 OA
BRANCH  40  46
ATOM     41  C   UNL     1       4.696  -5.699  27.752  0.00  0.00    +0.221 C 
ATOM     42  C   UNL     1       4.362  -6.350  29.109  0.00  0.00    +0.180 C 
ATOM     43  C   UNL     1       2.878  -6.207  29.471  0.00  0.00    +0.177 C 
ATOM     44  C   UNL     1       2.408  -4.753  29.384  0.00  0.00    +0.179 C 
ATOM     45  O   UNL     1       2.671  -4.224  28.081  0.00  0.00    -0.331 OA
ATOM     46  C   UNL     1       4.011  -4.316  27.592  0.00  0.00    +0.340 C 
BRANCH  43  47
ATOM     47  O   UNL     1       2.076  -7.003  28.584  0.00  0.00    -0.386 OA
ATOM     48  H   UNL     1       1.139  -6.898  28.841  0.00  0.00    +0.210 HD
ENDBRANCH  43  47
BRANCH  42  49
ATOM     49  O   UNL     1       5.178  -5.835  30.170  0.00  0.00    -0.386 OA
ATOM     50  H   UNL     1       5.149  -4.862  30.182  0.00  0.00    +0.210 HD
ENDBRANCH  42  49
BRANCH  44  51
ATOM     51  C   UNL     1       2.938  -3.824  30.484  0.00  0.00    +0.190 C 
BRANCH  51  52
ATOM     52  O   UNL     1       2.481  -2.488  30.257  0.00  0.00    -0.392 OA
ATOM     53  H   UNL     1       2.634  -2.004  31.090  0.00  0.00    +0.210 HD
ENDBRANCH  51  52
ENDBRANCH  44  51
BRANCH  41  54
ATOM     54  O   UNL     1       4.338  -6.619  26.704  0.00  0.00    -0.337 OA
BRANCH  54  58
ATOM     55  C   UNL     1       1.282  -4.452  24.745  0.00  0.00    +0.041 C 
ATOM     56  C   UNL     1       1.601  -5.909  24.406  0.00  0.00    +0.149 C 
ATOM     57  O   UNL     1       2.387  -6.528  25.439  0.00  0.00    -0.343 OA
ATOM     58  C   UNL     1       3.728  -6.031  25.541  0.00  0.00    +0.282 C 
ATOM     59  C   UNL     1       4.494  -6.283  24.216  0.00  0.00    +0.201 C 
ATOM     60  C   UNL     1       3.738  -5.634  23.054  0.00  0.00    +0.179 C 
ATOM     61  C   UNL     1       2.270  -6.079  23.031  0.00  0.00    +0.174 C 
BRANCH  59  62
ATOM     62  O   UNL     1       4.647  -7.696  23.974  0.00  0.00    -0.384 OA
ATOM     63  H   UNL     1       5.600  -7.843  23.827  0.00  0.00    +0.210 HD
ENDBRANCH  59  62
BRANCH  60  64
ATOM     64  O   UNL     1       4.385  -6.008  21.825  0.00  0.00    -0.386 OA
ATOM     65  H   UNL     1       4.676  -6.935  21.962  0.00  0.00    +0.210 HD
ENDBRANCH  60  64
BRANCH  61  66
ATOM     66  O   UNL     1       2.246  -7.466  22.639  0.00  0.00    -0.387 OA
ATOM     67  H   UNL     1       2.846  -7.540  21.863  0.00  0.00    +0.210 HD
ENDBRANCH  61  66
ENDBRANCH  54  58
ENDBRANCH  41  54
ENDBRANCH  40  46
ENDBRANCH   1  40
TORSDOF 22
ENDMDL
MODEL 2
REMARK VINA RESULT:      -6.3      1.729      4.094
REMARK  Name = 
REMARK  23 active torsions:
REMARK  status: ('A' for Active; 'I' for Inactive)
REMARK    1  A    between atoms: C_1  and  C_2
REMARK    2  A    between atoms: C_3  and  O_62
REMARK    3  A    between atoms: C_5  and  O_61
REMARK    4  A    between atoms: C_6  and  O_60
REMARK    5  A    between atoms: C_8  and  O_11
REMARK    6  A    between atoms: O_11  and  C_12
REMARK    7  A    between atoms: C_13  and  O_24
REMARK    8  A    between atoms: C_16  and  C_22
REMARK    9  A    between atoms: C_17  and  O_21
REMARK   10  A    between atoms: C_19  and  O_20
REMARK   11  A    between atoms: C_22  and  O_23
REMARK   12  A    between atoms: O_24  and  C_25
REMARK   13  A    between atoms: C_26  and  C_52
REMARK   14  A    between atoms: C_30  and  O_37
REMARK   15  A    between atoms: C_32  and  O_36
REMARK   16  A    between atoms: O_37  and  C_38
REMARK   17  A    between atoms: C_40  and  O_51
REMARK   18  A    between atoms: C_41  and  O_50
REMARK   19  A    between atoms: C_43  and  O_49
REMARK   20  A    between atoms: C_45  and  C_47
REMARK   21  A    between atoms: C_47  and  O_48
REMARK   22  A    between atoms: C_54  and  O_59
REMARK   23  A    between atoms: C_55  and  O_58
REMARK                            x       y       z     vdW  Elec       q    Type
REMARK                         _______ _______ _______ _____ _____    ______ ____
ROOT
ATOM      1  C   UNL     1       3.817  -2.773  27.470  0.00  0.00    +0.214 A 
ATOM      2  C   UNL     1       4.382  -1.718  28.396  0.00  0.00    +0.238 A 
ATOM      3  O   UNL     1       4.460  -1.872  29.608  0.00  0.00    -0.283 OA
ATOM      4  C   UNL     1       4.816  -0.433  27.798  0.00  0.00    +0.109 A 
ATOM      5  C   UNL     1       4.700  -0.308  26.426  0.00  0.00    +0.147 A 
ATOM      6  C   UNL     1       5.156   0.826  25.754  0.00  0.00    +0.093 A 
ATOM      7  C   UNL     1       5.681   1.905  26.453  0.00  0.00    +0.131 A 
ATOM      8  C   UNL     1       5.758   1.820  27.848  0.00  0.00    +0.092 A 
ATOM      9  O   UNL     1       4.112  -1.240  25.628  0.00  0.00    -0.451 OA
ATOM     10  C   UNL     1       5.341   0.654  28.515  0.00  0.00    +0.135 A 
ATOM     11  C   UNL     1       3.681  -2.416  26.180  0.00  0.00    +0.181 A 
ENDROOT
BRANCH  11  12
ATOM     12  C   UNL     1       3.035  -3.229  25.129  0.00  0.00    +0.025 A 
ATOM     13  C   UNL     1       1.672  -3.534  25.251  0.00  0.00    +0.015 A 
ATOM     14  C   UNL     1       1.087  -4.542  24.474  0.00  0.00    +0.050 A 
ATOM     15  C   UNL     1       1.877  -5.256  23.587  0.00  0.00    +0.158 A 
ATOM     16  C   UNL     1       3.231  -4.961  23.447  0.00  0.00    +0.159 A 
ATOM     17  C   UNL     1       3.820  -3.939  24.198  0.00  0.00    +0.060 A 
BRANCH  16  18
ATOM     18  O   UNL     1       3.955  -5.761  22.603  0.00  0.00    -0.503 OA
ATOM     19  H   UNL     1       3.380  -6.033  21.868  0.00  0.00    +0.292 HD
ENDBRANCH  16  18
BRANCH  15  20
ATOM     20  O   UNL     1       1.331  -6.301  22.900  0.00  0.00    -0.503 OA
ATOM     21  H   UNL     1       1.815  -7.090  23.218  0.00  0.00    +0.292 HD
ENDBRANCH  15  20
ENDBRANCH  11  12
BRANCH  10  22
ATOM     22  O   UNL     1       5.437   0.611  29.879  0.00  0.00    -0.506 OA
ATOM     23  H   UNL     1       6.259   1.039  30.174  0.00  0.00    +0.292 HD
ENDBRANCH  10  22
BRANCH   7  24
ATOM     24  O   UNL     1       6.144   3.058  25.875  0.00  0.00    -0.461 OA
BRANCH  24  25
ATOM     25  C   UNL     1       6.460   3.010  24.463  0.00  0.00    +0.339 C 
ATOM     26  O   UNL     1       7.578   2.178  24.135  0.00  0.00    -0.331 OA
ATOM     27  C   UNL     1       8.800   2.577  24.778  0.00  0.00    +0.179 C 
ATOM     28  C   UNL     1       9.200   4.040  24.456  0.00  0.00    +0.177 C 
ATOM     29  C   UNL     1       8.012   5.005  24.597  0.00  0.00    +0.180 C 
ATOM     30  C   UNL     1       6.746   4.428  23.939  0.00  0.00    +0.214 C 
BRANCH  30  31
ATOM     31  O   UNL     1       5.638   5.322  24.100  0.00  0.00    -0.383 OA
ATOM     32  H   UNL     1       4.984   4.920  24.694  0.00  0.00    +0.210 HD
ENDBRANCH  30  31
BRANCH  29  33
ATOM     33  O   UNL     1       7.845   5.298  25.989  0.00  0.00    -0.386 OA
ATOM     34  H   UNL     1       8.712   5.505  26.372  0.00  0.00    +0.210 HD
ENDBRANCH  29  33
BRANCH  28  35
ATOM     35  O   UNL     1       9.726   4.150  23.131  0.00  0.00    -0.386 OA
ATOM     36  H   UNL     1       9.607   3.284  22.700  0.00  0.00    +0.210 HD
ENDBRANCH  28  35
BRANCH  27  37
ATOM     37  C   UNL     1       9.913   1.587  24.374  0.00  0.00    +0.190 C 
BRANCH  37  38
ATOM     38  O   UNL     1      10.153   0.589  25.369  0.00  0.00    -0.392 OA
ATOM     39  H   UNL     1       9.881  -0.271  25.012  0.00  0.00    +0.210 HD
ENDBRANCH  37  38
ENDBRANCH  27  37
ENDBRANCH  24  25
ENDBRANCH   7  24
BRANCH   1  40
ATOM     40  O   UNL     1       3.445  -4.068  27.846  0.00  0.00    -0.453 OA
BRANCH  40  46
ATOM     41  C   UNL     1       5.644  -5.079  27.742  0.00  0.00    +0.221 C 
ATOM     42  C   UNL     1       5.945  -5.601  29.161  0.00  0.00    +0.180 C 
ATOM     43  C   UNL     1       5.227  -6.924  29.457  0.00  0.00    +0.177 C 
ATOM     44  C   UNL     1       3.726  -6.835  29.168  0.00  0.00    +0.179 C 
ATOM     45  O   UNL     1       3.505  -6.422  27.816  0.00  0.00    -0.331 OA
ATOM     46  C   UNL     1       4.140  -5.217  27.384  0.00  0.00    +0.340 C 
BRANCH  43  47
ATOM     47  O   UNL     1       5.787  -7.977  28.656  0.00  0.00    -0.386 OA
ATOM     48  H   UNL     1       6.577  -8.323  29.115  0.00  0.00    +0.210 HD
ENDBRANCH  43  47
BRANCH  42  49
ATOM     49  O   UNL     1       5.625  -4.634  30.172  0.00  0.00    -0.386 OA
ATOM     50  H   UNL     1       4.663  -4.590  30.312  0.00  0.00    +0.210 HD
ENDBRANCH  42  49
BRANCH  44  51
ATOM     51  C   UNL     1       2.916  -5.983  30.154  0.00  0.00    +0.190 C 
BRANCH  51  52
ATOM     52  O   UNL     1       1.611  -5.731  29.626  0.00  0.00    -0.392 OA
ATOM     53  H   UNL     1       1.017  -6.375  30.054  0.00  0.00    +0.210 HD
ENDBRANCH  51  52
ENDBRANCH  44  51
BRANCH  41  54
ATOM     54  O   UNL     1       6.500  -5.765  26.812  0.00  0.00    -0.337 OA
BRANCH  54  58
ATOM     55  C   UNL     1       7.184  -5.493  22.648  0.00  0.00    +0.041 C 
ATOM     56  C   UNL     1       8.266  -5.172  23.681  0.00  0.00    +0.149 C 
ATOM     57  O   UNL     1       7.929  -5.697  24.976  0.00  0.00    -0.343 OA
ATOM     58  C   UNL     1       6.823  -5.041  25.611  0.00  0.00    +0.282 C 
ATOM     59  C   UNL     1       7.146  -3.541  25.833  0.00  0.00    +0.201 C 
ATOM     60  C   UNL     1       7.497  -2.888  24.493  0.00  0.00    +0.179 C 
ATOM     61  C   UNL     1       8.597  -3.671  23.766  0.00  0.00    +0.174 C 
BRANCH  59  62
ATOM     62  O   UNL     1       8.242  -3.384  26.756  0.00  0.00    -0.384 OA
ATOM     63  H   UNL     1       8.657  -4.264  26.835  0.00  0.00    +0.210 HD
ENDBRANCH  59  62
BRANCH  60  64
ATOM     64  O   UNL     1       7.936  -1.541  24.745  0.00  0.00    -0.386 OA
ATOM     65  H   UNL     1       8.282  -1.221  23.884  0.00  0.00    +0.210 HD
ENDBRANCH  60  64
BRANCH  61  66
ATOM     66  O   UNL     1       9.822  -3.477  24.500  0.00  0.00    -0.387 OA
ATOM     67  H   UNL     1       9.613  -3.687  25.439  0.00  0.00    +0.210 HD
ENDBRANCH  61  66
ENDBRANCH  54  58
ENDBRANCH  41  54
ENDBRANCH  40  46
ENDBRANCH   1  40
TORSDOF 22
ENDMDL
MODEL 3
REMARK VINA RESULT:      -6.2      2.539      5.733
REMARK  Name = 
REMARK  23 active torsions:
REMARK  status: ('A' for Active; 'I' for Inactive)
REMARK    1  A    between atoms: C_1  and  C_2
REMARK    2  A    between atoms: C_3  and  O_62
REMARK    3  A    between atoms: C_5  and  O_61
REMARK    4  A    between atoms: C_6  and  O_60
REMARK    5  A    between atoms: C_8  and  O_11
REMARK    6  A    between atoms: O_11  and  C_12
REMARK    7  A    between atoms: C_13  and  O_24
REMARK    8  A    between atoms: C_16  and  C_22
REMARK    9  A    between atoms: C_17  and  O_21
REMARK   10  A    between atoms: C_19  and  O_20
REMARK   11  A    between atoms: C_22  and  O_23
REMARK   12  A    between atoms: O_24  and  C_25
REMARK   13  A    between atoms: C_26  and  C_52
REMARK   14  A    between atoms: C_30  and  O_37
REMARK   15  A    between atoms: C_32  and  O_36
REMARK   16  A    between atoms: O_37  and  C_38
REMARK   17  A    between atoms: C_40  and  O_51
REMARK   18  A    between atoms: C_41  and  O_50
REMARK   19  A    between atoms: C_43  and  O_49
REMARK   20  A    between atoms: C_45  and  C_47
REMARK   21  A    between atoms: C_47  and  O_48
REMARK   22  A    between atoms: C_54  and  O_59
REMARK   23  A    between atoms: C_55  and  O_58
REMARK                            x       y       z     vdW  Elec       q    Type
REMARK                         _______ _______ _______ _____ _____    ______ ____
ROOT
ATOM      1  C   UNL     1       6.271  -1.449  26.422  0.00  0.00    +0.214 A 
ATOM      2  C   UNL     1       6.870  -0.115  26.809  0.00  0.00    +0.238 A 
ATOM      3  O   UNL     1       8.011   0.000  27.237  0.00  0.00    -0.283 OA
ATOM      4  C   UNL     1       6.010   1.087  26.700  0.00  0.00    +0.109 A 
ATOM      5  C   UNL     1       4.728   0.901  26.220  0.00  0.00    +0.147 A 
ATOM      6  C   UNL     1       3.865   1.975  26.000  0.00  0.00    +0.093 A 
ATOM      7  C   UNL     1       4.246   3.270  26.327  0.00  0.00    +0.131 A 
ATOM      8  C   UNL     1       5.520   3.475  26.865  0.00  0.00    +0.092 A 
ATOM      9  O   UNL     1       4.188  -0.320  25.957  0.00  0.00    -0.451 OA
ATOM     10  C   UNL     1       6.402   2.393  27.039  0.00  0.00    +0.135 A 
ATOM     11  C   UNL     1       4.968  -1.437  26.085  0.00  0.00    +0.181 A 
ENDROOT
BRANCH  11  12
ATOM     12  C   UNL     1       4.145  -2.630  25.801  0.00  0.00    +0.025 A 
ATOM     13  C   UNL     1       3.751  -3.451  26.868  0.00  0.00    +0.015 A 
ATOM     14  C   UNL     1       3.252  -4.740  26.639  0.00  0.00    +0.050 A 
ATOM     15  C   UNL     1       3.165  -5.210  25.338  0.00  0.00    +0.158 A 
ATOM     16  C   UNL     1       3.544  -4.405  24.266  0.00  0.00    +0.159 A 
ATOM     17  C   UNL     1       4.019  -3.108  24.481  0.00  0.00    +0.060 A 
BRANCH  16  18
ATOM     18  O   UNL     1       3.495  -4.971  23.019  0.00  0.00    -0.503 OA
ATOM     19  H   UNL     1       2.563  -5.067  22.761  0.00  0.00    +0.292 HD
ENDBRANCH  16  18
BRANCH  15  20
ATOM     20  O   UNL     1       2.770  -6.497  25.119  0.00  0.00    -0.503 OA
ATOM     21  H   UNL     1       2.200  -6.717  25.884  0.00  0.00    +0.292 HD
ENDBRANCH  15  20
ENDBRANCH  11  12
BRANCH  10  22
ATOM     22  O   UNL     1       7.642   2.637  27.565  0.00  0.00    -0.506 OA
ATOM     23  H   UNL     1       7.639   3.469  28.066  0.00  0.00    +0.292 HD
ENDBRANCH  10  22
BRANCH   7  24
ATOM     24  O   UNL     1       3.461   4.381  26.151  0.00  0.00    -0.461 OA
BRANCH  24  25
ATOM     25  C   UNL     1       2.798   4.528  24.872  0.00  0.00    +0.339 C 
ATOM     26  O   UNL     1       3.497   3.936  23.772  0.00  0.00    -0.331 OA
ATOM     27  C   UNL     1       4.817   4.471  23.574  0.00  0.00    +0.179 C 
ATOM     28  C   UNL     1       4.817   6.005  23.351  0.00  0.00    +0.177 C 
ATOM     29  C   UNL     1       3.935   6.735  24.377  0.00  0.00    +0.180 C 
ATOM     30  C   UNL     1       2.585   6.019  24.558  0.00  0.00    +0.214 C 
BRANCH  30  31
ATOM     31  O   UNL     1       1.782   6.692  25.537  0.00  0.00    -0.383 OA
ATOM     32  H   UNL     1       2.360   7.152  26.166  0.00  0.00    +0.210 HD
ENDBRANCH  30  31
BRANCH  29  33
ATOM     33  O   UNL     1       4.682   6.856  25.593  0.00  0.00    -0.386 OA
ATOM     34  H   UNL     1       5.071   7.743  25.636  0.00  0.00    +0.210 HD
ENDBRANCH  29  33
BRANCH  28  35
ATOM     35  O   UNL     1       4.360   6.335  22.037  0.00  0.00    -0.386 OA
ATOM     36  H   UNL     1       4.365   7.307  21.964  0.00  0.00    +0.210 HD
ENDBRANCH  28  35
BRANCH  27  37
ATOM     37  C   UNL     1       5.474   3.730  22.390  0.00  0.00    +0.190 C 
BRANCH  37  38
ATOM     38  O   UNL     1       6.601   4.429  21.857  0.00  0.00    -0.392 OA
ATOM     39  H   UNL     1       7.301   4.437  22.528  0.00  0.00    +0.210 HD
ENDBRANCH  37  38
ENDBRANCH  27  37
ENDBRANCH  24  25
ENDBRANCH   7  24
BRANCH   1  40
ATOM     40  O   UNL     1       6.960  -2.666  26.376  0.00  0.00    -0.453 OA
BRANCH  40  46
ATOM     41  C   UNL     1       9.041  -3.175  25.248  0.00  0.00    +0.221 C 
ATOM     42  C   UNL     1       9.590  -4.453  25.913  0.00  0.00    +0.180 C 
ATOM     43  C   UNL     1       8.879  -5.717  25.413  0.00  0.00    +0.177 C 
ATOM     44  C   UNL     1       7.358  -5.600  25.529  0.00  0.00    +0.179 C 
ATOM     45  O   UNL     1       6.895  -4.440  24.830  0.00  0.00    -0.331 OA
ATOM     46  C   UNL     1       7.492  -3.186  25.167  0.00  0.00    +0.340 C 
BRANCH  43  47
ATOM     47  O   UNL     1       9.217  -5.961  24.038  0.00  0.00    -0.386 OA
ATOM     48  H   UNL     1       8.508  -6.503  23.640  0.00  0.00    +0.210 HD
ENDBRANCH  43  47
BRANCH  42  49
ATOM     49  O   UNL     1       9.525  -4.387  27.345  0.00  0.00    -0.386 OA
ATOM     50  H   UNL     1       9.148  -3.536  27.631  0.00  0.00    +0.210 HD
ENDBRANCH  42  49
BRANCH  44  51
ATOM     51  C   UNL     1       6.801  -5.651  26.959  0.00  0.00    +0.190 C 
BRANCH  51  52
ATOM     52  O   UNL     1       7.720  -6.333  27.817  0.00  0.00    -0.392 OA
ATOM     53  H   UNL     1       8.212  -6.953  27.248  0.00  0.00    +0.210 HD
ENDBRANCH  51  52
ENDBRANCH  44  51
BRANCH  41  54
ATOM     54  O   UNL     1       9.662  -3.029  23.957  0.00  0.00    -0.337 OA
BRANCH  54  58
ATOM     55  C   UNL     1      11.502   0.730  24.563  0.00  0.00    +0.041 C 
ATOM     56  C   UNL     1       9.985   0.567  24.448  0.00  0.00    +0.149 C 
ATOM     57  O   UNL     1       9.589  -0.803  24.631  0.00  0.00    -0.343 OA
ATOM     58  C   UNL     1       9.980  -1.681  23.568  0.00  0.00    +0.282 C 
ATOM     59  C   UNL     1       9.334  -1.227  22.234  0.00  0.00    +0.201 C 
ATOM     60  C   UNL     1       9.724   0.224  21.941  0.00  0.00    +0.179 C 
ATOM     61  C   UNL     1       9.412   1.133  23.136  0.00  0.00    +0.174 C 
BRANCH  59  62
ATOM     62  O   UNL     1       7.898  -1.346  22.294  0.00  0.00    -0.384 OA
ATOM     63  H   UNL     1       7.543  -0.501  21.959  0.00  0.00    +0.210 HD
ENDBRANCH  59  62
BRANCH  60  64
ATOM     64  O   UNL     1       8.994   0.667  20.783  0.00  0.00    -0.386 OA
ATOM     65  H   UNL     1       9.563   1.351  20.369  0.00  0.00    +0.210 HD
ENDBRANCH  60  64
BRANCH  61  66
ATOM     66  O   UNL     1       7.978   1.244  23.233  0.00  0.00    -0.387 OA
ATOM     67  H   UNL     1       7.787   2.199  23.370  0.00  0.00    +0.210 HD
ENDBRANCH  61  66
ENDBRANCH  54  58
ENDBRANCH  41  54
ENDBRANCH  40  46
ENDBRANCH   1  40
TORSDOF 22
ENDMDL
MODEL 4
REMARK VINA RESULT:      -6.0      2.089      4.724
REMARK  Name = 
REMARK  23 active torsions:
REMARK  status: ('A' for Active; 'I' for Inactive)
REMARK    1  A    between atoms: C_1  and  C_2
REMARK    2  A    between atoms: C_3  and  O_62
REMARK    3  A    between atoms: C_5  and  O_61
REMARK    4  A    between atoms: C_6  and  O_60
REMARK    5  A    between atoms: C_8  and  O_11
REMARK    6  A    between atoms: O_11  and  C_12
REMARK    7  A    between atoms: C_13  and  O_24
REMARK    8  A    between atoms: C_16  and  C_22
REMARK    9  A    between atoms: C_17  and  O_21
REMARK   10  A    between atoms: C_19  and  O_20
REMARK   11  A    between atoms: C_22  and  O_23
REMARK   12  A    between atoms: O_24  and  C_25
REMARK   13  A    between atoms: C_26  and  C_52
REMARK   14  A    between atoms: C_30  and  O_37
REMARK   15  A    between atoms: C_32  and  O_36
REMARK   16  A    between atoms: O_37  and  C_38
REMARK   17  A    between atoms: C_40  and  O_51
REMARK   18  A    between atoms: C_41  and  O_50
REMARK   19  A    between atoms: C_43  and  O_49
REMARK   20  A    between atoms: C_45  and  C_47
REMARK   21  A    between atoms: C_47  and  O_48
REMARK   22  A    between atoms: C_54  and  O_59
REMARK   23  A    between atoms: C_55  and  O_58
REMARK                            x       y       z     vdW  Elec       q    Type
REMARK                         _______ _______ _______ _____ _____    ______ ____
ROOT
ATOM      1  C   UNL     1       6.252  -1.971  26.974  0.00  0.00    +0.214 A 
ATOM      2  C   UNL     1       7.603  -1.801  26.314  0.00  0.00    +0.238 A 
ATOM      3  O   UNL     1       8.456  -2.679  26.315  0.00  0.00    -0.283 OA
ATOM      4  C   UNL     1       7.904  -0.496  25.681  0.00  0.00    +0.109 A 
ATOM      5  C   UNL     1       6.909   0.463  25.714  0.00  0.00    +0.147 A 
ATOM      6  C   UNL     1       7.057   1.694  25.076  0.00  0.00    +0.093 A 
ATOM      7  C   UNL     1       8.247   2.027  24.441  0.00  0.00    +0.131 A 
ATOM      8  C   UNL     1       9.287   1.092  24.442  0.00  0.00    +0.092 A 
ATOM      9  O   UNL     1       5.735   0.313  26.386  0.00  0.00    -0.451 OA
ATOM     10  C   UNL     1       9.113  -0.167  25.047  0.00  0.00    +0.135 A 
ATOM     11  C   UNL     1       5.465  -0.881  26.999  0.00  0.00    +0.181 A 
ENDROOT
BRANCH  11  12
ATOM     12  C   UNL     1       4.169  -0.775  27.700  0.00  0.00    +0.025 A 
ATOM     13  C   UNL     1       2.996  -1.120  27.014  0.00  0.00    +0.015 A 
ATOM     14  C   UNL     1       1.738  -0.747  27.503  0.00  0.00    +0.050 A 
ATOM     15  C   UNL     1       1.659  -0.011  28.675  0.00  0.00    +0.158 A 
ATOM     16  C   UNL     1       2.813   0.333  29.375  0.00  0.00    +0.159 A 
ATOM     17  C   UNL     1       4.073  -0.056  28.910  0.00  0.00    +0.060 A 
BRANCH  16  18
ATOM     18  O   UNL     1       2.654   1.122  30.483  0.00  0.00    -0.503 OA
ATOM     19  H   UNL     1       2.814   2.047  30.228  0.00  0.00    +0.292 HD
ENDBRANCH  16  18
BRANCH  15  20
ATOM     20  O   UNL     1       0.443   0.434  29.103  0.00  0.00    -0.503 OA
ATOM     21  H   UNL     1       0.015  -0.350  29.501  0.00  0.00    +0.292 HD
ENDBRANCH  15  20
ENDBRANCH  11  12
BRANCH  10  22
ATOM     22  O   UNL     1      10.154  -1.055  25.021  0.00  0.00    -0.506 OA
ATOM     23  H   UNL     1       9.856  -1.915  24.680  0.00  0.00    +0.292 HD
ENDBRANCH  10  22
BRANCH   7  24
ATOM     24  O   UNL     1       8.481   3.215  23.798  0.00  0.00    -0.461 OA
BRANCH  24  25
ATOM     25  C   UNL     1       8.433   4.422  24.596  0.00  0.00    +0.339 C 
ATOM     26  O   UNL     1       7.201   4.617  25.298  0.00  0.00    -0.331 OA
ATOM     27  C   UNL     1       6.052   4.693  24.436  0.00  0.00    +0.179 C 
ATOM     28  C   UNL     1       6.167   5.820  23.378  0.00  0.00    +0.177 C 
ATOM     29  C   UNL     1       7.539   5.820  22.684  0.00  0.00    +0.180 C 
ATOM     30  C   UNL     1       8.678   5.653  23.705  0.00  0.00    +0.214 C 
BRANCH  30  31
ATOM     31  O   UNL     1       9.950   5.626  23.046  0.00  0.00    -0.383 OA
ATOM     32  H   UNL     1      10.320   4.729  23.096  0.00  0.00    +0.210 HD
ENDBRANCH  30  31
BRANCH  29  33
ATOM     33  O   UNL     1       7.524   4.801  21.678  0.00  0.00    -0.386 OA
ATOM     34  H   UNL     1       8.431   4.652  21.369  0.00  0.00    +0.210 HD
ENDBRANCH  29  33
BRANCH  28  35
ATOM     35  O   UNL     1       5.953   7.104  23.969  0.00  0.00    -0.386 OA
ATOM     36  H   UNL     1       5.677   7.709  23.256  0.00  0.00    +0.210 HD
ENDBRANCH  28  35
BRANCH  27  37
ATOM     37  C   UNL     1       4.793   4.867  25.311  0.00  0.00    +0.190 C 
BRANCH  37  38
ATOM     38  O   UNL     1       3.686   5.407  24.585  0.00  0.00    -0.392 OA
ATOM     39  H   UNL     1       3.190   5.994  25.178  0.00  0.00    +0.210 HD
ENDBRANCH  37  38
ENDBRANCH  27  37
ENDBRANCH  24  25
ENDBRANCH   7  24
BRANCH   1  40
ATOM     40  O   UNL     1       5.767  -3.156  27.538  0.00  0.00    -0.453 OA
BRANCH  40  46
ATOM     41  C   UNL     1       6.041  -5.220  26.301  0.00  0.00    +0.221 C 
ATOM     42  C   UNL     1       6.203  -6.335  27.354  0.00  0.00    +0.180 C 
ATOM     43  C   UNL     1       4.860  -6.750  27.969  0.00  0.00    +0.177 C 
ATOM     44  C   UNL     1       4.080  -5.546  28.502  0.00  0.00    +0.179 C 
ATOM     45  O   UNL     1       3.892  -4.579  27.464  0.00  0.00    -0.331 OA
ATOM     46  C   UNL     1       5.056  -4.119  26.773  0.00  0.00    +0.340 C 
BRANCH  43  47
ATOM     47  O   UNL     1       4.055  -7.421  26.987  0.00  0.00    -0.386 OA
ATOM     48  H   UNL     1       3.126  -7.142  27.110  0.00  0.00    +0.210 HD
ENDBRANCH  43  47
BRANCH  42  49
ATOM     49  O   UNL     1       7.125  -5.969  28.390  0.00  0.00    -0.386 OA
ATOM     50  H   UNL     1       8.009  -5.802  28.019  0.00  0.00    +0.210 HD
ENDBRANCH  42  49
BRANCH  44  51
ATOM     51  C   UNL     1       4.652  -4.901  29.771  0.00  0.00    +0.190 C 
BRANCH  51  52
ATOM     52  O   UNL     1       3.984  -3.665  30.036  0.00  0.00    -0.392 OA
ATOM     53  H   UNL     1       4.002  -3.162  29.200  0.00  0.00    +0.210 HD
ENDBRANCH  51  52
ENDBRANCH  44  51
BRANCH  41  54
ATOM     54  O   UNL     1       5.643  -5.823  25.056  0.00  0.00    -0.337 OA
BRANCH  54  58
ATOM     55  C   UNL     1       8.552  -3.460  23.099  0.00  0.00    +0.041 C 
ATOM     56  C   UNL     1       7.052  -3.284  22.855  0.00  0.00    +0.149 C 
ATOM     57  O   UNL     1       6.275  -3.911  23.890  0.00  0.00    -0.343 OA
ATOM     58  C   UNL     1       6.327  -5.343  23.885  0.00  0.00    +0.282 C 
ATOM     59  C   UNL     1       5.773  -5.894  22.545  0.00  0.00    +0.201 C 
ATOM     60  C   UNL     1       6.562  -5.295  21.378  0.00  0.00    +0.179 C 
ATOM     61  C   UNL     1       6.603  -3.764  21.464  0.00  0.00    +0.174 C 
BRANCH  59  62
ATOM     62  O   UNL     1       4.373  -5.580  22.403  0.00  0.00    -0.384 OA
ATOM     63  H   UNL     1       4.155  -4.980  23.141  0.00  0.00    +0.210 HD
ENDBRANCH  59  62
BRANCH  60  64
ATOM     64  O   UNL     1       5.934  -5.701  20.149  0.00  0.00    -0.386 OA
ATOM     65  H   UNL     1       6.198  -5.022  19.491  0.00  0.00    +0.210 HD
ENDBRANCH  60  64
BRANCH  61  66
ATOM     66  O   UNL     1       5.275  -3.280  21.181  0.00  0.00    -0.387 OA
ATOM     67  H   UNL     1       4.998  -2.766  21.973  0.00  0.00    +0.210 HD
ENDBRANCH  61  66
ENDBRANCH  54  58
ENDBRANCH  41  54
ENDBRANCH  40  46
ENDBRANCH   1  40
TORSDOF 22
ENDMDL
MODEL 5
REMARK VINA RESULT:      -5.9      2.486      5.776
REMARK  Name = 
REMARK  23 active torsions:
REMARK  status: ('A' for Active; 'I' for Inactive)
REMARK    1  A    between atoms: C_1  and  C_2
REMARK    2  A    between atoms: C_3  and  O_62
REMARK    3  A    between atoms: C_5  and  O_61
REMARK    4  A    between atoms: C_6  and  O_60
REMARK    5  A    between atoms: C_8  and  O_11
REMARK    6  A    between atoms: O_11  and  C_12
REMARK    7  A    between atoms: C_13  and  O_24
REMARK    8  A    between atoms: C_16  and  C_22
REMARK    9  A    between atoms: C_17  and  O_21
REMARK   10  A    between atoms: C_19  and  O_20
REMARK   11  A    between atoms: C_22  and  O_23
REMARK   12  A    between atoms: O_24  and  C_25
REMARK   13  A    between atoms: C_26  and  C_52
REMARK   14  A    between atoms: C_30  and  O_37
REMARK   15  A    between atoms: C_32  and  O_36
REMARK   16  A    between atoms: O_37  and  C_38
REMARK   17  A    between atoms: C_40  and  O_51
REMARK   18  A    between atoms: C_41  and  O_50
REMARK   19  A    between atoms: C_43  and  O_49
REMARK   20  A    between atoms: C_45  and  C_47
REMARK   21  A    between atoms: C_47  and  O_48
REMARK   22  A    between atoms: C_54  and  O_59
REMARK   23  A    between atoms: C_55  and  O_58
REMARK                            x       y       z     vdW  Elec       q    Type
REMARK                         _______ _______ _______ _____ _____    ______ ____
ROOT
ATOM      1  C   UNL     1       6.565  -0.982  24.820  0.00  0.00    +0.214 A 
ATOM      2  C   UNL     1       7.145  -0.103  23.734  0.00  0.00    +0.238 A 
ATOM      3  O   UNL     1       8.155  -0.399  23.109  0.00  0.00    -0.283 OA
ATOM      4  C   UNL     1       6.472   1.189  23.457  0.00  0.00    +0.109 A 
ATOM      5  C   UNL     1       5.340   1.478  24.195  0.00  0.00    +0.147 A 
ATOM      6  C   UNL     1       4.585   2.627  23.957  0.00  0.00    +0.093 A 
ATOM      7  C   UNL     1       4.989   3.559  23.011  0.00  0.00    +0.131 A 
ATOM      8  C   UNL     1       6.162   3.312  22.289  0.00  0.00    +0.092 A 
ATOM      9  O   UNL     1       4.889   0.708  25.222  0.00  0.00    -0.451 OA
ATOM     10  C   UNL     1       6.892   2.128  22.501  0.00  0.00    +0.135 A 
ATOM     11  C   UNL     1       5.525  -0.471  25.502  0.00  0.00    +0.181 A 
ENDROOT
BRANCH  11  12
ATOM     12  C   UNL     1       4.887  -1.089  26.683  0.00  0.00    +0.025 A 
ATOM     13  C   UNL     1       3.802  -1.956  26.491  0.00  0.00    +0.015 A 
ATOM     14  C   UNL     1       2.969  -2.315  27.559  0.00  0.00    +0.050 A 
ATOM     15  C   UNL     1       3.218  -1.789  28.817  0.00  0.00    +0.158 A 
ATOM     16  C   UNL     1       4.296  -0.934  29.027  0.00  0.00    +0.159 A 
ATOM     17  C   UNL     1       5.149  -0.588  27.975  0.00  0.00    +0.060 A 
BRANCH  16  18
ATOM     18  O   UNL     1       4.429  -0.401  30.282  0.00  0.00    -0.503 OA
ATOM     19  H   UNL     1       3.706   0.233  30.425  0.00  0.00    +0.292 HD
ENDBRANCH  16  18
BRANCH  15  20
ATOM     20  O   UNL     1       2.353  -2.062  29.836  0.00  0.00    -0.503 OA
ATOM     21  H   UNL     1       2.785  -2.776  30.347  0.00  0.00    +0.292 HD
ENDBRANCH  15  20
ENDBRANCH  11  12
BRANCH  10  22
ATOM     22  O   UNL     1       8.031   1.922  21.771  0.00  0.00    -0.506 OA
ATOM     23  H   UNL     1       7.932   1.141  21.201  0.00  0.00    +0.292 HD
ENDBRANCH  10  22
BRANCH   7  24
ATOM     24  O   UNL     1       4.313   4.716  22.718  0.00  0.00    -0.461 OA
BRANCH  24  25
ATOM     25  C   UNL     1       2.883   4.722  22.944  0.00  0.00    +0.339 C 
ATOM     26  O   UNL     1       2.148   3.825  22.105  0.00  0.00    -0.331 OA
ATOM     27  C   UNL     1       2.305   4.092  20.700  0.00  0.00    +0.179 C 
ATOM     28  C   UNL     1       1.893   5.535  20.312  0.00  0.00    +0.177 C 
ATOM     29  C   UNL     1       2.483   6.580  21.272  0.00  0.00    +0.180 C 
ATOM     30  C   UNL     1       2.323   6.141  22.738  0.00  0.00    +0.214 C 
BRANCH  30  31
ATOM     31  O   UNL     1       2.901   7.108  23.624  0.00  0.00    -0.383 OA
ATOM     32  H   UNL     1       2.416   7.105  24.464  0.00  0.00    +0.210 HD
ENDBRANCH  30  31
BRANCH  29  33
ATOM     33  O   UNL     1       3.846   6.808  20.893  0.00  0.00    -0.386 OA
ATOM     34  H   UNL     1       4.416   6.207  21.398  0.00  0.00    +0.210 HD
ENDBRANCH  29  33
BRANCH  28  35
ATOM     35  O   UNL     1       0.471   5.678  20.297  0.00  0.00    -0.386 OA
ATOM     36  H   UNL     1       0.263   6.458  19.751  0.00  0.00    +0.210 HD
ENDBRANCH  28  35
BRANCH  27  37
ATOM     37  C   UNL     1       1.498   3.042  19.908  0.00  0.00    +0.190 C 
BRANCH  37  38
ATOM     38  O   UNL     1       1.510   1.753  20.526  0.00  0.00    -0.392 OA
ATOM     39  H   UNL     1       1.056   1.820  21.381  0.00  0.00    +0.210 HD
ENDBRANCH  37  38
ENDBRANCH  27  37
ENDBRANCH  24  25
ENDBRANCH   7  24
BRANCH   1  40
ATOM     40  O   UNL     1       7.014  -2.265  25.151  0.00  0.00    -0.453 OA
BRANCH  40  46
ATOM     41  C   UNL     1       5.921  -3.350  23.281  0.00  0.00    +0.221 C 
ATOM     42  C   UNL     1       7.047  -3.893  22.380  0.00  0.00    +0.180 C 
ATOM     43  C   UNL     1       7.651  -5.193  22.927  0.00  0.00    +0.177 C 
ATOM     44  C   UNL     1       8.083  -5.051  24.388  0.00  0.00    +0.179 C 
ATOM     45  O   UNL     1       6.980  -4.619  25.192  0.00  0.00    -0.331 OA
ATOM     46  C   UNL     1       6.294  -3.434  24.785  0.00  0.00    +0.340 C 
BRANCH  43  47
ATOM     47  O   UNL     1       6.692  -6.259  22.833  0.00  0.00    -0.386 OA
ATOM     48  H   UNL     1       5.797  -5.866  22.846  0.00  0.00    +0.210 HD
ENDBRANCH  43  47
BRANCH  42  49
ATOM     49  O   UNL     1       8.083  -2.923  22.167  0.00  0.00    -0.386 OA
ATOM     50  H   UNL     1       8.724  -2.940  22.899  0.00  0.00    +0.210 HD
ENDBRANCH  42  49
BRANCH  44  51
ATOM     51  C   UNL     1       9.324  -4.179  24.626  0.00  0.00    +0.190 C 
BRANCH  51  52
ATOM     52  O   UNL     1      10.437  -5.001  24.987  0.00  0.00    -0.392 OA
ATOM     53  H   UNL     1      10.796  -5.354  24.152  0.00  0.00    +0.210 HD
ENDBRANCH  51  52
ENDBRANCH  44  51
BRANCH  41  54
ATOM     54  O   UNL     1       4.707  -4.058  22.972  0.00  0.00    -0.337 OA
BRANCH  54  58
ATOM     55  C   UNL     1       4.685  -6.507  26.418  0.00  0.00    +0.041 C 
ATOM     56  C   UNL     1       3.882  -6.850  25.163  0.00  0.00    +0.149 C 
ATOM     57  O   UNL     1       4.342  -6.101  24.025  0.00  0.00    -0.343 OA
ATOM     58  C   UNL     1       4.057  -4.697  24.085  0.00  0.00    +0.282 C 
ATOM     59  C   UNL     1       2.526  -4.465  24.156  0.00  0.00    +0.201 C 
ATOM     60  C   UNL     1       1.948  -5.211  25.362  0.00  0.00    +0.179 C 
ATOM     61  C   UNL     1       2.364  -6.687  25.351  0.00  0.00    +0.174 C 
BRANCH  59  62
ATOM     62  O   UNL     1       1.883  -4.915  22.947  0.00  0.00    -0.384 OA
ATOM     63  H   UNL     1       1.892  -4.153  22.337  0.00  0.00    +0.210 HD
ENDBRANCH  59  62
BRANCH  60  64
ATOM     64  O   UNL     1       0.514  -5.103  25.319  0.00  0.00    -0.386 OA
ATOM     65  H   UNL     1       0.336  -4.178  25.041  0.00  0.00    +0.210 HD
ENDBRANCH  60  64
BRANCH  61  66
ATOM     66  O   UNL     1       1.662  -7.324  24.265  0.00  0.00    -0.387 OA
ATOM     67  H   UNL     1       1.375  -6.600  23.664  0.00  0.00    +0.210 HD
ENDBRANCH  61  66
ENDBRANCH  54  58
ENDBRANCH  41  54
ENDBRANCH  40  46
ENDBRANCH   1  40
TORSDOF 22
ENDMDL
MODEL 6
REMARK VINA RESULT:      -5.7      2.549     10.327
REMARK  Name = 
REMARK  23 active torsions:
REMARK  status: ('A' for Active; 'I' for Inactive)
REMARK    1  A    between atoms: C_1  and  C_2
REMARK    2  A    between atoms: C_3  and  O_62
REMARK    3  A    between atoms: C_5  and  O_61
REMARK    4  A    between atoms: C_6  and  O_60
REMARK    5  A    between atoms: C_8  and  O_11
REMARK    6  A    between atoms: O_11  and  C_12
REMARK    7  A    between atoms: C_13  and  O_24
REMARK    8  A    between atoms: C_16  and  C_22
REMARK    9  A    between atoms: C_17  and  O_21
REMARK   10  A    between atoms: C_19  and  O_20
REMARK   11  A    between atoms: C_22  and  O_23
REMARK   12  A    between atoms: O_24  and  C_25
REMARK   13  A    between atoms: C_26  and  C_52
REMARK   14  A    between atoms: C_30  and  O_37
REMARK   15  A    between atoms: C_32  and  O_36
REMARK   16  A    between atoms: O_37  and  C_38
REMARK   17  A    between atoms: C_40  and  O_51
REMARK   18  A    between atoms: C_41  and  O_50
REMARK   19  A    between atoms: C_43  and  O_49
REMARK   20  A    between atoms: C_45  and  C_47
REMARK   21  A    between atoms: C_47  and  O_48
REMARK   22  A    between atoms: C_54  and  O_59
REMARK   23  A    between atoms: C_55  and  O_58
REMARK                            x       y       z     vdW  Elec       q    Type
REMARK                         _______ _______ _______ _____ _____    ______ ____
ROOT
ATOM      1  C   UNL     1       5.454   0.983  27.382  0.00  0.00    +0.214 A 
ATOM      2  C   UNL     1       6.429  -0.146  27.130  0.00  0.00    +0.238 A 
ATOM      3  O   UNL     1       7.641  -0.011  27.236  0.00  0.00    -0.283 OA
ATOM      4  C   UNL     1       5.878  -1.452  26.698  0.00  0.00    +0.109 A 
ATOM      5  C   UNL     1       4.503  -1.548  26.588  0.00  0.00    +0.147 A 
ATOM      6  C   UNL     1       3.877  -2.754  26.269  0.00  0.00    +0.093 A 
ATOM      7  C   UNL     1       4.624  -3.888  25.981  0.00  0.00    +0.131 A 
ATOM      8  C   UNL     1       6.019  -3.799  26.035  0.00  0.00    +0.092 A 
ATOM      9  O   UNL     1       3.656  -0.495  26.740  0.00  0.00    -0.451 OA
ATOM     10  C   UNL     1       6.642  -2.592  26.403  0.00  0.00    +0.135 A 
ATOM     11  C   UNL     1       4.163   0.722  27.109  0.00  0.00    +0.181 A 
ENDROOT
BRANCH  11  12
ATOM     12  C   UNL     1       3.062   1.705  27.152  0.00  0.00    +0.025 A 
ATOM     13  C   UNL     1       2.638   2.302  25.956  0.00  0.00    +0.015 A 
ATOM     14  C   UNL     1       1.835   3.450  25.967  0.00  0.00    +0.050 A 
ATOM     15  C   UNL     1       1.472   4.009  27.182  0.00  0.00    +0.158 A 
ATOM     16  C   UNL     1       1.877   3.425  28.380  0.00  0.00    +0.159 A 
ATOM     17  C   UNL     1       2.656   2.264  28.381  0.00  0.00    +0.060 A 
BRANCH  16  18
ATOM     18  O   UNL     1       1.536   4.080  29.534  0.00  0.00    -0.503 OA
ATOM     19  H   UNL     1       0.573   4.016  29.652  0.00  0.00    +0.292 HD
ENDBRANCH  16  18
BRANCH  15  20
ATOM     20  O   UNL     1       0.772   5.179  27.195  0.00  0.00    -0.503 OA
ATOM     21  H   UNL     1       0.633   5.398  26.251  0.00  0.00    +0.292 HD
ENDBRANCH  15  20
ENDBRANCH  11  12
BRANCH  10  22
ATOM     22  O   UNL     1       8.009  -2.549  26.448  0.00  0.00    -0.506 OA
ATOM     23  H   UNL     1       8.316  -1.631  26.532  0.00  0.00    +0.292 HD
ENDBRANCH  10  22
BRANCH   7  24
ATOM     24  O   UNL     1       4.093  -5.108  25.653  0.00  0.00    -0.461 OA
BRANCH  24  25
ATOM     25  C   UNL     1       2.723  -5.130  25.184  0.00  0.00    +0.339 C 
ATOM     26  O   UNL     1       1.809  -5.799  26.059  0.00  0.00    -0.331 OA
ATOM     27  C   UNL     1       2.144  -7.177  26.297  0.00  0.00    +0.179 C 
ATOM     28  C   UNL     1       2.231  -8.009  24.991  0.00  0.00    +0.177 C 
ATOM     29  C   UNL     1       3.045  -7.290  23.904  0.00  0.00    +0.180 C 
ATOM     30  C   UNL     1       2.649  -5.806  23.804  0.00  0.00    +0.214 C 
BRANCH  30  31
ATOM     31  O   UNL     1       3.432  -5.138  22.807  0.00  0.00    -0.383 OA
ATOM     32  H   UNL     1       4.261  -4.826  23.205  0.00  0.00    +0.210 HD
ENDBRANCH  30  31
BRANCH  29  33
ATOM     33  O   UNL     1       4.434  -7.489  24.189  0.00  0.00    -0.386 OA
ATOM     34  H   UNL     1       4.860  -6.624  24.292  0.00  0.00    +0.210 HD
ENDBRANCH  29  33
BRANCH  28  35
ATOM     35  O   UNL     1       0.928  -8.295  24.476  0.00  0.00    -0.386 OA
ATOM     36  H   UNL     1       0.494  -8.899  25.106  0.00  0.00    +0.210 HD
ENDBRANCH  28  35
BRANCH  27  37
ATOM     37  C   UNL     1       1.111  -7.772  27.277  0.00  0.00    +0.190 C 
BRANCH  37  38
ATOM     38  O   UNL     1       1.143  -9.201  27.315  0.00  0.00    -0.392 OA
ATOM     39  H   UNL     1       0.239  -9.522  27.460  0.00  0.00    +0.210 HD
ENDBRANCH  37  38
ENDBRANCH  27  37
ENDBRANCH  24  25
ENDBRANCH   7  24
BRANCH   1  40
ATOM     40  O   UNL     1       5.788   2.248  27.879  0.00  0.00    -0.453 OA
BRANCH  40  46
ATOM     41  C   UNL     1       7.013   3.457  26.176  0.00  0.00    +0.221 C 
ATOM     42  C   UNL     1       6.436   4.887  26.163  0.00  0.00    +0.180 C 
ATOM     43  C   UNL     1       6.976   5.741  27.318  0.00  0.00    +0.177 C 
ATOM     44  C   UNL     1       6.801   5.046  28.671  0.00  0.00    +0.179 C 
ATOM     45  O   UNL     1       7.422   3.757  28.651  0.00  0.00    -0.331 OA
ATOM     46  C   UNL     1       7.041   2.859  27.607  0.00  0.00    +0.340 C 
BRANCH  43  47
ATOM     47  O   UNL     1       8.373   6.011  27.118  0.00  0.00    -0.386 OA
ATOM     48  H   UNL     1       8.507   6.246  26.179  0.00  0.00    +0.210 HD
ENDBRANCH  43  47
BRANCH  42  49
ATOM     49  O   UNL     1       5.001   4.890  26.181  0.00  0.00    -0.386 OA
ATOM     50  H   UNL     1       4.668   5.560  26.803  0.00  0.00    +0.210 HD
ENDBRANCH  42  49
BRANCH  44  51
ATOM     51  C   UNL     1       5.358   4.965  29.186  0.00  0.00    +0.190 C 
BRANCH  51  52
ATOM     52  O   UNL     1       5.273   4.018  30.255  0.00  0.00    -0.392 OA
ATOM     53  H   UNL     1       5.955   3.345  30.075  0.00  0.00    +0.210 HD
ENDBRANCH  51  52
ENDBRANCH  44  51
BRANCH  41  54
ATOM     54  O   UNL     1       8.315   3.486  25.562  0.00  0.00    -0.337 OA
BRANCH  54  58
ATOM     55  C   UNL     1      10.026  -0.206  24.412  0.00  0.00    +0.041 C 
ATOM     56  C   UNL     1      10.406   1.118  23.746  0.00  0.00    +0.149 C 
ATOM     57  O   UNL     1       9.998   2.243  24.543  0.00  0.00    -0.343 OA
ATOM     58  C   UNL     1       8.579   2.436  24.614  0.00  0.00    +0.282 C 
ATOM     59  C   UNL     1       8.003   2.689  23.197  0.00  0.00    +0.201 C 
ATOM     60  C   UNL     1       8.369   1.521  22.277  0.00  0.00    +0.179 C 
ATOM     61  C   UNL     1       9.877   1.245  22.306  0.00  0.00    +0.174 C 
BRANCH  59  62
ATOM     62  O   UNL     1       8.511   3.922  22.650  0.00  0.00    -0.384 OA
ATOM     63  H   UNL     1       8.900   3.693  21.785  0.00  0.00    +0.210 HD
ENDBRANCH  59  62
BRANCH  60  64
ATOM     64  O   UNL     1       7.954   1.849  20.939  0.00  0.00    -0.386 OA
ATOM     65  H   UNL     1       7.625   2.772  20.993  0.00  0.00    +0.210 HD
ENDBRANCH  60  64
BRANCH  61  66
ATOM     66  O   UNL     1      10.530   2.343  21.637  0.00  0.00    -0.387 OA
ATOM     67  H   UNL     1      10.488   3.104  22.260  0.00  0.00    +0.210 HD
ENDBRANCH  61  66
ENDBRANCH  54  58
ENDBRANCH  41  54
ENDBRANCH  40  46
ENDBRANCH   1  40
TORSDOF 22
ENDMDL
MODEL 7
REMARK VINA RESULT:      -5.7      2.448     10.586
REMARK  Name = 
REMARK  23 active torsions:
REMARK  status: ('A' for Active; 'I' for Inactive)
REMARK    1  A    between atoms: C_1  and  C_2
REMARK    2  A    between atoms: C_3  and  O_62
REMARK    3  A    between atoms: C_5  and  O_61
REMARK    4  A    between atoms: C_6  and  O_60
REMARK    5  A    between atoms: C_8  and  O_11
REMARK    6  A    between atoms: O_11  and  C_12
REMARK    7  A    between atoms: C_13  and  O_24
REMARK    8  A    between atoms: C_16  and  C_22
REMARK    9  A    between atoms: C_17  and  O_21
REMARK   10  A    between atoms: C_19  and  O_20
REMARK   11  A    between atoms: C_22  and  O_23
REMARK   12  A    between atoms: O_24  and  C_25
REMARK   13  A    between atoms: C_26  and  C_52
REMARK   14  A    between atoms: C_30  and  O_37
REMARK   15  A    between atoms: C_32  and  O_36
REMARK   16  A    between atoms: O_37  and  C_38
REMARK   17  A    between atoms: C_40  and  O_51
REMARK   18  A    between atoms: C_41  and  O_50
REMARK   19  A    between atoms: C_43  and  O_49
REMARK   20  A    between atoms: C_45  and  C_47
REMARK   21  A    between atoms: C_47  and  O_48
REMARK   22  A    between atoms: C_54  and  O_59
REMARK   23  A    between atoms: C_55  and  O_58
REMARK                            x       y       z     vdW  Elec       q    Type
REMARK                         _______ _______ _______ _____ _____    ______ ____
ROOT
ATOM      1  C   UNL     1       6.746  -0.758  24.300  0.00  0.00    +0.214 A 
ATOM      2  C   UNL     1       6.446  -1.855  23.304  0.00  0.00    +0.238 A 
ATOM      3  O   UNL     1       6.956  -1.899  22.192  0.00  0.00    -0.283 OA
ATOM      4  C   UNL     1       5.458  -2.890  23.691  0.00  0.00    +0.109 A 
ATOM      5  C   UNL     1       4.907  -2.791  24.954  0.00  0.00    +0.147 A 
ATOM      6  C   UNL     1       4.031  -3.757  25.449  0.00  0.00    +0.093 A 
ATOM      7  C   UNL     1       3.627  -4.823  24.656  0.00  0.00    +0.131 A 
ATOM      8  C   UNL     1       4.132  -4.914  23.354  0.00  0.00    +0.092 A 
ATOM      9  O   UNL     1       5.132  -1.747  25.798  0.00  0.00    -0.451 OA
ATOM     10  C   UNL     1       5.052  -3.961  22.879  0.00  0.00    +0.135 A 
ATOM     11  C   UNL     1       6.020  -0.772  25.433  0.00  0.00    +0.181 A 
ENDROOT
BRANCH  11  12
ATOM     12  C   UNL     1       6.047   0.267  26.482  0.00  0.00    +0.025 A 
ATOM     13  C   UNL     1       7.053   0.220  27.458  0.00  0.00    +0.015 A 
ATOM     14  C   UNL     1       6.949   0.970  28.636  0.00  0.00    +0.050 A 
ATOM     15  C   UNL     1       5.826   1.755  28.841  0.00  0.00    +0.158 A 
ATOM     16  C   UNL     1       4.821   1.821  27.879  0.00  0.00    +0.159 A 
ATOM     17  C   UNL     1       4.926   1.097  26.688  0.00  0.00    +0.060 A 
BRANCH  16  18
ATOM     18  O   UNL     1       3.712   2.562  28.191  0.00  0.00    -0.503 OA
ATOM     19  H   UNL     1       3.956   3.503  28.173  0.00  0.00    +0.292 HD
ENDBRANCH  16  18
BRANCH  15  20
ATOM     20  O   UNL     1       5.678   2.411  30.028  0.00  0.00    -0.503 OA
ATOM     21  H   UNL     1       6.587   2.662  30.290  0.00  0.00    +0.292 HD
ENDBRANCH  15  20
ENDBRANCH  11  12
BRANCH  10  22
ATOM     22  O   UNL     1       5.525  -4.090  21.602  0.00  0.00    -0.506 OA
ATOM     23  H   UNL     1       5.579  -3.220  21.171  0.00  0.00    +0.292 HD
ENDBRANCH  10  22
BRANCH   7  24
ATOM     24  O   UNL     1       2.766  -5.811  25.058  0.00  0.00    -0.461 OA
BRANCH  24  25
ATOM     25  C   UNL     1       3.327  -6.909  25.818  0.00  0.00    +0.339 C 
ATOM     26  O   UNL     1       2.926  -8.207  25.366  0.00  0.00    -0.331 OA
ATOM     27  C   UNL     1       1.503  -8.415  25.403  0.00  0.00    +0.179 C 
ATOM     28  C   UNL     1       0.901  -8.209  26.817  0.00  0.00    +0.177 C 
ATOM     29  C   UNL     1       1.417  -6.921  27.479  0.00  0.00    +0.180 C 
ATOM     30  C   UNL     1       2.939  -6.775  27.301  0.00  0.00    +0.214 C 
BRANCH  30  31
ATOM     31  O   UNL     1       3.405  -5.559  27.897  0.00  0.00    -0.383 OA
ATOM     32  H   UNL     1       2.829  -4.826  27.627  0.00  0.00    +0.210 HD
ENDBRANCH  30  31
BRANCH  29  33
ATOM     33  O   UNL     1       0.674  -5.821  26.942  0.00  0.00    -0.386 OA
ATOM     34  H   UNL     1      -0.172  -6.150  26.602  0.00  0.00    +0.210 HD
ENDBRANCH  29  33
BRANCH  28  35
ATOM     35  O   UNL     1       1.202  -9.316  27.670  0.00  0.00    -0.386 OA
ATOM     36  H   UNL     1       1.860  -9.009  28.321  0.00  0.00    +0.210 HD
ENDBRANCH  28  35
BRANCH  27  37
ATOM     37  C   UNL     1       1.200  -9.827  24.861  0.00  0.00    +0.190 C 
BRANCH  37  38
ATOM     38  O   UNL     1       1.997 -10.840  25.480  0.00  0.00    -0.392 OA
ATOM     39  H   UNL     1       2.585 -11.218  24.807  0.00  0.00    +0.210 HD
ENDBRANCH  37  38
ENDBRANCH  27  37
ENDBRANCH  24  25
ENDBRANCH   7  24
BRANCH   1  40
ATOM     40  O   UNL     1       7.711   0.243  24.140  0.00  0.00    -0.453 OA
BRANCH  40  46
ATOM     41  C   UNL     1       6.876   2.503  23.895  0.00  0.00    +0.221 C 
ATOM     42  C   UNL     1       7.904   3.419  24.588  0.00  0.00    +0.180 C 
ATOM     43  C   UNL     1       9.144   3.662  23.718  0.00  0.00    +0.177 C 
ATOM     44  C   UNL     1       9.761   2.351  23.226  0.00  0.00    +0.179 C 
ATOM     45  O   UNL     1       8.785   1.576  22.523  0.00  0.00    -0.331 OA
ATOM     46  C   UNL     1       7.557   1.295  23.199  0.00  0.00    +0.340 C 
BRANCH  43  47
ATOM     47  O   UNL     1       8.795   4.462  22.577  0.00  0.00    -0.386 OA
ATOM     48  H   UNL     1       9.564   4.487  21.974  0.00  0.00    +0.210 HD
ENDBRANCH  43  47
BRANCH  42  49
ATOM     49  O   UNL     1       8.298   2.914  25.872  0.00  0.00    -0.386 OA
ATOM     50  H   UNL     1       8.650   3.630  26.429  0.00  0.00    +0.210 HD
ENDBRANCH  42  49
BRANCH  44  51
ATOM     51  C   UNL     1      10.473   1.515  24.299  0.00  0.00    +0.190 C 
BRANCH  51  52
ATOM     52  O   UNL     1      10.728   0.198  23.803  0.00  0.00    -0.392 OA
ATOM     53  H   UNL     1      11.641   0.209  23.462  0.00  0.00    +0.210 HD
ENDBRANCH  51  52
ENDBRANCH  44  51
BRANCH  41  54
ATOM     54  O   UNL     1       6.096   3.299  22.984  0.00  0.00    -0.337 OA
BRANCH  54  58
ATOM     55  C   UNL     1       5.052   6.406  25.655  0.00  0.00    +0.041 C 
ATOM     56  C   UNL     1       4.469   4.997  25.768  0.00  0.00    +0.149 C 
ATOM     57  O   UNL     1       5.244   4.047  25.017  0.00  0.00    -0.343 OA
ATOM     58  C   UNL     1       5.157   4.203  23.594  0.00  0.00    +0.282 C 
ATOM     59  C   UNL     1       3.691   4.020  23.125  0.00  0.00    +0.201 C 
ATOM     60  C   UNL     1       2.788   5.015  23.859  0.00  0.00    +0.179 C 
ATOM     61  C   UNL     1       2.982   4.923  25.378  0.00  0.00    +0.174 C 
BRANCH  59  62
ATOM     62  O   UNL     1       3.238   2.673  23.372  0.00  0.00    -0.384 OA
ATOM     63  H   UNL     1       3.980   2.215  23.810  0.00  0.00    +0.210 HD
ENDBRANCH  59  62
BRANCH  60  64
ATOM     64  O   UNL     1       1.420   4.724  23.520  0.00  0.00    -0.386 OA
ATOM     65  H   UNL     1       0.925   5.544  23.736  0.00  0.00    +0.210 HD
ENDBRANCH  60  64
BRANCH  61  66
ATOM     66  O   UNL     1       2.422   3.667  25.809  0.00  0.00    -0.387 OA
ATOM     67  H   UNL     1       2.215   3.164  24.989  0.00  0.00    +0.210 HD
ENDBRANCH  61  66
ENDBRANCH  54  58
ENDBRANCH  41  54
ENDBRANCH  40  46
ENDBRANCH   1  40
TORSDOF 22
ENDMDL
MODEL 8
REMARK VINA RESULT:      -5.5      2.568      9.770
REMARK  Name = 
REMARK  23 active torsions:
REMARK  status: ('A' for Active; 'I' for Inactive)
REMARK    1  A    between atoms: C_1  and  C_2
REMARK    2  A    between atoms: C_3  and  O_62
REMARK    3  A    between atoms: C_5  and  O_61
REMARK    4  A    between atoms: C_6  and  O_60
REMARK    5  A    between atoms: C_8  and  O_11
REMARK    6  A    between atoms: O_11  and  C_12
REMARK    7  A    between atoms: C_13  and  O_24
REMARK    8  A    between atoms: C_16  and  C_22
REMARK    9  A    between atoms: C_17  and  O_21
REMARK   10  A    between atoms: C_19  and  O_20
REMARK   11  A    between atoms: C_22  and  O_23
REMARK   12  A    between atoms: O_24  and  C_25
REMARK   13  A    between atoms: C_26  and  C_52
REMARK   14  A    between atoms: C_30  and  O_37
REMARK   15  A    between atoms: C_32  and  O_36
REMARK   16  A    between atoms: O_37  and  C_38
REMARK   17  A    between atoms: C_40  and  O_51
REMARK   18  A    between atoms: C_41  and  O_50
REMARK   19  A    between atoms: C_43  and  O_49
REMARK   20  A    between atoms: C_45  and  C_47
REMARK   21  A    between atoms: C_47  and  O_48
REMARK   22  A    between atoms: C_54  and  O_59
REMARK   23  A    between atoms: C_55  and  O_58
REMARK                            x       y       z     vdW  Elec       q    Type
REMARK                         _______ _______ _______ _____ _____    ______ ____
ROOT
ATOM      1  C   UNL     1       5.715   1.601  26.353  0.00  0.00    +0.214 A 
ATOM      2  C   UNL     1       5.411   0.316  25.616  0.00  0.00    +0.238 A 
ATOM      3  O   UNL     1       5.635   0.167  24.422  0.00  0.00    -0.283 OA
ATOM      4  C   UNL     1       4.776  -0.785  26.379  0.00  0.00    +0.109 A 
ATOM      5  C   UNL     1       4.538  -0.563  27.722  0.00  0.00    +0.147 A 
ATOM      6  C   UNL     1       4.021  -1.561  28.548  0.00  0.00    +0.093 A 
ATOM      7  C   UNL     1       3.661  -2.798  28.029  0.00  0.00    +0.131 A 
ATOM      8  C   UNL     1       3.844  -3.026  26.661  0.00  0.00    +0.092 A 
ATOM      9  O   UNL     1       4.745   0.631  28.340  0.00  0.00    -0.451 OA
ATOM     10  C   UNL     1       4.410  -2.031  25.843  0.00  0.00    +0.135 A 
ATOM     11  C   UNL     1       5.303   1.662  27.633  0.00  0.00    +0.181 A 
ENDROOT
BRANCH  11  12
ATOM     12  C   UNL     1       5.371   2.855  28.501  0.00  0.00    +0.025 A 
ATOM     13  C   UNL     1       4.364   3.825  28.401  0.00  0.00    +0.015 A 
ATOM     14  C   UNL     1       4.534   5.101  28.952  0.00  0.00    +0.050 A 
ATOM     15  C   UNL     1       5.726   5.408  29.590  0.00  0.00    +0.158 A 
ATOM     16  C   UNL     1       6.734   4.454  29.706  0.00  0.00    +0.159 A 
ATOM     17  C   UNL     1       6.565   3.169  29.182  0.00  0.00    +0.060 A 
BRANCH  16  18
ATOM     18  O   UNL     1       7.907   4.860  30.286  0.00  0.00    -0.503 OA
ATOM     19  H   UNL     1       7.871   4.647  31.234  0.00  0.00    +0.292 HD
ENDBRANCH  16  18
BRANCH  15  20
ATOM     20  O   UNL     1       5.932   6.677  30.044  0.00  0.00    -0.503 OA
ATOM     21  H   UNL     1       5.767   6.629  31.007  0.00  0.00    +0.292 HD
ENDBRANCH  15  20
ENDBRANCH  11  12
BRANCH  10  22
ATOM     22  O   UNL     1       4.576  -2.296  24.511  0.00  0.00    -0.506 OA
ATOM     23  H   UNL     1       4.485  -1.480  23.989  0.00  0.00    +0.292 HD
ENDBRANCH  10  22
BRANCH   7  24
ATOM     24  O   UNL     1       3.141  -3.831  28.766  0.00  0.00    -0.461 OA
BRANCH  24  25
ATOM     25  C   UNL     1       4.056  -4.567  29.613  0.00  0.00    +0.339 C 
ATOM     26  O   UNL     1       5.388  -4.666  29.098  0.00  0.00    -0.331 OA
ATOM     27  C   UNL     1       5.463  -5.314  27.817  0.00  0.00    +0.179 C 
ATOM     28  C   UNL     1       4.862  -6.743  27.828  0.00  0.00    +0.177 C 
ATOM     29  C   UNL     1       3.497  -6.786  28.533  0.00  0.00    +0.180 C 
ATOM     30  C   UNL     1       3.525  -5.991  29.851  0.00  0.00    +0.214 C 
BRANCH  30  31
ATOM     31  O   UNL     1       2.241  -6.015  30.485  0.00  0.00    -0.383 OA
ATOM     32  H   UNL     1       2.043  -6.919  30.778  0.00  0.00    +0.210 HD
ENDBRANCH  30  31
BRANCH  29  33
ATOM     33  O   UNL     1       2.508  -6.318  27.608  0.00  0.00    -0.386 OA
ATOM     34  H   UNL     1       2.674  -5.381  27.420  0.00  0.00    +0.210 HD
ENDBRANCH  29  33
BRANCH  28  35
ATOM     35  O   UNL     1       5.742  -7.666  28.476  0.00  0.00    -0.386 OA
ATOM     36  H   UNL     1       6.027  -8.313  27.804  0.00  0.00    +0.210 HD
ENDBRANCH  28  35
BRANCH  27  37
ATOM     37  C   UNL     1       6.937  -5.326  27.358  0.00  0.00    +0.190 C 
BRANCH  37  38
ATOM     38  O   UNL     1       7.284  -4.175  26.583  0.00  0.00    -0.392 OA
ATOM     39  H   UNL     1       6.914  -3.391  27.018  0.00  0.00    +0.210 HD
ENDBRANCH  37  38
ENDBRANCH  27  37
ENDBRANCH  24  25
ENDBRANCH   7  24
BRANCH   1  40
ATOM     40  O   UNL     1       6.389   2.704  25.818  0.00  0.00    -0.453 OA
BRANCH  40  46
ATOM     41  C   UNL     1       8.229   2.259  24.308  0.00  0.00    +0.221 C 
ATOM     42  C   UNL     1       8.231   3.409  23.281  0.00  0.00    +0.180 C 
ATOM     43  C   UNL     1       8.857   4.691  23.846  0.00  0.00    +0.177 C 
ATOM     44  C   UNL     1       8.225   5.094  25.181  0.00  0.00    +0.179 C 
ATOM     45  O   UNL     1       8.320   4.017  26.119  0.00  0.00    -0.331 OA
ATOM     46  C   UNL     1       7.805   2.746  25.718  0.00  0.00    +0.340 C 
BRANCH  43  47
ATOM     47  O   UNL     1      10.267   4.503  24.044  0.00  0.00    -0.386 OA
ATOM     48  H   UNL     1      10.691   4.415  23.167  0.00  0.00    +0.210 HD
ENDBRANCH  43  47
BRANCH  42  49
ATOM     49  O   UNL     1       6.915   3.687  22.779  0.00  0.00    -0.386 OA
ATOM     50  H   UNL     1       6.963   4.256  21.991  0.00  0.00    +0.210 HD
ENDBRANCH  42  49
BRANCH  44  51
ATOM     51  C   UNL     1       6.791   5.634  25.093  0.00  0.00    +0.190 C 
BRANCH  51  52
ATOM     52  O   UNL     1       6.645   6.444  23.923  0.00  0.00    -0.392 OA
ATOM     53  H   UNL     1       7.160   7.255  24.088  0.00  0.00    +0.210 HD
ENDBRANCH  51  52
ENDBRANCH  44  51
BRANCH  41  54
ATOM     54  O   UNL     1       9.529   1.641  24.302  0.00  0.00    -0.337 OA
BRANCH  54  58
ATOM     55  C   UNL     1       9.522  -1.146  21.123  0.00  0.00    +0.041 C 
ATOM     56  C   UNL     1       8.436  -1.127  22.200  0.00  0.00    +0.149 C 
ATOM     57  O   UNL     1       8.438   0.115  22.925  0.00  0.00    -0.343 OA
ATOM     58  C   UNL     1       9.581   0.306  23.769  0.00  0.00    +0.282 C 
ATOM     59  C   UNL     1       9.648  -0.813  24.841  0.00  0.00    +0.201 C 
ATOM     60  C   UNL     1       9.674  -2.181  24.155  0.00  0.00    +0.179 C 
ATOM     61  C   UNL     1       8.514  -2.325  23.162  0.00  0.00    +0.174 C 
BRANCH  59  62
ATOM     62  O   UNL     1       8.519  -0.733  25.734  0.00  0.00    -0.384 OA
ATOM     63  H   UNL     1       8.308  -1.653  25.984  0.00  0.00    +0.210 HD
ENDBRANCH  59  62
BRANCH  60  64
ATOM     64  O   UNL     1       9.584  -3.199  25.167  0.00  0.00    -0.386 OA
ATOM     65  H   UNL     1       9.430  -4.035  24.676  0.00  0.00    +0.210 HD
ENDBRANCH  60  64
BRANCH  61  66
ATOM     66  O   UNL     1       7.298  -2.421  23.930  0.00  0.00    -0.387 OA
ATOM     67  H   UNL     1       7.532  -2.911  24.750  0.00  0.00    +0.210 HD
ENDBRANCH  61  66
ENDBRANCH  54  58
ENDBRANCH  41  54
ENDBRANCH  40  46
ENDBRANCH   1  40
TORSDOF 22
ENDMDL
MODEL 9
REMARK VINA RESULT:      -5.5      2.454      9.216
REMARK  Name = 
REMARK  23 active torsions:
REMARK  status: ('A' for Active; 'I' for Inactive)
REMARK    1  A    between atoms: C_1  and  C_2
REMARK    2  A    between atoms: C_3  and  O_62
REMARK    3  A    between atoms: C_5  and  O_61
REMARK    4  A    between atoms: C_6  and  O_60
REMARK    5  A    between atoms: C_8  and  O_11
REMARK    6  A    between atoms: O_11  and  C_12
REMARK    7  A    between atoms: C_13  and  O_24
REMARK    8  A    between atoms: C_16  and  C_22
REMARK    9  A    between atoms: C_17  and  O_21
REMARK   10  A    between atoms: C_19  and  O_20
REMARK   11  A    between atoms: C_22  and  O_23
REMARK   12  A    between atoms: O_24  and  C_25
REMARK   13  A    between atoms: C_26  and  C_52
REMARK   14  A    between atoms: C_30  and  O_37
REMARK   15  A    between atoms: C_32  and  O_36
REMARK   16  A    between atoms: O_37  and  C_38
REMARK   17  A    between atoms: C_40  and  O_51
REMARK   18  A    between atoms: C_41  and  O_50
REMARK   19  A    between atoms: C_43  and  O_49
REMARK   20  A    between atoms: C_45  and  C_47
REMARK   21  A    between atoms: C_47  and  O_48
REMARK   22  A    between atoms: C_54  and  O_59
REMARK   23  A    between atoms: C_55  and  O_58
REMARK                            x       y       z     vdW  Elec       q    Type
REMARK                         _______ _______ _______ _____ _____    ______ ____
ROOT
ATOM      1  C   UNL     1       5.834   1.868  26.487  0.00  0.00    +0.214 A 
ATOM      2  C   UNL     1       5.148   0.731  27.210  0.00  0.00    +0.238 A 
ATOM      3  O   UNL     1       4.710   0.837  28.348  0.00  0.00    -0.283 OA
ATOM      4  C   UNL     1       5.046  -0.572  26.512  0.00  0.00    +0.109 A 
ATOM      5  C   UNL     1       5.563  -0.641  25.231  0.00  0.00    +0.147 A 
ATOM      6  C   UNL     1       5.446  -1.794  24.456  0.00  0.00    +0.093 A 
ATOM      7  C   UNL     1       4.865  -2.944  24.974  0.00  0.00    +0.131 A 
ATOM      8  C   UNL     1       4.383  -2.913  26.288  0.00  0.00    +0.092 A 
ATOM      9  O   UNL     1       6.248   0.373  24.637  0.00  0.00    -0.451 OA
ATOM     10  C   UNL     1       4.462  -1.731  27.048  0.00  0.00    +0.135 A 
ATOM     11  C   UNL     1       6.371   1.570  25.290  0.00  0.00    +0.181 A 
ENDROOT
BRANCH  11  12
ATOM     12  C   UNL     1       7.197   2.479  24.470  0.00  0.00    +0.025 A 
ATOM     13  C   UNL     1       8.443   2.894  24.964  0.00  0.00    +0.015 A 
ATOM     14  C   UNL     1       9.118   3.981  24.394  0.00  0.00    +0.050 A 
ATOM     15  C   UNL     1       8.533   4.662  23.339  0.00  0.00    +0.158 A 
ATOM     16  C   UNL     1       7.301   4.259  22.830  0.00  0.00    +0.159 A 
ATOM     17  C   UNL     1       6.630   3.159  23.373  0.00  0.00    +0.060 A 
BRANCH  16  18
ATOM     18  O   UNL     1       6.759   5.029  21.835  0.00  0.00    -0.503 OA
ATOM     19  H   UNL     1       7.351   4.998  21.065  0.00  0.00    +0.292 HD
ENDBRANCH  16  18
BRANCH  15  20
ATOM     20  O   UNL     1       9.143   5.778  22.845  0.00  0.00    -0.503 OA
ATOM     21  H   UNL     1       9.653   6.139  23.599  0.00  0.00    +0.292 HD
ENDBRANCH  15  20
ENDBRANCH  11  12
BRANCH  10  22
ATOM     22  O   UNL     1       3.975  -1.742  28.326  0.00  0.00    -0.506 OA
ATOM     23  H   UNL     1       4.447  -1.093  28.874  0.00  0.00    +0.292 HD
ENDBRANCH  10  22
BRANCH   7  24
ATOM     24  O   UNL     1       4.716  -4.120  24.287  0.00  0.00    -0.461 OA
BRANCH  24  25
ATOM     25  C   UNL     1       5.503  -5.252  24.731  0.00  0.00    +0.339 C 
ATOM     26  O   UNL     1       6.876  -4.949  24.997  0.00  0.00    -0.331 OA
ATOM     27  C   UNL     1       7.581  -4.427  23.857  0.00  0.00    +0.179 C 
ATOM     28  C   UNL     1       7.544  -5.384  22.637  0.00  0.00    +0.177 C 
ATOM     29  C   UNL     1       6.130  -5.924  22.372  0.00  0.00    +0.180 C 
ATOM     30  C   UNL     1       5.452  -6.374  23.679  0.00  0.00    +0.214 C 
BRANCH  30  31
ATOM     31  O   UNL     1       4.125  -6.849  23.425  0.00  0.00    -0.383 OA
ATOM     32  H   UNL     1       3.734  -7.172  24.253  0.00  0.00    +0.210 HD
ENDBRANCH  30  31
BRANCH  29  33
ATOM     33  O   UNL     1       5.396  -4.912  21.672  0.00  0.00    -0.386 OA
ATOM     34  H   UNL     1       5.202  -5.229  20.776  0.00  0.00    +0.210 HD
ENDBRANCH  29  33
BRANCH  28  35
ATOM     35  O   UNL     1       8.430  -6.491  22.824  0.00  0.00    -0.386 OA
ATOM     36  H   UNL     1       8.148  -6.953  23.635  0.00  0.00    +0.210 HD
ENDBRANCH  28  35
BRANCH  27  37
ATOM     37  C   UNL     1       9.031  -4.109  24.280  0.00  0.00    +0.190 C 
BRANCH  37  38
ATOM     38  O   UNL     1       9.701  -5.237  24.848  0.00  0.00    -0.392 OA
ATOM     39  H   UNL     1       9.939  -5.021  25.764  0.00  0.00    +0.210 HD
ENDBRANCH  37  38
ENDBRANCH  27  37
ENDBRANCH  24  25
ENDBRANCH   7  24
BRANCH   1  40
ATOM     40  O   UNL     1       5.938   3.183  26.955  0.00  0.00    -0.453 OA
BRANCH  40  46
ATOM     41  C   UNL     1       3.595   3.787  27.036  0.00  0.00    +0.221 C 
ATOM     42  C   UNL     1       3.315   4.232  28.486  0.00  0.00    +0.180 C 
ATOM     43  C   UNL     1       3.808   5.658  28.761  0.00  0.00    +0.177 C 
ATOM     44  C   UNL     1       5.275   5.841  28.361  0.00  0.00    +0.179 C 
ATOM     45  O   UNL     1       5.462   5.488  26.987  0.00  0.00    -0.331 OA
ATOM     46  C   UNL     1       5.018   4.194  26.573  0.00  0.00    +0.340 C 
BRANCH  43  47
ATOM     47  O   UNL     1       3.012   6.603  28.029  0.00  0.00    -0.386 OA
ATOM     48  H   UNL     1       2.562   6.128  27.303  0.00  0.00    +0.210 HD
ENDBRANCH  43  47
BRANCH  42  49
ATOM     49  O   UNL     1       3.876   3.325  29.446  0.00  0.00    -0.386 OA
ATOM     50  H   UNL     1       3.587   2.414  29.266  0.00  0.00    +0.210 HD
ENDBRANCH  42  49
BRANCH  44  51
ATOM     51  C   UNL     1       6.295   5.135  29.264  0.00  0.00    +0.190 C 
BRANCH  51  52
ATOM     52  O   UNL     1       7.576   5.110  28.628  0.00  0.00    -0.392 OA
ATOM     53  H   UNL     1       8.082   5.852  29.007  0.00  0.00    +0.210 HD
ENDBRANCH  51  52
ENDBRANCH  44  51
BRANCH  41  54
ATOM     54  O   UNL     1       2.562   4.321  26.188  0.00  0.00    -0.337 OA
BRANCH  54  58
ATOM     55  C   UNL     1       3.990   6.838  23.105  0.00  0.00    +0.041 C 
ATOM     56  C   UNL     1       2.599   6.203  23.068  0.00  0.00    +0.149 C 
ATOM     57  O   UNL     1       2.206   5.724  24.365  0.00  0.00    -0.343 OA
ATOM     58  C   UNL     1       2.948   4.588  24.828  0.00  0.00    +0.282 C 
ATOM     59  C   UNL     1       2.758   3.393  23.859  0.00  0.00    +0.201 C 
ATOM     60  C   UNL     1       3.178   3.806  22.446  0.00  0.00    +0.179 C 
ATOM     61  C   UNL     1       2.467   5.093  22.010  0.00  0.00    +0.174 C 
BRANCH  59  62
ATOM     62  O   UNL     1       1.385   2.952  23.853  0.00  0.00    -0.384 OA
ATOM     63  H   UNL     1       1.345   2.186  24.456  0.00  0.00    +0.210 HD
ENDBRANCH  59  62
BRANCH  60  64
ATOM     64  O   UNL     1       2.852   2.734  21.543  0.00  0.00    -0.386 OA
ATOM     65  H   UNL     1       3.676   2.566  21.037  0.00  0.00    +0.210 HD
ENDBRANCH  60  64
BRANCH  61  66
ATOM     66  O   UNL     1       1.078   4.771  21.805  0.00  0.00    -0.387 OA
ATOM     67  H   UNL     1       1.045   4.205  21.000  0.00  0.00    +0.210 HD
ENDBRANCH  61  66
ENDBRANCH  54  58
ENDBRANCH  41  54
ENDBRANCH  40  46
ENDBRANCH   1  40
TORSDOF 22
ENDMDL
