MODEL 1
REMARK VINA RESULT:      -7.4      0.000      0.000
REMARK  Name = 
REMARK  12 active torsions:
REMARK  status: ('A' for Active; 'I' for Inactive)
REMARK    1  A    between atoms: C_3  and  O_30
REMARK    2  A    between atoms: C_4  and  O_29
REMARK    3  A    between atoms: C_6  and  C_7
REMARK    4  A    between atoms: C_8  and  O_24
REMARK    5  A    between atoms: C_12  and  O_23
REMARK    6  A    between atoms: C_14  and  O_18
REMARK    7  A    between atoms: O_18  and  S_19
REMARK    8  A    between atoms: S_19  and  O_22
REMARK    9  A    between atoms: O_24  and  S_25
REMARK   10  A    between atoms: S_25  and  O_28
REMARK   11  A    between atoms: O_30  and  S_31
REMARK   12  A    between atoms: S_31  and  O_34
REMARK                            x       y       z     vdW  Elec       q    Type
REMARK                         _______ _______ _______ _____ _____    ______ ____
ROOT
ATOM      1  C   UNL     1       6.578  -2.184  23.950  0.00  0.00    +0.184 A 
ATOM      2  O   UNL     1       6.348  -0.997  23.253  0.00  0.00    -0.451 OA
ATOM      3  C   UNL     1       7.347  -0.070  23.137  0.00  0.00    +0.147 A 
ATOM      4  C   UNL     1       8.629  -0.302  23.607  0.00  0.00    +0.109 A 
ATOM      5  C   UNL     1       9.618   0.673  23.440  0.00  0.00    +0.135 A 
ATOM      6  C   UNL     1       9.324   1.883  22.810  0.00  0.00    +0.095 A 
ATOM      7  C   UNL     1       8.035   2.114  22.327  0.00  0.00    +0.166 A 
ATOM      8  C   UNL     1       8.899  -1.571  24.287  0.00  0.00    +0.241 A 
ATOM      9  O   UNL     1      10.036  -1.823  24.678  0.00  0.00    -0.283 OA
ATOM     10  C   UNL     1       7.043   1.141  22.506  0.00  0.00    +0.096 A 
ATOM     11  C   UNL     1       7.770  -2.520  24.493  0.00  0.00    +0.248 A 
ENDROOT
BRANCH   1  13
ATOM     12  C   UNL     1       4.480  -2.842  25.066  0.00  0.00    +0.015 A 
ATOM     13  C   UNL     1       5.338  -2.983  23.963  0.00  0.00    +0.025 A 
ATOM     14  C   UNL     1       5.104  -4.019  23.053  0.00  0.00    +0.061 A 
ATOM     15  C   UNL     1       4.085  -4.941  23.308  0.00  0.00    +0.162 A 
ATOM     16  C   UNL     1       3.310  -4.866  24.470  0.00  0.00    +0.200 A 
ATOM     17  C   UNL     1       3.469  -3.774  25.317  0.00  0.00    +0.053 A 
BRANCH  15  18
ATOM     18  O   UNL     1       3.899  -5.953  22.405  0.00  0.00    -0.503 OA
ATOM     19  H   UNL     1       3.651  -6.748  22.912  0.00  0.00    +0.292 HD
ENDBRANCH  15  18
BRANCH  16  20
ATOM     20  O   UNL     1       2.438  -5.898  24.718  0.00  0.00    -0.321 OA
BRANCH  20  21
ATOM     21  S   UNL     1       2.975  -7.272  25.422  0.00  0.00    +0.251 S 
ATOM     22  O   UNL     1       1.929  -7.824  26.252  0.00  0.00    -0.108 OA
ATOM     23  O   UNL     1       4.318  -7.067  25.923  0.00  0.00    -0.108 OA
BRANCH  21  24
ATOM     24  O   UNL     1       3.166  -8.268  24.169  0.00  0.00    -0.222 OA
ATOM     25  H   UNL     1       3.438  -9.137  24.533  0.00  0.00    +0.248 HD
ENDBRANCH  21  24
ENDBRANCH  20  21
ENDBRANCH  16  20
ENDBRANCH   1  13
BRANCH   5  26
ATOM     26  O   UNL     1      10.904   0.510  23.875  0.00  0.00    -0.506 OA
ATOM     27  H   UNL     1      11.450   1.245  23.514  0.00  0.00    +0.292 HD
ENDBRANCH   5  26
BRANCH   7  28
ATOM     28  O   UNL     1       7.641   3.263  21.689  0.00  0.00    -0.325 OA
BRANCH  28  29
ATOM     29  S   UNL     1       7.098   4.561  22.512  0.00  0.00    +0.251 S 
ATOM     30  O   UNL     1       7.916   4.775  23.684  0.00  0.00    -0.108 OA
ATOM     31  O   UNL     1       5.653   4.493  22.587  0.00  0.00    -0.108 OA
BRANCH  29  32
ATOM     32  O   UNL     1       7.395   5.776  21.496  0.00  0.00    -0.222 OA
ATOM     33  H   UNL     1       8.337   5.710  21.232  0.00  0.00    +0.248 HD
ENDBRANCH  29  32
ENDBRANCH  28  29
ENDBRANCH   7  28
BRANCH  11  34
ATOM     34  O   UNL     1       8.084  -3.584  25.306  0.00  0.00    -0.317 OA
BRANCH  34  35
ATOM     35  S   UNL     1       8.609  -5.034  24.819  0.00  0.00    +0.252 S 
ATOM     36  O   UNL     1       8.267  -5.251  23.433  0.00  0.00    -0.108 OA
ATOM     37  O   UNL     1       8.292  -5.994  25.856  0.00  0.00    -0.108 OA
BRANCH  35  38
ATOM     38  O   UNL     1      10.213  -4.876  24.893  0.00  0.00    -0.222 OA
ATOM     39  H   UNL     1      10.430  -4.391  25.715  0.00  0.00    +0.248 HD
ENDBRANCH  35  38
ENDBRANCH  34  35
ENDBRANCH  11  34
TORSDOF 12
ENDMDL
MODEL 2
REMARK VINA RESULT:      -7.3      1.958      8.607
REMARK  Name = 
REMARK  12 active torsions:
REMARK  status: ('A' for Active; 'I' for Inactive)
REMARK    1  A    between atoms: C_3  and  O_30
REMARK    2  A    between atoms: C_4  and  O_29
REMARK    3  A    between atoms: C_6  and  C_7
REMARK    4  A    between atoms: C_8  and  O_24
REMARK    5  A    between atoms: C_12  and  O_23
REMARK    6  A    between atoms: C_14  and  O_18
REMARK    7  A    between atoms: O_18  and  S_19
REMARK    8  A    between atoms: S_19  and  O_22
REMARK    9  A    between atoms: O_24  and  S_25
REMARK   10  A    between atoms: S_25  and  O_28
REMARK   11  A    between atoms: O_30  and  S_31
REMARK   12  A    between atoms: S_31  and  O_34
REMARK                            x       y       z     vdW  Elec       q    Type
REMARK                         _______ _______ _______ _____ _____    ______ ____
ROOT
ATOM      1  C   UNL     1       7.388  -0.655  23.116  0.00  0.00    +0.184 A 
ATOM      2  O   UNL     1       6.283  -1.475  22.881  0.00  0.00    -0.451 OA
ATOM      3  C   UNL     1       6.419  -2.834  22.945  0.00  0.00    +0.147 A 
ATOM      4  C   UNL     1       7.602  -3.443  23.332  0.00  0.00    +0.109 A 
ATOM      5  C   UNL     1       7.676  -4.837  23.401  0.00  0.00    +0.135 A 
ATOM      6  C   UNL     1       6.570  -5.625  23.076  0.00  0.00    +0.095 A 
ATOM      7  C   UNL     1       5.375  -5.014  22.697  0.00  0.00    +0.166 A 
ATOM      8  C   UNL     1       8.752  -2.589  23.639  0.00  0.00    +0.241 A 
ATOM      9  O   UNL     1       9.801  -3.098  24.025  0.00  0.00    -0.283 OA
ATOM     10  C   UNL     1       5.306  -3.617  22.616  0.00  0.00    +0.096 A 
ATOM     11  C   UNL     1       8.610  -1.118  23.463  0.00  0.00    +0.248 A 
ENDROOT
BRANCH   1  13
ATOM     12  C   UNL     1       7.627   1.502  21.945  0.00  0.00    +0.015 A 
ATOM     13  C   UNL     1       6.986   0.754  22.946  0.00  0.00    +0.025 A 
ATOM     14  C   UNL     1       6.176   1.420  23.872  0.00  0.00    +0.061 A 
ATOM     15  C   UNL     1       6.096   2.815  23.839  0.00  0.00    +0.162 A 
ATOM     16  C   UNL     1       6.832   3.564  22.914  0.00  0.00    +0.200 A 
ATOM     17  C   UNL     1       7.548   2.898  21.925  0.00  0.00    +0.053 A 
BRANCH  15  18
ATOM     18  O   UNL     1       5.309   3.432  24.773  0.00  0.00    -0.503 OA
ATOM     19  H   UNL     1       4.387   3.181  24.583  0.00  0.00    +0.292 HD
ENDBRANCH  15  18
BRANCH  16  20
ATOM     20  O   UNL     1       6.816   4.931  23.050  0.00  0.00    -0.321 OA
BRANCH  20  21
ATOM     21  S   UNL     1       8.038   5.689  23.827  0.00  0.00    +0.251 S 
ATOM     22  O   UNL     1       8.758   4.730  24.636  0.00  0.00    -0.108 OA
ATOM     23  O   UNL     1       7.563   6.942  24.373  0.00  0.00    -0.108 OA
BRANCH  21  24
ATOM     24  O   UNL     1       9.016   6.125  22.622  0.00  0.00    -0.222 OA
ATOM     25  H   UNL     1       8.706   6.999  22.303  0.00  0.00    +0.248 HD
ENDBRANCH  21  24
ENDBRANCH  20  21
ENDBRANCH  16  20
ENDBRANCH   1  13
BRANCH   5  26
ATOM     26  O   UNL     1       8.808  -5.505  23.778  0.00  0.00    -0.506 OA
ATOM     27  H   UNL     1       8.554  -6.219  24.405  0.00  0.00    +0.292 HD
ENDBRANCH   5  26
BRANCH   7  28
ATOM     28  O   UNL     1       4.229  -5.691  22.364  0.00  0.00    -0.325 OA
BRANCH  28  29
ATOM     29  S   UNL     1       3.130  -6.127  23.487  0.00  0.00    +0.251 S 
ATOM     30  O   UNL     1       1.800  -6.049  22.926  0.00  0.00    -0.108 OA
ATOM     31  O   UNL     1       3.471  -5.490  24.743  0.00  0.00    -0.108 OA
BRANCH  29  32
ATOM     32  O   UNL     1       3.459  -7.687  23.719  0.00  0.00    -0.222 OA
ATOM     33  H   UNL     1       2.615  -8.131  23.947  0.00  0.00    +0.248 HD
ENDBRANCH  29  32
ENDBRANCH  28  29
ENDBRANCH   7  28
BRANCH  11  34
ATOM     34  O   UNL     1       9.795  -0.430  23.589  0.00  0.00    -0.317 OA
BRANCH  34  35
ATOM     35  S   UNL     1      10.314   0.339  24.913  0.00  0.00    +0.252 S 
ATOM     36  O   UNL     1      11.737   0.572  24.833  0.00  0.00    -0.108 OA
ATOM     37  O   UNL     1       9.694  -0.288  26.063  0.00  0.00    -0.108 OA
BRANCH  35  38
ATOM     38  O   UNL     1       9.590   1.776  24.799  0.00  0.00    -0.222 OA
ATOM     39  H   UNL     1       8.906   1.714  24.102  0.00  0.00    +0.248 HD
ENDBRANCH  35  38
ENDBRANCH  34  35
ENDBRANCH  11  34
TORSDOF 12
ENDMDL
MODEL 3
REMARK VINA RESULT:      -6.8      3.132      4.965
REMARK  Name = 
REMARK  12 active torsions:
REMARK  status: ('A' for Active; 'I' for Inactive)
REMARK    1  A    between atoms: C_3  and  O_30
REMARK    2  A    between atoms: C_4  and  O_29
REMARK    3  A    between atoms: C_6  and  C_7
REMARK    4  A    between atoms: C_8  and  O_24
REMARK    5  A    between atoms: C_12  and  O_23
REMARK    6  A    between atoms: C_14  and  O_18
REMARK    7  A    between atoms: O_18  and  S_19
REMARK    8  A    between atoms: S_19  and  O_22
REMARK    9  A    between atoms: O_24  and  S_25
REMARK   10  A    between atoms: S_25  and  O_28
REMARK   11  A    between atoms: O_30  and  S_31
REMARK   12  A    between atoms: S_31  and  O_34
REMARK                            x       y       z     vdW  Elec       q    Type
REMARK                         _______ _______ _______ _____ _____    ______ ____
ROOT
ATOM      1  C   UNL     1       7.911  -0.162  24.694  0.00  0.00    +0.184 A 
ATOM      2  O   UNL     1       9.187   0.313  24.389  0.00  0.00    -0.451 OA
ATOM      3  C   UNL     1       9.390   1.654  24.208  0.00  0.00    +0.147 A 
ATOM      4  C   UNL     1       8.387   2.587  24.412  0.00  0.00    +0.109 A 
ATOM      5  C   UNL     1       8.658   3.948  24.234  0.00  0.00    +0.135 A 
ATOM      6  C   UNL     1       9.929   4.375  23.846  0.00  0.00    +0.095 A 
ATOM      7  C   UNL     1      10.942   3.437  23.651  0.00  0.00    +0.166 A 
ATOM      8  C   UNL     1       7.057   2.104  24.792  0.00  0.00    +0.241 A 
ATOM      9  O   UNL     1       6.160   2.911  25.020  0.00  0.00    -0.283 OA
ATOM     10  C   UNL     1      10.666   2.073  23.817  0.00  0.00    +0.096 A 
ATOM     11  C   UNL     1       6.835   0.635  24.881  0.00  0.00    +0.248 A 
ENDROOT
BRANCH   1  13
ATOM     12  C   UNL     1       7.053  -2.371  24.014  0.00  0.00    +0.015 A 
ATOM     13  C   UNL     1       7.957  -1.633  24.795  0.00  0.00    +0.025 A 
ATOM     14  C   UNL     1       8.689  -2.295  25.786  0.00  0.00    +0.061 A 
ATOM     15  C   UNL     1       8.442  -3.647  26.037  0.00  0.00    +0.162 A 
ATOM     16  C   UNL     1       7.455  -4.348  25.337  0.00  0.00    +0.200 A 
ATOM     17  C   UNL     1       6.805  -3.721  24.279  0.00  0.00    +0.053 A 
BRANCH  15  18
ATOM     18  O   UNL     1       9.165  -4.255  27.028  0.00  0.00    -0.503 OA
ATOM     19  H   UNL     1       8.811  -3.937  27.878  0.00  0.00    +0.292 HD
ENDBRANCH  15  18
BRANCH  16  20
ATOM     20  O   UNL     1       7.171  -5.627  25.752  0.00  0.00    -0.321 OA
BRANCH  20  21
ATOM     21  S   UNL     1       6.251  -5.869  27.081  0.00  0.00    +0.251 S 
ATOM     22  O   UNL     1       7.107  -5.984  28.240  0.00  0.00    -0.108 OA
ATOM     23  O   UNL     1       5.226  -6.848  26.791  0.00  0.00    -0.108 OA
BRANCH  21  24
ATOM     24  O   UNL     1       5.445  -4.480  27.220  0.00  0.00    -0.222 OA
ATOM     25  H   UNL     1       6.034  -3.772  26.881  0.00  0.00    +0.248 HD
ENDBRANCH  21  24
ENDBRANCH  20  21
ENDBRANCH  16  20
ENDBRANCH   1  13
BRANCH   5  26
ATOM     26  O   UNL     1       7.718   4.924  24.421  0.00  0.00    -0.506 OA
ATOM     27  H   UNL     1       7.602   5.411  23.574  0.00  0.00    +0.292 HD
ENDBRANCH   5  26
BRANCH   7  28
ATOM     28  O   UNL     1      12.225   3.748  23.276  0.00  0.00    -0.325 OA
BRANCH  28  29
ATOM     29  S   UNL     1      12.782   5.280  23.304  0.00  0.00    +0.251 S 
ATOM     30  O   UNL     1      12.541   5.864  24.603  0.00  0.00    -0.108 OA
ATOM     31  O   UNL     1      12.383   5.942  22.079  0.00  0.00    -0.108 OA
BRANCH  29  32
ATOM     32  O   UNL     1      14.375   5.081  23.158  0.00  0.00    -0.222 OA
ATOM     33  H   UNL     1      14.776   5.307  24.024  0.00  0.00    +0.248 HD
ENDBRANCH  29  32
ENDBRANCH  28  29
ENDBRANCH   7  28
BRANCH  11  34
ATOM     34  O   UNL     1       5.515   0.286  25.053  0.00  0.00    -0.317 OA
BRANCH  34  35
ATOM     35  S   UNL     1       4.806  -0.099  26.454  0.00  0.00    +0.252 S 
ATOM     36  O   UNL     1       5.119  -1.460  26.818  0.00  0.00    -0.108 OA
ATOM     37  O   UNL     1       3.447   0.401  26.417  0.00  0.00    -0.108 OA
BRANCH  35  38
ATOM     38  O   UNL     1       5.559   0.861  27.510  0.00  0.00    -0.222 OA
ATOM     39  H   UNL     1       6.220   0.321  27.988  0.00  0.00    +0.248 HD
ENDBRANCH  35  38
ENDBRANCH  34  35
ENDBRANCH  11  34
TORSDOF 12
ENDMDL
MODEL 4
REMARK VINA RESULT:      -6.7      1.231      1.884
REMARK  Name = 
REMARK  12 active torsions:
REMARK  status: ('A' for Active; 'I' for Inactive)
REMARK    1  A    between atoms: C_3  and  O_30
REMARK    2  A    between atoms: C_4  and  O_29
REMARK    3  A    between atoms: C_6  and  C_7
REMARK    4  A    between atoms: C_8  and  O_24
REMARK    5  A    between atoms: C_12  and  O_23
REMARK    6  A    between atoms: C_14  and  O_18
REMARK    7  A    between atoms: O_18  and  S_19
REMARK    8  A    between atoms: S_19  and  O_22
REMARK    9  A    between atoms: O_24  and  S_25
REMARK   10  A    between atoms: S_25  and  O_28
REMARK   11  A    between atoms: O_30  and  S_31
REMARK   12  A    between atoms: S_31  and  O_34
REMARK                            x       y       z     vdW  Elec       q    Type
REMARK                         _______ _______ _______ _____ _____    ______ ____
ROOT
ATOM      1  C   UNL     1       7.016  -2.896  23.486  0.00  0.00    +0.184 A 
ATOM      2  O   UNL     1       6.468  -1.664  23.125  0.00  0.00    -0.451 OA
ATOM      3  C   UNL     1       7.270  -0.559  23.046  0.00  0.00    +0.147 A 
ATOM      4  C   UNL     1       8.643  -0.627  23.217  0.00  0.00    +0.109 A 
ATOM      5  C   UNL     1       9.416   0.533  23.101  0.00  0.00    +0.135 A 
ATOM      6  C   UNL     1       8.817   1.762  22.821  0.00  0.00    +0.095 A 
ATOM      7  C   UNL     1       7.436   1.830  22.637  0.00  0.00    +0.166 A 
ATOM      8  C   UNL     1       9.238  -1.927  23.537  0.00  0.00    +0.241 A 
ATOM      9  O   UNL     1      10.457  -2.025  23.653  0.00  0.00    -0.283 OA
ATOM     10  C   UNL     1       6.661   0.670  22.766  0.00  0.00    +0.096 A 
ATOM     11  C   UNL     1       8.333  -3.094  23.720  0.00  0.00    +0.248 A 
ENDROOT
BRANCH   1  13
ATOM     12  C   UNL     1       6.062  -5.034  22.714  0.00  0.00    +0.015 A 
ATOM     13  C   UNL     1       5.941  -3.904  23.539  0.00  0.00    +0.025 A 
ATOM     14  C   UNL     1       4.726  -3.672  24.191  0.00  0.00    +0.061 A 
ATOM     15  C   UNL     1       3.637  -4.511  23.937  0.00  0.00    +0.162 A 
ATOM     16  C   UNL     1       3.729  -5.564  23.022  0.00  0.00    +0.200 A 
ATOM     17  C   UNL     1       4.965  -5.862  22.458  0.00  0.00    +0.053 A 
BRANCH  15  18
ATOM     18  O   UNL     1       2.459  -4.240  24.579  0.00  0.00    -0.503 OA
ATOM     19  H   UNL     1       2.104  -3.419  24.192  0.00  0.00    +0.292 HD
ENDBRANCH  15  18
BRANCH  16  20
ATOM     20  O   UNL     1       2.573  -6.241  22.716  0.00  0.00    -0.321 OA
BRANCH  20  21
ATOM     21  S   UNL     1       2.040  -7.434  23.699  0.00  0.00    +0.251 S 
ATOM     22  O   UNL     1       0.879  -6.971  24.426  0.00  0.00    -0.108 OA
ATOM     23  O   UNL     1       3.166  -8.047  24.372  0.00  0.00    -0.108 OA
BRANCH  21  24
ATOM     24  O   UNL     1       1.536  -8.558  22.660  0.00  0.00    -0.222 OA
ATOM     25  H   UNL     1       1.360  -8.104  21.809  0.00  0.00    +0.248 HD
ENDBRANCH  21  24
ENDBRANCH  20  21
ENDBRANCH  16  20
ENDBRANCH   1  13
BRANCH   5  26
ATOM     26  O   UNL     1      10.775   0.539  23.254  0.00  0.00    -0.506 OA
ATOM     27  H   UNL     1      11.058  -0.353  23.559  0.00  0.00    +0.292 HD
ENDBRANCH   5  26
BRANCH   7  28
ATOM     28  O   UNL     1       6.747   2.983  22.353  0.00  0.00    -0.325 OA
BRANCH  28  29
ATOM     29  S   UNL     1       6.200   3.970  23.530  0.00  0.00    +0.251 S 
ATOM     30  O   UNL     1       6.400   5.348  23.145  0.00  0.00    -0.108 OA
ATOM     31  O   UNL     1       6.645   3.458  24.810  0.00  0.00    -0.108 OA
BRANCH  29  32
ATOM     32  O   UNL     1       4.611   3.696  23.513  0.00  0.00    -0.222 OA
ATOM     33  H   UNL     1       4.484   2.739  23.342  0.00  0.00    +0.248 HD
ENDBRANCH  29  32
ENDBRANCH  28  29
ENDBRANCH   7  28
BRANCH  11  34
ATOM     34  O   UNL     1       8.969  -4.214  24.206  0.00  0.00    -0.317 OA
BRANCH  34  35
ATOM     35  S   UNL     1       8.879  -4.781  25.717  0.00  0.00    +0.252 S 
ATOM     36  O   UNL     1       7.872  -5.812  25.808  0.00  0.00    -0.108 OA
ATOM     37  O   UNL     1       8.914  -3.649  26.620  0.00  0.00    -0.108 OA
BRANCH  35  38
ATOM     38  O   UNL     1      10.311  -5.498  25.915  0.00  0.00    -0.222 OA
ATOM     39  H   UNL     1      10.535  -5.465  26.866  0.00  0.00    +0.248 HD
ENDBRANCH  35  38
ENDBRANCH  34  35
ENDBRANCH  11  34
TORSDOF 12
ENDMDL
MODEL 5
REMARK VINA RESULT:      -6.6      2.233      8.013
REMARK  Name = 
REMARK  12 active torsions:
REMARK  status: ('A' for Active; 'I' for Inactive)
REMARK    1  A    between atoms: C_3  and  O_30
REMARK    2  A    between atoms: C_4  and  O_29
REMARK    3  A    between atoms: C_6  and  C_7
REMARK    4  A    between atoms: C_8  and  O_24
REMARK    5  A    between atoms: C_12  and  O_23
REMARK    6  A    between atoms: C_14  and  O_18
REMARK    7  A    between atoms: O_18  and  S_19
REMARK    8  A    between atoms: S_19  and  O_22
REMARK    9  A    between atoms: O_24  and  S_25
REMARK   10  A    between atoms: S_25  and  O_28
REMARK   11  A    between atoms: O_30  and  S_31
REMARK   12  A    between atoms: S_31  and  O_34
REMARK                            x       y       z     vdW  Elec       q    Type
REMARK                         _______ _______ _______ _____ _____    ______ ____
ROOT
ATOM      1  C   UNL     1       7.003  -0.799  23.603  0.00  0.00    +0.184 A 
ATOM      2  O   UNL     1       5.905  -1.638  23.406  0.00  0.00    -0.451 OA
ATOM      3  C   UNL     1       6.096  -2.984  23.252  0.00  0.00    +0.147 A 
ATOM      4  C   UNL     1       7.342  -3.574  23.381  0.00  0.00    +0.109 A 
ATOM      5  C   UNL     1       7.474  -4.959  23.236  0.00  0.00    +0.135 A 
ATOM      6  C   UNL     1       6.362  -5.754  22.956  0.00  0.00    +0.095 A 
ATOM      7  C   UNL     1       5.104  -5.162  22.837  0.00  0.00    +0.166 A 
ATOM      8  C   UNL     1       8.494  -2.709  23.648  0.00  0.00    +0.241 A 
ATOM      9  O   UNL     1       9.605  -3.208  23.809  0.00  0.00    -0.283 OA
ATOM     10  C   UNL     1       4.975  -3.773  22.969  0.00  0.00    +0.096 A 
ATOM     11  C   UNL     1       8.277  -1.238  23.708  0.00  0.00    +0.248 A 
ENDROOT
BRANCH   1  13
ATOM     12  C   UNL     1       5.702   0.936  24.777  0.00  0.00    +0.015 A 
ATOM     13  C   UNL     1       6.531   0.596  23.695  0.00  0.00    +0.025 A 
ATOM     14  C   UNL     1       6.686   1.511  22.649  0.00  0.00    +0.061 A 
ATOM     15  C   UNL     1       5.947   2.697  22.657  0.00  0.00    +0.162 A 
ATOM     16  C   UNL     1       5.032   2.977  23.678  0.00  0.00    +0.200 A 
ATOM     17  C   UNL     1       4.959   2.120  24.771  0.00  0.00    +0.053 A 
BRANCH  15  18
ATOM     18  O   UNL     1       6.111   3.559  21.607  0.00  0.00    -0.503 OA
ATOM     19  H   UNL     1       6.382   3.026  20.837  0.00  0.00    +0.292 HD
ENDBRANCH  15  18
BRANCH  16  20
ATOM     20  O   UNL     1       4.236   4.087  23.529  0.00  0.00    -0.321 OA
BRANCH  20  21
ATOM     21  S   UNL     1       2.781   3.957  22.795  0.00  0.00    +0.251 S 
ATOM     22  O   UNL     1       1.996   2.946  23.467  0.00  0.00    -0.108 OA
ATOM     23  O   UNL     1       2.960   3.953  21.359  0.00  0.00    -0.108 OA
BRANCH  21  24
ATOM     24  O   UNL     1       2.092   5.380  23.107  0.00  0.00    -0.222 OA
ATOM     25  H   UNL     1       1.158   5.201  23.344  0.00  0.00    +0.248 HD
ENDBRANCH  21  24
ENDBRANCH  20  21
ENDBRANCH  16  20
ENDBRANCH   1  13
BRANCH   5  26
ATOM     26  O   UNL     1       8.672  -5.609  23.354  0.00  0.00    -0.506 OA
ATOM     27  H   UNL     1       8.774  -5.906  24.287  0.00  0.00    +0.292 HD
ENDBRANCH   5  26
BRANCH   7  28
ATOM     28  O   UNL     1       3.946  -5.849  22.570  0.00  0.00    -0.325 OA
BRANCH  28  29
ATOM     29  S   UNL     1       3.029  -6.485  23.758  0.00  0.00    +0.251 S 
ATOM     30  O   UNL     1       1.727  -6.832  23.238  0.00  0.00    -0.108 OA
ATOM     31  O   UNL     1       3.188  -5.677  24.951  0.00  0.00    -0.108 OA
BRANCH  29  32
ATOM     32  O   UNL     1       3.791  -7.863  24.097  0.00  0.00    -0.222 OA
ATOM     33  H   UNL     1       3.186  -8.401  24.649  0.00  0.00    +0.248 HD
ENDBRANCH  29  32
ENDBRANCH  28  29
ENDBRANCH   7  28
BRANCH  11  34
ATOM     34  O   UNL     1       9.444  -0.510  23.769  0.00  0.00    -0.317 OA
BRANCH  34  35
ATOM     35  S   UNL     1      10.044   0.220  25.081  0.00  0.00    +0.252 S 
ATOM     36  O   UNL     1      11.461   0.445  24.925  0.00  0.00    -0.108 OA
ATOM     37  O   UNL     1       9.486  -0.433  26.248  0.00  0.00    -0.108 OA
BRANCH  35  38
ATOM     38  O   UNL     1       9.326   1.664  25.046  0.00  0.00    -0.222 OA
ATOM     39  H   UNL     1       9.148   1.889  24.111  0.00  0.00    +0.248 HD
ENDBRANCH  35  38
ENDBRANCH  34  35
ENDBRANCH  11  34
TORSDOF 12
ENDMDL
MODEL 6
REMARK VINA RESULT:      -6.4      1.832      2.512
REMARK  Name = 
REMARK  12 active torsions:
REMARK  status: ('A' for Active; 'I' for Inactive)
REMARK    1  A    between atoms: C_3  and  O_30
REMARK    2  A    between atoms: C_4  and  O_29
REMARK    3  A    between atoms: C_6  and  C_7
REMARK    4  A    between atoms: C_8  and  O_24
REMARK    5  A    between atoms: C_12  and  O_23
REMARK    6  A    between atoms: C_14  and  O_18
REMARK    7  A    between atoms: O_18  and  S_19
REMARK    8  A    between atoms: S_19  and  O_22
REMARK    9  A    between atoms: O_24  and  S_25
REMARK   10  A    between atoms: S_25  and  O_28
REMARK   11  A    between atoms: O_30  and  S_31
REMARK   12  A    between atoms: S_31  and  O_34
REMARK                            x       y       z     vdW  Elec       q    Type
REMARK                         _______ _______ _______ _____ _____    ______ ____
ROOT
ATOM      1  C   UNL     1       6.234  -1.083  24.323  0.00  0.00    +0.184 A 
ATOM      2  O   UNL     1       5.790   0.227  24.514  0.00  0.00    -0.451 OA
ATOM      3  C   UNL     1       6.420   1.259  23.875  0.00  0.00    +0.147 A 
ATOM      4  C   UNL     1       7.435   1.052  22.956  0.00  0.00    +0.109 A 
ATOM      5  C   UNL     1       8.027   2.145  22.315  0.00  0.00    +0.135 A 
ATOM      6  C   UNL     1       7.610   3.446  22.598  0.00  0.00    +0.095 A 
ATOM      7  C   UNL     1       6.580   3.656  23.515  0.00  0.00    +0.166 A 
ATOM      8  C   UNL     1       7.869  -0.324  22.702  0.00  0.00    +0.241 A 
ATOM      9  O   UNL     1       8.738  -0.543  21.861  0.00  0.00    -0.283 OA
ATOM     10  C   UNL     1       5.996   2.561  24.165  0.00  0.00    +0.096 A 
ATOM     11  C   UNL     1       7.240  -1.422  23.486  0.00  0.00    +0.248 A 
ENDROOT
BRANCH   1  13
ATOM     12  C   UNL     1       5.605  -1.953  26.542  0.00  0.00    +0.015 A 
ATOM     13  C   UNL     1       5.420  -1.992  25.151  0.00  0.00    +0.025 A 
ATOM     14  C   UNL     1       4.658  -3.028  24.600  0.00  0.00    +0.061 A 
ATOM     15  C   UNL     1       4.177  -4.045  25.429  0.00  0.00    +0.162 A 
ATOM     16  C   UNL     1       4.465  -4.065  26.798  0.00  0.00    +0.200 A 
ATOM     17  C   UNL     1       5.128  -2.980  27.362  0.00  0.00    +0.053 A 
BRANCH  15  18
ATOM     18  O   UNL     1       3.451  -5.051  24.850  0.00  0.00    -0.503 OA
ATOM     19  H   UNL     1       2.970  -5.505  25.566  0.00  0.00    +0.292 HD
ENDBRANCH  15  18
BRANCH  16  20
ATOM     20  O   UNL     1       4.087  -5.177  27.509  0.00  0.00    -0.321 OA
BRANCH  20  21
ATOM     21  S   UNL     1       4.932  -6.569  27.361  0.00  0.00    +0.251 S 
ATOM     22  O   UNL     1       5.050  -7.196  28.658  0.00  0.00    -0.108 OA
ATOM     23  O   UNL     1       6.084  -6.348  26.513  0.00  0.00    -0.108 OA
BRANCH  21  24
ATOM     24  O   UNL     1       3.954  -7.491  26.471  0.00  0.00    -0.222 OA
ATOM     25  H   UNL     1       4.526  -8.055  25.908  0.00  0.00    +0.248 HD
ENDBRANCH  21  24
ENDBRANCH  20  21
ENDBRANCH  16  20
ENDBRANCH   1  13
BRANCH   5  26
ATOM     26  O   UNL     1       9.031   2.014  21.395  0.00  0.00    -0.506 OA
ATOM     27  H   UNL     1       9.491   2.880  21.312  0.00  0.00    +0.292 HD
ENDBRANCH   5  26
BRANCH   7  28
ATOM     28  O   UNL     1       6.089   4.890  23.861  0.00  0.00    -0.325 OA
BRANCH  28  29
ATOM     29  S   UNL     1       4.928   5.631  22.988  0.00  0.00    +0.251 S 
ATOM     30  O   UNL     1       4.370   6.727  23.746  0.00  0.00    -0.108 OA
ATOM     31  O   UNL     1       4.093   4.619  22.373  0.00  0.00    -0.108 OA
BRANCH  29  32
ATOM     32  O   UNL     1       5.758   6.271  21.764  0.00  0.00    -0.222 OA
ATOM     33  H   UNL     1       5.968   5.542  21.143  0.00  0.00    +0.248 HD
ENDBRANCH  29  32
ENDBRANCH  28  29
ENDBRANCH   7  28
BRANCH  11  34
ATOM     34  O   UNL     1       7.850  -2.644  23.312  0.00  0.00    -0.317 OA
BRANCH  34  35
ATOM     35  S   UNL     1       8.996  -3.279  24.259  0.00  0.00    +0.252 S 
ATOM     36  O   UNL     1       8.995  -4.719  24.152  0.00  0.00    -0.108 OA
ATOM     37  O   UNL     1       8.948  -2.596  25.536  0.00  0.00    -0.108 OA
BRANCH  35  38
ATOM     38  O   UNL     1      10.358  -2.753  23.572  0.00  0.00    -0.222 OA
ATOM     39  H   UNL     1      10.146  -2.474  22.660  0.00  0.00    +0.248 HD
ENDBRANCH  35  38
ENDBRANCH  34  35
ENDBRANCH  11  34
TORSDOF 12
ENDMDL
MODEL 7
REMARK VINA RESULT:      -6.4      3.191      5.118
REMARK  Name = 
REMARK  12 active torsions:
REMARK  status: ('A' for Active; 'I' for Inactive)
REMARK    1  A    between atoms: C_3  and  O_30
REMARK    2  A    between atoms: C_4  and  O_29
REMARK    3  A    between atoms: C_6  and  C_7
REMARK    4  A    between atoms: C_8  and  O_24
REMARK    5  A    between atoms: C_12  and  O_23
REMARK    6  A    between atoms: C_14  and  O_18
REMARK    7  A    between atoms: O_18  and  S_19
REMARK    8  A    between atoms: S_19  and  O_22
REMARK    9  A    between atoms: O_24  and  S_25
REMARK   10  A    between atoms: S_25  and  O_28
REMARK   11  A    between atoms: O_30  and  S_31
REMARK   12  A    between atoms: S_31  and  O_34
REMARK                            x       y       z     vdW  Elec       q    Type
REMARK                         _______ _______ _______ _____ _____    ______ ____
ROOT
ATOM      1  C   UNL     1       8.290   0.447  24.612  0.00  0.00    +0.184 A 
ATOM      2  O   UNL     1       9.183   1.285  23.943  0.00  0.00    -0.451 OA
ATOM      3  C   UNL     1       9.228   2.617  24.251  0.00  0.00    +0.147 A 
ATOM      4  C   UNL     1       8.481   3.163  25.282  0.00  0.00    +0.109 A 
ATOM      5  C   UNL     1       8.584   4.528  25.567  0.00  0.00    +0.135 A 
ATOM      6  C   UNL     1       9.428   5.350  24.818  0.00  0.00    +0.095 A 
ATOM      7  C   UNL     1      10.189   4.799  23.786  0.00  0.00    +0.166 A 
ATOM      8  C   UNL     1       7.585   2.280  26.032  0.00  0.00    +0.241 A 
ATOM      9  O   UNL     1       6.942   2.727  26.978  0.00  0.00    -0.283 OA
ATOM     10  C   UNL     1      10.075   3.434  23.493  0.00  0.00    +0.096 A 
ATOM     11  C   UNL     1       7.476   0.856  25.610  0.00  0.00    +0.248 A 
ENDROOT
BRANCH   1  13
ATOM     12  C   UNL     1       8.097  -1.114  22.712  0.00  0.00    +0.015 A 
ATOM     13  C   UNL     1       8.412  -0.919  24.067  0.00  0.00    +0.025 A 
ATOM     14  C   UNL     1       8.602  -2.038  24.883  0.00  0.00    +0.061 A 
ATOM     15  C   UNL     1       8.386  -3.316  24.361  0.00  0.00    +0.162 A 
ATOM     16  C   UNL     1       7.955  -3.499  23.043  0.00  0.00    +0.200 A 
ATOM     17  C   UNL     1       7.873  -2.395  22.201  0.00  0.00    +0.053 A 
BRANCH  15  18
ATOM     18  O   UNL     1       8.563  -4.386  25.196  0.00  0.00    -0.503 OA
ATOM     19  H   UNL     1       7.825  -4.378  25.833  0.00  0.00    +0.292 HD
ENDBRANCH  15  18
BRANCH  16  20
ATOM     20  O   UNL     1       7.618  -4.774  22.658  0.00  0.00    -0.321 OA
BRANCH  20  21
ATOM     21  S   UNL     1       6.087  -5.311  22.860  0.00  0.00    +0.251 S 
ATOM     22  O   UNL     1       5.178  -4.447  22.140  0.00  0.00    -0.108 OA
ATOM     23  O   UNL     1       5.873  -5.653  24.250  0.00  0.00    -0.108 OA
BRANCH  21  24
ATOM     24  O   UNL     1       6.099  -6.731  22.098  0.00  0.00    -0.222 OA
ATOM     25  H   UNL     1       5.164  -6.999  21.976  0.00  0.00    +0.248 HD
ENDBRANCH  21  24
ENDBRANCH  20  21
ENDBRANCH  16  20
ENDBRANCH   1  13
BRANCH   5  26
ATOM     26  O   UNL     1       7.881   5.134  26.572  0.00  0.00    -0.506 OA
ATOM     27  H   UNL     1       6.921   5.054  26.371  0.00  0.00    +0.292 HD
ENDBRANCH   5  26
BRANCH   7  28
ATOM     28  O   UNL     1      11.052   5.512  22.994  0.00  0.00    -0.325 OA
BRANCH  28  29
ATOM     29  S   UNL     1      12.620   5.715  23.393  0.00  0.00    +0.251 S 
ATOM     30  O   UNL     1      12.717   6.429  24.645  0.00  0.00    -0.108 OA
ATOM     31  O   UNL     1      13.350   6.132  22.213  0.00  0.00    -0.108 OA
BRANCH  29  32
ATOM     32  O   UNL     1      13.115   4.206  23.665  0.00  0.00    -0.222 OA
ATOM     33  H   UNL     1      13.006   4.033  24.623  0.00  0.00    +0.248 HD
ENDBRANCH  29  32
ENDBRANCH  28  29
ENDBRANCH   7  28
BRANCH  11  34
ATOM     34  O   UNL     1       6.471   0.166  26.249  0.00  0.00    -0.317 OA
BRANCH  34  35
ATOM     35  S   UNL     1       4.996  -0.132  25.659  0.00  0.00    +0.252 S 
ATOM     36  O   UNL     1       3.991   0.137  26.660  0.00  0.00    -0.108 OA
ATOM     37  O   UNL     1       5.052  -1.383  24.932  0.00  0.00    -0.108 OA
BRANCH  35  38
ATOM     38  O   UNL     1       4.837   0.992  24.512  0.00  0.00    -0.222 OA
ATOM     39  H   UNL     1       4.669   1.849  24.952  0.00  0.00    +0.248 HD
ENDBRANCH  35  38
ENDBRANCH  34  35
ENDBRANCH  11  34
TORSDOF 12
ENDMDL
MODEL 8
REMARK VINA RESULT:      -6.4      2.838      8.646
REMARK  Name = 
REMARK  12 active torsions:
REMARK  status: ('A' for Active; 'I' for Inactive)
REMARK    1  A    between atoms: C_3  and  O_30
REMARK    2  A    between atoms: C_4  and  O_29
REMARK    3  A    between atoms: C_6  and  C_7
REMARK    4  A    between atoms: C_8  and  O_24
REMARK    5  A    between atoms: C_12  and  O_23
REMARK    6  A    between atoms: C_14  and  O_18
REMARK    7  A    between atoms: O_18  and  S_19
REMARK    8  A    between atoms: S_19  and  O_22
REMARK    9  A    between atoms: O_24  and  S_25
REMARK   10  A    between atoms: S_25  and  O_28
REMARK   11  A    between atoms: O_30  and  S_31
REMARK   12  A    between atoms: S_31  and  O_34
REMARK                            x       y       z     vdW  Elec       q    Type
REMARK                         _______ _______ _______ _____ _____    ______ ____
ROOT
ATOM      1  C   UNL     1       8.207  -0.554  25.253  0.00  0.00    +0.184 A 
ATOM      2  O   UNL     1       7.579  -1.403  26.165  0.00  0.00    -0.451 OA
ATOM      3  C   UNL     1       7.881  -2.737  26.173  0.00  0.00    +0.147 A 
ATOM      4  C   UNL     1       8.869  -3.277  25.367  0.00  0.00    +0.109 A 
ATOM      5  C   UNL     1       9.151  -4.645  25.434  0.00  0.00    +0.135 A 
ATOM      6  C   UNL     1       8.440  -5.476  26.302  0.00  0.00    +0.095 A 
ATOM      7  C   UNL     1       7.452  -4.931  27.123  0.00  0.00    +0.166 A 
ATOM      8  C   UNL     1       9.578  -2.383  24.447  0.00  0.00    +0.241 A 
ATOM      9  O   UNL     1      10.488  -2.826  23.750  0.00  0.00    -0.283 OA
ATOM     10  C   UNL     1       7.162  -3.563  27.045  0.00  0.00    +0.096 A 
ATOM     11  C   UNL     1       9.160  -0.956  24.383  0.00  0.00    +0.248 A 
ENDROOT
BRANCH   1  13
ATOM     12  C   UNL     1       6.285   0.968  25.513  0.00  0.00    +0.015 A 
ATOM     13  C   UNL     1       7.677   0.812  25.423  0.00  0.00    +0.025 A 
ATOM     14  C   UNL     1       8.476   1.951  25.271  0.00  0.00    +0.061 A 
ATOM     15  C   UNL     1       7.870   3.201  25.121  0.00  0.00    +0.162 A 
ATOM     16  C   UNL     1       6.478   3.336  25.090  0.00  0.00    +0.200 A 
ATOM     17  C   UNL     1       5.687   2.222  25.352  0.00  0.00    +0.053 A 
BRANCH  15  18
ATOM     18  O   UNL     1       8.684   4.289  24.954  0.00  0.00    -0.503 OA
ATOM     19  H   UNL     1       9.541   4.071  25.363  0.00  0.00    +0.292 HD
ENDBRANCH  15  18
BRANCH  16  20
ATOM     20  O   UNL     1       5.967   4.574  24.784  0.00  0.00    -0.321 OA
BRANCH  20  21
ATOM     21  S   UNL     1       5.734   4.998  23.222  0.00  0.00    +0.251 S 
ATOM     22  O   UNL     1       4.637   5.936  23.141  0.00  0.00    -0.108 OA
ATOM     23  O   UNL     1       5.791   3.818  22.386  0.00  0.00    -0.108 OA
BRANCH  21  24
ATOM     24  O   UNL     1       7.081   5.806  22.863  0.00  0.00    -0.222 OA
ATOM     25  H   UNL     1       6.808   6.631  22.407  0.00  0.00    +0.248 HD
ENDBRANCH  21  24
ENDBRANCH  20  21
ENDBRANCH  16  20
ENDBRANCH   1  13
BRANCH   5  26
ATOM     26  O   UNL     1      10.115  -5.245  24.671  0.00  0.00    -0.506 OA
ATOM     27  H   UNL     1      10.954  -4.742  24.778  0.00  0.00    +0.292 HD
ENDBRANCH   5  26
BRANCH   7  28
ATOM     28  O   UNL     1       6.699  -5.654  28.014  0.00  0.00    -0.325 OA
BRANCH  28  29
ATOM     29  S   UNL     1       5.270  -6.317  27.594  0.00  0.00    +0.251 S 
ATOM     30  O   UNL     1       5.334  -6.799  26.234  0.00  0.00    -0.108 OA
ATOM     31  O   UNL     1       4.204  -5.448  28.051  0.00  0.00    -0.108 OA
BRANCH  29  32
ATOM     32  O   UNL     1       5.181  -7.608  28.555  0.00  0.00    -0.222 OA
ATOM     33  H   UNL     1       5.936  -7.558  29.177  0.00  0.00    +0.248 HD
ENDBRANCH  29  32
ENDBRANCH  28  29
ENDBRANCH   7  28
BRANCH  11  34
ATOM     34  O   UNL     1       9.752  -0.254  23.357  0.00  0.00    -0.317 OA
BRANCH  34  35
ATOM     35  S   UNL     1       9.108   0.030  21.902  0.00  0.00    +0.252 S 
ATOM     36  O   UNL     1       9.198  -1.150  21.074  0.00  0.00    -0.108 OA
ATOM     37  O   UNL     1       9.572   1.328  21.455  0.00  0.00    -0.108 OA
BRANCH  35  38
ATOM     38  O   UNL     1       7.547   0.255  22.240  0.00  0.00    -0.222 OA
ATOM     39  H   UNL     1       7.463   0.379  23.206  0.00  0.00    +0.248 HD
ENDBRANCH  35  38
ENDBRANCH  34  35
ENDBRANCH  11  34
TORSDOF 12
ENDMDL
MODEL 9
REMARK VINA RESULT:      -6.1      1.970      2.660
REMARK  Name = 
REMARK  12 active torsions:
REMARK  status: ('A' for Active; 'I' for Inactive)
REMARK    1  A    between atoms: C_3  and  O_30
REMARK    2  A    between atoms: C_4  and  O_29
REMARK    3  A    between atoms: C_6  and  C_7
REMARK    4  A    between atoms: C_8  and  O_24
REMARK    5  A    between atoms: C_12  and  O_23
REMARK    6  A    between atoms: C_14  and  O_18
REMARK    7  A    between atoms: O_18  and  S_19
REMARK    8  A    between atoms: S_19  and  O_22
REMARK    9  A    between atoms: O_24  and  S_25
REMARK   10  A    between atoms: S_25  and  O_28
REMARK   11  A    between atoms: O_30  and  S_31
REMARK   12  A    between atoms: S_31  and  O_34
REMARK                            x       y       z     vdW  Elec       q    Type
REMARK                         _______ _______ _______ _____ _____    ______ ____
ROOT
ATOM      1  C   UNL     1       6.616  -2.555  24.300  0.00  0.00    +0.184 A 
ATOM      2  O   UNL     1       6.764  -1.268  24.819  0.00  0.00    -0.451 OA
ATOM      3  C   UNL     1       7.704  -0.425  24.292  0.00  0.00    +0.147 A 
ATOM      4  C   UNL     1       8.464  -0.765  23.184  0.00  0.00    +0.109 A 
ATOM      5  C   UNL     1       9.395   0.146  22.674  0.00  0.00    +0.135 A 
ATOM      6  C   UNL     1       9.572   1.394  23.275  0.00  0.00    +0.095 A 
ATOM      7  C   UNL     1       8.799   1.741  24.383  0.00  0.00    +0.166 A 
ATOM      8  C   UNL     1       8.274  -2.092  22.594  0.00  0.00    +0.241 A 
ATOM      9  O   UNL     1       8.903  -2.405  21.586  0.00  0.00    -0.283 OA
ATOM     10  C   UNL     1       7.876   0.823  24.901  0.00  0.00    +0.096 A 
ATOM     11  C   UNL     1       7.320  -3.029  23.248  0.00  0.00    +0.248 A 
ENDROOT
BRANCH   1  13
ATOM     12  C   UNL     1       5.969  -4.364  25.846  0.00  0.00    +0.015 A 
ATOM     13  C   UNL     1       5.574  -3.265  25.066  0.00  0.00    +0.025 A 
ATOM     14  C   UNL     1       4.209  -3.034  24.868  0.00  0.00    +0.061 A 
ATOM     15  C   UNL     1       3.276  -3.946  25.370  0.00  0.00    +0.162 A 
ATOM     16  C   UNL     1       3.681  -5.103  26.043  0.00  0.00    +0.200 A 
ATOM     17  C   UNL     1       5.030  -5.276  26.336  0.00  0.00    +0.053 A 
BRANCH  15  18
ATOM     18  O   UNL     1       1.950  -3.696  25.139  0.00  0.00    -0.503 OA
ATOM     19  H   UNL     1       1.608  -4.436  24.605  0.00  0.00    +0.292 HD
ENDBRANCH  15  18
BRANCH  16  20
ATOM     20  O   UNL     1       2.711  -6.021  26.366  0.00  0.00    -0.321 OA
BRANCH  20  21
ATOM     21  S   UNL     1       2.217  -7.113  25.255  0.00  0.00    +0.251 S 
ATOM     22  O   UNL     1       2.529  -6.622  23.931  0.00  0.00    -0.108 OA
ATOM     23  O   UNL     1       0.895  -7.591  25.598  0.00  0.00    -0.108 OA
BRANCH  21  24
ATOM     24  O   UNL     1       3.181  -8.373  25.535  0.00  0.00    -0.222 OA
ATOM     25  H   UNL     1       2.866  -8.797  26.362  0.00  0.00    +0.248 HD
ENDBRANCH  21  24
ENDBRANCH  20  21
ENDBRANCH  16  20
ENDBRANCH   1  13
BRANCH   5  26
ATOM     26  O   UNL     1      10.175  -0.120  21.583  0.00  0.00    -0.506 OA
ATOM     27  H   UNL     1      10.560  -1.020  21.688  0.00  0.00    +0.292 HD
ENDBRANCH   5  26
BRANCH   7  28
ATOM     28  O   UNL     1       8.888   2.940  25.045  0.00  0.00    -0.325 OA
BRANCH  28  29
ATOM     29  S   UNL     1       8.524   4.353  24.318  0.00  0.00    +0.251 S 
ATOM     30  O   UNL     1       8.482   5.412  25.299  0.00  0.00    -0.108 OA
ATOM     31  O   UNL     1       7.439   4.129  23.384  0.00  0.00    -0.108 OA
BRANCH  29  32
ATOM     32  O   UNL     1       9.813   4.615  23.386  0.00  0.00    -0.222 OA
ATOM     33  H   UNL     1       9.526   5.196  22.651  0.00  0.00    +0.248 HD
ENDBRANCH  29  32
ENDBRANCH  28  29
ENDBRANCH   7  28
BRANCH  11  34
ATOM     34  O   UNL     1       7.360  -4.305  22.734  0.00  0.00    -0.317 OA
BRANCH  34  35
ATOM     35  S   UNL     1       6.303  -4.947  21.693  0.00  0.00    +0.252 S 
ATOM     36  O   UNL     1       6.929  -5.996  20.924  0.00  0.00    -0.108 OA
ATOM     37  O   UNL     1       5.573  -3.860  21.072  0.00  0.00    -0.108 OA
BRANCH  35  38
ATOM     38  O   UNL     1       5.225  -5.650  22.666  0.00  0.00    -0.222 OA
ATOM     39  H   UNL     1       5.686  -6.352  23.167  0.00  0.00    +0.248 HD
ENDBRANCH  35  38
ENDBRANCH  34  35
ENDBRANCH  11  34
TORSDOF 12
ENDMDL
