MODEL 1
REMARK VINA RESULT:      -7.1      0.000      0.000
REMARK  Name = 
REMARK  15 active torsions:
REMARK  status: ('A' for Active; 'I' for Inactive)
REMARK    1  A    between atoms: C_3  and  O_46
REMARK    2  A    between atoms: C_6  and  C_7
REMARK    3  A    between atoms: C_7  and  C_8
REMARK    4  A    between atoms: C_9  and  O_29
REMARK    5  A    between atoms: C_13  and  O_14
REMARK    6  A    between atoms: C_17  and  O_28
REMARK    7  A    between atoms: C_18  and  C_20
REMARK    8  A    between atoms: C_22  and  O_27
REMARK    9  A    between atoms: C_23  and  O_26
REMARK   10  A    between atoms: O_29  and  C_30
REMARK   11  A    between atoms: C_32  and  O_45
REMARK   12  A    between atoms: C_34  and  O_44
REMARK   13  A    between atoms: C_36  and  O_43
REMARK   14  A    between atoms: C_38  and  C_41
REMARK   15  A    between atoms: C_41  and  O_42
REMARK                            x       y       z     vdW  Elec       q    Type
REMARK                         _______ _______ _______ _____ _____    ______ ____
ROOT
ATOM      1  C   UNL     1       8.796  -1.876  24.672  0.00  0.00    +0.041 A 
ATOM      2  C   UNL     1       8.589  -2.868  23.688  0.00  0.00    +0.138 A 
ATOM      3  C   UNL     1       7.538  -3.781  23.797  0.00  0.00    +0.109 A 
ATOM      4  C   UNL     1       7.292  -4.762  22.738  0.00  0.00    +0.238 A 
ATOM      5  C   UNL     1       6.057  -5.557  22.811  0.00  0.00    +0.208 A 
ATOM      6  C   UNL     1       5.307  -5.492  23.931  0.00  0.00    +0.181 A 
ATOM      7  O   UNL     1       5.639  -4.650  25.022  0.00  0.00    -0.451 OA
ATOM      8  O   UNL     1       8.042  -4.891  21.770  0.00  0.00    -0.283 OA
ATOM      9  C   UNL     1       6.691  -3.748  24.898  0.00  0.00    +0.147 A 
ATOM     10  C   UNL     1       6.897  -2.769  25.912  0.00  0.00    +0.093 A 
ATOM     11  C   UNL     1       7.922  -1.800  25.798  0.00  0.00    +0.134 A 
ENDROOT
BRANCH   6  12
ATOM     12  C   UNL     1       4.015  -6.237  24.048  0.00  0.00    +0.025 A 
ATOM     13  C   UNL     1       2.860  -5.748  23.397  0.00  0.00    +0.015 A 
ATOM     14  C   UNL     1       1.661  -6.471  23.398  0.00  0.00    +0.050 A 
ATOM     15  C   UNL     1       1.596  -7.690  24.050  0.00  0.00    +0.158 A 
ATOM     16  C   UNL     1       2.703  -8.171  24.734  0.00  0.00    +0.159 A 
ATOM     17  C   UNL     1       3.888  -7.451  24.761  0.00  0.00    +0.060 A 
BRANCH  15  18
ATOM     18  O   UNL     1       0.443  -8.420  24.000  0.00  0.00    -0.503 OA
ATOM     19  H   UNL     1      -0.274  -7.756  24.055  0.00  0.00    +0.292 HD
ENDBRANCH  15  18
BRANCH  16  20
ATOM     20  O   UNL     1       2.579  -9.398  25.341  0.00  0.00    -0.503 OA
ATOM     21  H   UNL     1       1.739  -9.413  25.833  0.00  0.00    +0.292 HD
ENDBRANCH  16  20
ENDBRANCH   6  12
BRANCH   2  22
ATOM     22  O   UNL     1       9.451  -2.902  22.615  0.00  0.00    -0.506 OA
ATOM     23  H   UNL     1       9.473  -3.811  22.240  0.00  0.00    +0.292 HD
ENDBRANCH   2  22
BRANCH   5  24
ATOM     24  O   UNL     1       5.756  -6.311  21.685  0.00  0.00    -0.501 OA
ATOM     25  H   UNL     1       5.540  -5.654  20.987  0.00  0.00    +0.292 HD
ENDBRANCH   5  24
BRANCH   1  26
ATOM     26  C   UNL     1       9.957  -0.911  24.475  0.00  0.00    +0.077 C 
BRANCH  26  28
ATOM     27  C   UNL     1      10.240   1.575  24.217  0.00  0.00    +0.007 A 
ATOM     28  C   UNL     1       9.681   0.380  23.725  0.00  0.00    -0.043 A 
ATOM     29  C   UNL     1       8.800   0.459  22.639  0.00  0.00    +0.007 A 
ATOM     30  C   UNL     1       8.407   1.698  22.131  0.00  0.00    +0.045 A 
ATOM     31  C   UNL     1       8.877   2.864  22.717  0.00  0.00    +0.117 A 
ATOM     32  C   UNL     1       9.829   2.817  23.726  0.00  0.00    +0.045 A 
BRANCH  31  33
ATOM     33  O   UNL     1       8.344   4.045  22.295  0.00  0.00    -0.507 OA
ATOM     34  H   UNL     1       7.591   4.259  22.872  0.00  0.00    +0.292 HD
ENDBRANCH  31  33
ENDBRANCH  26  28
ENDBRANCH   1  26
BRANCH  11  35
ATOM     35  O   UNL     1       8.223  -0.830  26.737  0.00  0.00    -0.460 OA
BRANCH  35  36
ATOM     36  C   UNL     1       7.323   0.269  27.113  0.00  0.00    +0.339 C 
ATOM     37  O   UNL     1       6.198  -0.291  27.796  0.00  0.00    -0.331 OA
ATOM     38  C   UNL     1       4.856   0.188  27.626  0.00  0.00    +0.179 C 
ATOM     39  C   UNL     1       4.519   1.111  26.439  0.00  0.00    +0.177 C 
ATOM     40  C   UNL     1       5.538   1.011  25.313  0.00  0.00    +0.180 C 
ATOM     41  C   UNL     1       6.988   1.101  25.829  0.00  0.00    +0.214 C 
BRANCH  39  42
ATOM     42  O   UNL     1       4.437   2.477  26.882  0.00  0.00    -0.386 OA
ATOM     43  H   UNL     1       4.799   2.501  27.789  0.00  0.00    +0.210 HD
ENDBRANCH  39  42
BRANCH  40  44
ATOM     44  O   UNL     1       5.330  -0.132  24.487  0.00  0.00    -0.386 OA
ATOM     45  H   UNL     1       4.770   0.120  23.720  0.00  0.00    +0.210 HD
ENDBRANCH  40  44
BRANCH  41  46
ATOM     46  O   UNL     1       7.333   2.488  26.080  0.00  0.00    -0.383 OA
ATOM     47  H   UNL     1       7.057   2.724  26.986  0.00  0.00    +0.210 HD
ENDBRANCH  41  46
BRANCH  38  48
ATOM     48  C   UNL     1       3.990  -1.083  27.506  0.00  0.00    +0.190 C 
BRANCH  48  49
ATOM     49  O   UNL     1       3.067  -0.945  26.421  0.00  0.00    -0.392 OA
ATOM     50  H   UNL     1       2.739  -0.021  26.467  0.00  0.00    +0.210 HD
ENDBRANCH  48  49
ENDBRANCH  38  48
ENDBRANCH  35  36
ENDBRANCH  11  35
TORSDOF 15
ENDMDL
MODEL 2
REMARK VINA RESULT:      -7.1      3.023      5.146
REMARK  Name = 
REMARK  15 active torsions:
REMARK  status: ('A' for Active; 'I' for Inactive)
REMARK    1  A    between atoms: C_3  and  O_46
REMARK    2  A    between atoms: C_6  and  C_7
REMARK    3  A    between atoms: C_7  and  C_8
REMARK    4  A    between atoms: C_9  and  O_29
REMARK    5  A    between atoms: C_13  and  O_14
REMARK    6  A    between atoms: C_17  and  O_28
REMARK    7  A    between atoms: C_18  and  C_20
REMARK    8  A    between atoms: C_22  and  O_27
REMARK    9  A    between atoms: C_23  and  O_26
REMARK   10  A    between atoms: O_29  and  C_30
REMARK   11  A    between atoms: C_32  and  O_45
REMARK   12  A    between atoms: C_34  and  O_44
REMARK   13  A    between atoms: C_36  and  O_43
REMARK   14  A    between atoms: C_38  and  C_41
REMARK   15  A    between atoms: C_41  and  O_42
REMARK                            x       y       z     vdW  Elec       q    Type
REMARK                         _______ _______ _______ _____ _____    ______ ____
ROOT
ATOM      1  C   UNL     1       8.570   1.982  23.504  0.00  0.00    +0.041 A 
ATOM      2  C   UNL     1       9.136   0.711  23.259  0.00  0.00    +0.138 A 
ATOM      3  C   UNL     1       8.692  -0.419  23.948  0.00  0.00    +0.109 A 
ATOM      4  C   UNL     1       9.239  -1.742  23.638  0.00  0.00    +0.238 A 
ATOM      5  C   UNL     1       8.592  -2.913  24.248  0.00  0.00    +0.208 A 
ATOM      6  C   UNL     1       7.660  -2.717  25.204  0.00  0.00    +0.181 A 
ATOM      7  O   UNL     1       7.246  -1.424  25.611  0.00  0.00    -0.451 OA
ATOM      8  O   UNL     1      10.165  -1.904  22.843  0.00  0.00    -0.283 OA
ATOM      9  C   UNL     1       7.700  -0.307  24.915  0.00  0.00    +0.147 A 
ATOM     10  C   UNL     1       7.132   0.969  25.192  0.00  0.00    +0.093 A 
ATOM     11  C   UNL     1       7.528   2.120  24.470  0.00  0.00    +0.134 A 
ENDROOT
BRANCH   6  12
ATOM     12  C   UNL     1       6.930  -3.865  25.829  0.00  0.00    +0.025 A 
ATOM     13  C   UNL     1       5.718  -4.318  25.261  0.00  0.00    +0.015 A 
ATOM     14  C   UNL     1       5.062  -5.452  25.755  0.00  0.00    +0.050 A 
ATOM     15  C   UNL     1       5.603  -6.148  26.822  0.00  0.00    +0.158 A 
ATOM     16  C   UNL     1       6.768  -5.697  27.424  0.00  0.00    +0.159 A 
ATOM     17  C   UNL     1       7.412  -4.560  26.960  0.00  0.00    +0.060 A 
BRANCH  15  18
ATOM     18  O   UNL     1       4.992  -7.286  27.263  0.00  0.00    -0.503 OA
ATOM     19  H   UNL     1       4.078  -7.227  26.919  0.00  0.00    +0.292 HD
ENDBRANCH  15  18
BRANCH  16  20
ATOM     20  O   UNL     1       7.265  -6.446  28.465  0.00  0.00    -0.503 OA
ATOM     21  H   UNL     1       7.908  -7.082  28.104  0.00  0.00    +0.292 HD
ENDBRANCH  16  20
ENDBRANCH   6  12
BRANCH   2  22
ATOM     22  O   UNL     1      10.133   0.621  22.314  0.00  0.00    -0.506 OA
ATOM     23  H   UNL     1      10.875   0.082  22.671  0.00  0.00    +0.292 HD
ENDBRANCH   2  22
BRANCH   5  24
ATOM     24  O   UNL     1       8.996  -4.149  23.762  0.00  0.00    -0.501 OA
ATOM     25  H   UNL     1       8.728  -4.795  24.452  0.00  0.00    +0.292 HD
ENDBRANCH   5  24
BRANCH   1  26
ATOM     26  C   UNL     1       9.101   3.163  22.703  0.00  0.00    +0.077 C 
BRANCH  26  28
ATOM     27  C   UNL     1       9.685   5.194  24.066  0.00  0.00    +0.007 A 
ATOM     28  C   UNL     1      10.133   4.058  23.367  0.00  0.00    -0.043 A 
ATOM     29  C   UNL     1      11.513   3.874  23.215  0.00  0.00    +0.007 A 
ATOM     30  C   UNL     1      12.412   4.847  23.652  0.00  0.00    +0.045 A 
ATOM     31  C   UNL     1      11.937   6.017  24.227  0.00  0.00    +0.117 A 
ATOM     32  C   UNL     1      10.583   6.181  24.483  0.00  0.00    +0.045 A 
BRANCH  31  33
ATOM     33  O   UNL     1      12.837   7.006  24.490  0.00  0.00    -0.507 OA
ATOM     34  H   UNL     1      12.347   7.838  24.603  0.00  0.00    +0.292 HD
ENDBRANCH  31  33
ENDBRANCH  26  28
ENDBRANCH   1  26
BRANCH  11  35
ATOM     35  O   UNL     1       7.061   3.405  24.681  0.00  0.00    -0.460 OA
BRANCH  35  36
ATOM     36  C   UNL     1       5.801   3.930  24.139  0.00  0.00    +0.339 C 
ATOM     37  O   UNL     1       6.102   4.683  22.962  0.00  0.00    -0.331 OA
ATOM     38  C   UNL     1       5.435   5.906  22.617  0.00  0.00    +0.179 C 
ATOM     39  C   UNL     1       4.594   6.643  23.679  0.00  0.00    +0.177 C 
ATOM     40  C   UNL     1       4.969   6.246  25.099  0.00  0.00    +0.180 C 
ATOM     41  C   UNL     1       5.060   4.717  25.273  0.00  0.00    +0.214 C 
BRANCH  39  42
ATOM     42  O   UNL     1       3.195   6.383  23.469  0.00  0.00    -0.386 OA
ATOM     43  H   UNL     1       3.007   5.511  23.869  0.00  0.00    +0.210 HD
ENDBRANCH  39  42
BRANCH  40  44
ATOM     44  O   UNL     1       6.141   6.912  25.562  0.00  0.00    -0.386 OA
ATOM     45  H   UNL     1       6.409   6.534  26.427  0.00  0.00    +0.210 HD
ENDBRANCH  40  44
BRANCH  41  46
ATOM     46  O   UNL     1       3.727   4.161  25.419  0.00  0.00    -0.383 OA
ATOM     47  H   UNL     1       3.681   3.670  26.261  0.00  0.00    +0.210 HD
ENDBRANCH  41  46
BRANCH  38  48
ATOM     48  C   UNL     1       6.557   6.857  22.150  0.00  0.00    +0.190 C 
BRANCH  48  49
ATOM     49  O   UNL     1       7.501   6.141  21.348  0.00  0.00    -0.392 OA
ATOM     50  H   UNL     1       6.967   5.611  20.718  0.00  0.00    +0.210 HD
ENDBRANCH  48  49
ENDBRANCH  38  48
ENDBRANCH  35  36
ENDBRANCH  11  35
TORSDOF 15
ENDMDL
MODEL 3
REMARK VINA RESULT:      -7.1      2.915      5.225
REMARK  Name = 
REMARK  15 active torsions:
REMARK  status: ('A' for Active; 'I' for Inactive)
REMARK    1  A    between atoms: C_3  and  O_46
REMARK    2  A    between atoms: C_6  and  C_7
REMARK    3  A    between atoms: C_7  and  C_8
REMARK    4  A    between atoms: C_9  and  O_29
REMARK    5  A    between atoms: C_13  and  O_14
REMARK    6  A    between atoms: C_17  and  O_28
REMARK    7  A    between atoms: C_18  and  C_20
REMARK    8  A    between atoms: C_22  and  O_27
REMARK    9  A    between atoms: C_23  and  O_26
REMARK   10  A    between atoms: O_29  and  C_30
REMARK   11  A    between atoms: C_32  and  O_45
REMARK   12  A    between atoms: C_34  and  O_44
REMARK   13  A    between atoms: C_36  and  O_43
REMARK   14  A    between atoms: C_38  and  C_41
REMARK   15  A    between atoms: C_41  and  O_42
REMARK                            x       y       z     vdW  Elec       q    Type
REMARK                         _______ _______ _______ _____ _____    ______ ____
ROOT
ATOM      1  C   UNL     1       8.547   3.403  23.657  0.00  0.00    +0.041 A 
ATOM      2  C   UNL     1       9.232   2.227  23.279  0.00  0.00    +0.138 A 
ATOM      3  C   UNL     1       8.892   0.989  23.829  0.00  0.00    +0.109 A 
ATOM      4  C   UNL     1       9.562  -0.233  23.380  0.00  0.00    +0.238 A 
ATOM      5  C   UNL     1       9.026  -1.522  23.843  0.00  0.00    +0.208 A 
ATOM      6  C   UNL     1       8.074  -1.523  24.800  0.00  0.00    +0.181 A 
ATOM      7  O   UNL     1       7.538  -0.329  25.343  0.00  0.00    -0.451 OA
ATOM      8  O   UNL     1      10.504  -0.217  22.587  0.00  0.00    -0.283 OA
ATOM      9  C   UNL     1       7.889   0.898  24.786  0.00  0.00    +0.147 A 
ATOM     10  C   UNL     1       7.202   2.075  25.196  0.00  0.00    +0.093 A 
ATOM     11  C   UNL     1       7.492   3.333  24.616  0.00  0.00    +0.134 A 
ENDROOT
BRANCH   6  12
ATOM     12  C   UNL     1       7.451  -2.797  25.278  0.00  0.00    +0.025 A 
ATOM     13  C   UNL     1       6.233  -3.239  24.713  0.00  0.00    +0.015 A 
ATOM     14  C   UNL     1       5.676  -4.476  25.061  0.00  0.00    +0.050 A 
ATOM     15  C   UNL     1       6.322  -5.287  25.977  0.00  0.00    +0.158 A 
ATOM     16  C   UNL     1       7.494  -4.855  26.579  0.00  0.00    +0.159 A 
ATOM     17  C   UNL     1       8.043  -3.621  26.262  0.00  0.00    +0.060 A 
BRANCH  15  18
ATOM     18  O   UNL     1       5.806  -6.516  26.271  0.00  0.00    -0.503 OA
ATOM     19  H   UNL     1       5.178  -6.353  27.004  0.00  0.00    +0.292 HD
ENDBRANCH  15  18
BRANCH  16  20
ATOM     20  O   UNL     1       8.098  -5.718  27.464  0.00  0.00    -0.503 OA
ATOM     21  H   UNL     1       9.001  -5.899  27.146  0.00  0.00    +0.292 HD
ENDBRANCH  16  20
ENDBRANCH   6  12
BRANCH   2  22
ATOM     22  O   UNL     1      10.238   2.338  22.347  0.00  0.00    -0.506 OA
ATOM     23  H   UNL     1      10.071   3.120  21.775  0.00  0.00    +0.292 HD
ENDBRANCH   2  22
BRANCH   5  24
ATOM     24  O   UNL     1       9.546  -2.651  23.227  0.00  0.00    -0.501 OA
ATOM     25  H   UNL     1       9.722  -3.283  23.958  0.00  0.00    +0.292 HD
ENDBRANCH   5  24
BRANCH   1  26
ATOM     26  C   UNL     1       8.969   4.712  23.005  0.00  0.00    +0.077 C 
BRANCH  26  28
ATOM     27  C   UNL     1      11.368   5.390  23.338  0.00  0.00    +0.007 A 
ATOM     28  C   UNL     1      10.021   5.547  23.714  0.00  0.00    -0.043 A 
ATOM     29  C   UNL     1       9.730   6.375  24.806  0.00  0.00    +0.007 A 
ATOM     30  C   UNL     1      10.756   6.941  25.562  0.00  0.00    +0.045 A 
ATOM     31  C   UNL     1      12.079   6.669  25.244  0.00  0.00    +0.117 A 
ATOM     32  C   UNL     1      12.398   5.936  24.110  0.00  0.00    +0.045 A 
BRANCH  31  33
ATOM     33  O   UNL     1      13.041   7.108  26.103  0.00  0.00    -0.507 OA
ATOM     34  H   UNL     1      13.895   6.746  25.811  0.00  0.00    +0.292 HD
ENDBRANCH  31  33
ENDBRANCH  26  28
ENDBRANCH   1  26
BRANCH  11  35
ATOM     35  O   UNL     1       6.905   4.537  24.964  0.00  0.00    -0.460 OA
BRANCH  35  36
ATOM     36  C   UNL     1       5.567   4.963  24.533  0.00  0.00    +0.339 C 
ATOM     37  O   UNL     1       4.608   4.391  25.426  0.00  0.00    -0.331 OA
ATOM     38  C   UNL     1       3.337   3.884  24.996  0.00  0.00    +0.179 C 
ATOM     39  C   UNL     1       3.085   3.624  23.498  0.00  0.00    +0.177 C 
ATOM     40  C   UNL     1       4.376   3.474  22.706  0.00  0.00    +0.180 C 
ATOM     41  C   UNL     1       5.388   4.593  23.022  0.00  0.00    +0.214 C 
BRANCH  39  42
ATOM     42  O   UNL     1       2.307   4.695  22.934  0.00  0.00    -0.386 OA
ATOM     43  H   UNL     1       2.749   4.955  22.102  0.00  0.00    +0.210 HD
ENDBRANCH  39  42
BRANCH  40  44
ATOM     44  O   UNL     1       4.950   2.175  22.837  0.00  0.00    -0.386 OA
ATOM     45  H   UNL     1       4.476   1.550  22.247  0.00  0.00    +0.210 HD
ENDBRANCH  40  44
BRANCH  41  46
ATOM     46  O   UNL     1       5.028   5.797  22.296  0.00  0.00    -0.383 OA
ATOM     47  H   UNL     1       4.382   6.304  22.823  0.00  0.00    +0.210 HD
ENDBRANCH  41  46
BRANCH  38  48
ATOM     48  C   UNL     1       3.163   2.549  25.749  0.00  0.00    +0.190 C 
BRANCH  48  49
ATOM     49  O   UNL     1       1.801   2.115  25.668  0.00  0.00    -0.392 OA
ATOM     50  H   UNL     1       1.402   2.327  26.539  0.00  0.00    +0.210 HD
ENDBRANCH  48  49
ENDBRANCH  38  48
ENDBRANCH  35  36
ENDBRANCH  11  35
TORSDOF 15
ENDMDL
MODEL 4
REMARK VINA RESULT:      -7.1      2.735      4.027
REMARK  Name = 
REMARK  15 active torsions:
REMARK  status: ('A' for Active; 'I' for Inactive)
REMARK    1  A    between atoms: C_3  and  O_46
REMARK    2  A    between atoms: C_6  and  C_7
REMARK    3  A    between atoms: C_7  and  C_8
REMARK    4  A    between atoms: C_9  and  O_29
REMARK    5  A    between atoms: C_13  and  O_14
REMARK    6  A    between atoms: C_17  and  O_28
REMARK    7  A    between atoms: C_18  and  C_20
REMARK    8  A    between atoms: C_22  and  O_27
REMARK    9  A    between atoms: C_23  and  O_26
REMARK   10  A    between atoms: O_29  and  C_30
REMARK   11  A    between atoms: C_32  and  O_45
REMARK   12  A    between atoms: C_34  and  O_44
REMARK   13  A    between atoms: C_36  and  O_43
REMARK   14  A    between atoms: C_38  and  C_41
REMARK   15  A    between atoms: C_41  and  O_42
REMARK                            x       y       z     vdW  Elec       q    Type
REMARK                         _______ _______ _______ _____ _____    ______ ____
ROOT
ATOM      1  C   UNL     1       8.094   1.012  22.744  0.00  0.00    +0.041 A 
ATOM      2  C   UNL     1       8.823  -0.182  22.942  0.00  0.00    +0.138 A 
ATOM      3  C   UNL     1       8.253  -1.273  23.600  0.00  0.00    +0.109 A 
ATOM      4  C   UNL     1       8.994  -2.528  23.740  0.00  0.00    +0.238 A 
ATOM      5  C   UNL     1       8.272  -3.700  24.258  0.00  0.00    +0.208 A 
ATOM      6  C   UNL     1       7.030  -3.529  24.757  0.00  0.00    +0.181 A 
ATOM      7  O   UNL     1       6.376  -2.271  24.759  0.00  0.00    -0.451 OA
ATOM      8  O   UNL     1      10.166  -2.647  23.379  0.00  0.00    -0.283 OA
ATOM      9  C   UNL     1       6.959  -1.192  24.101  0.00  0.00    +0.147 A 
ATOM     10  C   UNL     1       6.216   0.010  23.931  0.00  0.00    +0.093 A 
ATOM     11  C   UNL     1       6.752   1.111  23.222  0.00  0.00    +0.134 A 
ENDROOT
BRANCH   6  12
ATOM     12  C   UNL     1       6.223  -4.687  25.254  0.00  0.00    +0.025 A 
ATOM     13  C   UNL     1       5.984  -4.835  26.639  0.00  0.00    +0.015 A 
ATOM     14  C   UNL     1       5.149  -5.846  27.130  0.00  0.00    +0.050 A 
ATOM     15  C   UNL     1       4.542  -6.724  26.249  0.00  0.00    +0.158 A 
ATOM     16  C   UNL     1       4.795  -6.626  24.889  0.00  0.00    +0.159 A 
ATOM     17  C   UNL     1       5.641  -5.645  24.393  0.00  0.00    +0.060 A 
BRANCH  15  18
ATOM     18  O   UNL     1       3.683  -7.671  26.726  0.00  0.00    -0.503 OA
ATOM     19  H   UNL     1       2.927  -7.163  27.085  0.00  0.00    +0.292 HD
ENDBRANCH  15  18
BRANCH  16  20
ATOM     20  O   UNL     1       4.143  -7.513  24.065  0.00  0.00    -0.503 OA
ATOM     21  H   UNL     1       4.757  -8.237  23.848  0.00  0.00    +0.292 HD
ENDBRANCH  16  20
ENDBRANCH   6  12
BRANCH   2  22
ATOM     22  O   UNL     1      10.111  -0.238  22.459  0.00  0.00    -0.506 OA
ATOM     23  H   UNL     1      10.728  -0.454  23.194  0.00  0.00    +0.292 HD
ENDBRANCH   2  22
BRANCH   5  24
ATOM     24  O   UNL     1       8.942  -4.912  24.169  0.00  0.00    -0.501 OA
ATOM     25  H   UNL     1       9.847  -4.682  23.864  0.00  0.00    +0.292 HD
ENDBRANCH   5  24
BRANCH   1  26
ATOM     26  C   UNL     1       8.782   2.152  22.008  0.00  0.00    +0.077 C 
BRANCH  26  28
ATOM     27  C   UNL     1       8.925   4.212  23.444  0.00  0.00    +0.007 A 
ATOM     28  C   UNL     1       9.594   3.135  22.833  0.00  0.00    -0.043 A 
ATOM     29  C   UNL     1      10.992   3.091  22.915  0.00  0.00    +0.007 A 
ATOM     30  C   UNL     1      11.703   4.143  23.494  0.00  0.00    +0.045 A 
ATOM     31  C   UNL     1      11.024   5.252  23.977  0.00  0.00    +0.117 A 
ATOM     32  C   UNL     1       9.637   5.278  24.002  0.00  0.00    +0.045 A 
BRANCH  31  33
ATOM     33  O   UNL     1      11.765   6.321  24.385  0.00  0.00    -0.507 OA
ATOM     34  H   UNL     1      11.259   7.129  24.194  0.00  0.00    +0.292 HD
ENDBRANCH  31  33
ENDBRANCH  26  28
ENDBRANCH   1  26
BRANCH  11  35
ATOM     35  O   UNL     1       6.126   2.329  23.028  0.00  0.00    -0.460 OA
BRANCH  35  36
ATOM     36  C   UNL     1       5.267   2.988  24.021  0.00  0.00    +0.339 C 
ATOM     37  O   UNL     1       3.920   2.566  23.794  0.00  0.00    -0.331 OA
ATOM     38  C   UNL     1       2.789   3.442  23.917  0.00  0.00    +0.179 C 
ATOM     39  C   UNL     1       3.007   4.967  23.971  0.00  0.00    +0.177 C 
ATOM     40  C   UNL     1       4.353   5.386  23.396  0.00  0.00    +0.180 C 
ATOM     41  C   UNL     1       5.512   4.533  23.947  0.00  0.00    +0.214 C 
BRANCH  39  42
ATOM     42  O   UNL     1       2.907   5.434  25.328  0.00  0.00    -0.386 OA
ATOM     43  H   UNL     1       2.861   4.640  25.896  0.00  0.00    +0.210 HD
ENDBRANCH  39  42
BRANCH  40  44
ATOM     44  O   UNL     1       4.347   5.434  21.971  0.00  0.00    -0.386 OA
ATOM     45  H   UNL     1       5.263   5.307  21.639  0.00  0.00    +0.210 HD
ENDBRANCH  40  44
BRANCH  41  46
ATOM     46  O   UNL     1       5.880   5.002  25.270  0.00  0.00    -0.383 OA
ATOM     47  H   UNL     1       6.773   4.673  25.485  0.00  0.00    +0.210 HD
ENDBRANCH  41  46
BRANCH  38  48
ATOM     48  C   UNL     1       1.904   3.127  22.694  0.00  0.00    +0.190 C 
BRANCH  48  49
ATOM     49  O   UNL     1       2.725   2.821  21.562  0.00  0.00    -0.392 OA
ATOM     50  H   UNL     1       3.648   2.829  21.894  0.00  0.00    +0.210 HD
ENDBRANCH  48  49
ENDBRANCH  38  48
ENDBRANCH  35  36
ENDBRANCH  11  35
TORSDOF 15
ENDMDL
MODEL 5
REMARK VINA RESULT:      -7.1      3.130      5.381
REMARK  Name = 
REMARK  15 active torsions:
REMARK  status: ('A' for Active; 'I' for Inactive)
REMARK    1  A    between atoms: C_3  and  O_46
REMARK    2  A    between atoms: C_6  and  C_7
REMARK    3  A    between atoms: C_7  and  C_8
REMARK    4  A    between atoms: C_9  and  O_29
REMARK    5  A    between atoms: C_13  and  O_14
REMARK    6  A    between atoms: C_17  and  O_28
REMARK    7  A    between atoms: C_18  and  C_20
REMARK    8  A    between atoms: C_22  and  O_27
REMARK    9  A    between atoms: C_23  and  O_26
REMARK   10  A    between atoms: O_29  and  C_30
REMARK   11  A    between atoms: C_32  and  O_45
REMARK   12  A    between atoms: C_34  and  O_44
REMARK   13  A    between atoms: C_36  and  O_43
REMARK   14  A    between atoms: C_38  and  C_41
REMARK   15  A    between atoms: C_41  and  O_42
REMARK                            x       y       z     vdW  Elec       q    Type
REMARK                         _______ _______ _______ _____ _____    ______ ____
ROOT
ATOM      1  C   UNL     1       8.445   3.201  23.603  0.00  0.00    +0.041 A 
ATOM      2  C   UNL     1       8.969   2.010  23.054  0.00  0.00    +0.138 A 
ATOM      3  C   UNL     1       8.668   0.766  23.613  0.00  0.00    +0.109 A 
ATOM      4  C   UNL     1       9.162  -0.466  22.996  0.00  0.00    +0.238 A 
ATOM      5  C   UNL     1       8.648  -1.746  23.508  0.00  0.00    +0.208 A 
ATOM      6  C   UNL     1       7.902  -1.743  24.633  0.00  0.00    +0.181 A 
ATOM      7  O   UNL     1       7.557  -0.550  25.315  0.00  0.00    -0.451 OA
ATOM      8  O   UNL     1       9.930  -0.462  22.034  0.00  0.00    -0.283 OA
ATOM      9  C   UNL     1       7.867   0.682  24.746  0.00  0.00    +0.147 A 
ATOM     10  C   UNL     1       7.347   1.873  25.327  0.00  0.00    +0.093 A 
ATOM     11  C   UNL     1       7.594   3.140  24.748  0.00  0.00    +0.134 A 
ENDROOT
BRANCH   6  12
ATOM     12  C   UNL     1       7.308  -3.004  25.178  0.00  0.00    +0.025 A 
ATOM     13  C   UNL     1       6.060  -3.459  24.693  0.00  0.00    +0.015 A 
ATOM     14  C   UNL     1       5.524  -4.686  25.102  0.00  0.00    +0.050 A 
ATOM     15  C   UNL     1       6.221  -5.475  26.001  0.00  0.00    +0.158 A 
ATOM     16  C   UNL     1       7.425  -5.029  26.525  0.00  0.00    +0.159 A 
ATOM     17  C   UNL     1       7.954  -3.804  26.146  0.00  0.00    +0.060 A 
BRANCH  15  18
ATOM     18  O   UNL     1       5.723  -6.696  26.354  0.00  0.00    -0.503 OA
ATOM     19  H   UNL     1       6.507  -7.216  26.621  0.00  0.00    +0.292 HD
ENDBRANCH  15  18
BRANCH  16  20
ATOM     20  O   UNL     1       8.079  -5.870  27.395  0.00  0.00    -0.503 OA
ATOM     21  H   UNL     1       7.819  -6.786  27.189  0.00  0.00    +0.292 HD
ENDBRANCH  16  20
ENDBRANCH   6  12
BRANCH   2  22
ATOM     22  O   UNL     1       9.779   2.112  21.946  0.00  0.00    -0.506 OA
ATOM     23  H   UNL     1       9.978   1.213  21.600  0.00  0.00    +0.292 HD
ENDBRANCH   2  22
BRANCH   5  24
ATOM     24  O   UNL     1       8.968  -2.870  22.760  0.00  0.00    -0.501 OA
ATOM     25  H   UNL     1       9.815  -2.647  22.313  0.00  0.00    +0.292 HD
ENDBRANCH   5  24
BRANCH   1  26
ATOM     26  C   UNL     1       8.811   4.515  22.929  0.00  0.00    +0.077 C 
BRANCH  26  28
ATOM     27  C   UNL     1      11.239   5.041  23.319  0.00  0.00    +0.007 A 
ATOM     28  C   UNL     1       9.893   5.362  23.575  0.00  0.00    -0.043 A 
ATOM     29  C   UNL     1       9.619   6.370  24.509  0.00  0.00    +0.007 A 
ATOM     30  C   UNL     1      10.649   6.961  25.240  0.00  0.00    +0.045 A 
ATOM     31  C   UNL     1      11.957   6.537  25.057  0.00  0.00    +0.117 A 
ATOM     32  C   UNL     1      12.271   5.614  24.068  0.00  0.00    +0.045 A 
BRANCH  31  33
ATOM     33  O   UNL     1      12.907   7.024  25.904  0.00  0.00    -0.507 OA
ATOM     34  H   UNL     1      12.629   7.909  26.193  0.00  0.00    +0.292 HD
ENDBRANCH  31  33
ENDBRANCH  26  28
ENDBRANCH   1  26
BRANCH  11  35
ATOM     35  O   UNL     1       7.162   4.355  25.250  0.00  0.00    -0.460 OA
BRANCH  35  36
ATOM     36  C   UNL     1       5.765   4.808  25.237  0.00  0.00    +0.339 C 
ATOM     37  O   UNL     1       4.996   3.862  24.489  0.00  0.00    -0.331 OA
ATOM     38  C   UNL     1       3.931   4.237  23.604  0.00  0.00    +0.179 C 
ATOM     39  C   UNL     1       3.788   5.706  23.160  0.00  0.00    +0.177 C 
ATOM     40  C   UNL     1       5.080   6.493  23.322  0.00  0.00    +0.180 C 
ATOM     41  C   UNL     1       5.723   6.281  24.707  0.00  0.00    +0.214 C 
BRANCH  39  42
ATOM     42  O   UNL     1       2.745   6.351  23.911  0.00  0.00    -0.386 OA
ATOM     43  H   UNL     1       2.322   6.995  23.309  0.00  0.00    +0.210 HD
ENDBRANCH  39  42
BRANCH  40  44
ATOM     44  O   UNL     1       6.000   6.259  22.258  0.00  0.00    -0.386 OA
ATOM     45  H   UNL     1       6.475   7.093  22.051  0.00  0.00    +0.210 HD
ENDBRANCH  40  44
BRANCH  41  46
ATOM     46  O   UNL     1       5.044   7.103  25.692  0.00  0.00    -0.383 OA
ATOM     47  H   UNL     1       5.328   8.030  25.580  0.00  0.00    +0.210 HD
ENDBRANCH  41  46
BRANCH  38  48
ATOM     48  C   UNL     1       4.136   3.373  22.342  0.00  0.00    +0.190 C 
BRANCH  48  49
ATOM     49  O   UNL     1       5.507   3.422  21.934  0.00  0.00    -0.392 OA
ATOM     50  H   UNL     1       5.502   3.244  20.969  0.00  0.00    +0.210 HD
ENDBRANCH  48  49
ENDBRANCH  38  48
ENDBRANCH  35  36
ENDBRANCH  11  35
TORSDOF 15
ENDMDL
MODEL 6
REMARK VINA RESULT:      -6.9      1.348      2.242
REMARK  Name = 
REMARK  15 active torsions:
REMARK  status: ('A' for Active; 'I' for Inactive)
REMARK    1  A    between atoms: C_3  and  O_46
REMARK    2  A    between atoms: C_6  and  C_7
REMARK    3  A    between atoms: C_7  and  C_8
REMARK    4  A    between atoms: C_9  and  O_29
REMARK    5  A    between atoms: C_13  and  O_14
REMARK    6  A    between atoms: C_17  and  O_28
REMARK    7  A    between atoms: C_18  and  C_20
REMARK    8  A    between atoms: C_22  and  O_27
REMARK    9  A    between atoms: C_23  and  O_26
REMARK   10  A    between atoms: O_29  and  C_30
REMARK   11  A    between atoms: C_32  and  O_45
REMARK   12  A    between atoms: C_34  and  O_44
REMARK   13  A    between atoms: C_36  and  O_43
REMARK   14  A    between atoms: C_38  and  C_41
REMARK   15  A    between atoms: C_41  and  O_42
REMARK                            x       y       z     vdW  Elec       q    Type
REMARK                         _______ _______ _______ _____ _____    ______ ____
ROOT
ATOM      1  C   UNL     1       8.178  -1.674  25.378  0.00  0.00    +0.041 A 
ATOM      2  C   UNL     1       8.252  -2.775  24.496  0.00  0.00    +0.138 A 
ATOM      3  C   UNL     1       7.234  -3.730  24.450  0.00  0.00    +0.109 A 
ATOM      4  C   UNL     1       7.288  -4.829  23.485  0.00  0.00    +0.238 A 
ATOM      5  C   UNL     1       6.098  -5.681  23.344  0.00  0.00    +0.208 A 
ATOM      6  C   UNL     1       5.090  -5.541  24.231  0.00  0.00    +0.181 A 
ATOM      7  O   UNL     1       5.115  -4.571  25.265  0.00  0.00    -0.451 OA
ATOM      8  O   UNL     1       8.259  -5.017  22.751  0.00  0.00    -0.283 OA
ATOM      9  C   UNL     1       6.138  -3.628  25.298  0.00  0.00    +0.147 A 
ATOM     10  C   UNL     1       6.056  -2.538  26.210  0.00  0.00    +0.093 A 
ATOM     11  C   UNL     1       7.049  -1.530  26.239  0.00  0.00    +0.134 A 
ENDROOT
BRANCH   6  12
ATOM     12  C   UNL     1       3.831  -6.342  24.114  0.00  0.00    +0.025 A 
ATOM     13  C   UNL     1       2.843  -5.965  23.176  0.00  0.00    +0.015 A 
ATOM     14  C   UNL     1       1.702  -6.748  22.967  0.00  0.00    +0.050 A 
ATOM     15  C   UNL     1       1.528  -7.915  23.690  0.00  0.00    +0.158 A 
ATOM     16  C   UNL     1       2.461  -8.283  24.648  0.00  0.00    +0.159 A 
ATOM     17  C   UNL     1       3.583  -7.501  24.883  0.00  0.00    +0.060 A 
BRANCH  15  18
ATOM     18  O   UNL     1       0.443  -8.706  23.442  0.00  0.00    -0.503 OA
ATOM     19  H   UNL     1       0.682  -9.579  23.815  0.00  0.00    +0.292 HD
ENDBRANCH  15  18
BRANCH  16  20
ATOM     20  O   UNL     1       2.241  -9.465  25.315  0.00  0.00    -0.503 OA
ATOM     21  H   UNL     1       2.832  -9.494  26.089  0.00  0.00    +0.292 HD
ENDBRANCH  16  20
ENDBRANCH   6  12
BRANCH   2  22
ATOM     22  O   UNL     1       9.355  -2.873  23.678  0.00  0.00    -0.506 OA
ATOM     23  H   UNL     1       9.957  -3.571  24.021  0.00  0.00    +0.292 HD
ENDBRANCH   2  22
BRANCH   5  24
ATOM     24  O   UNL     1       6.108  -6.565  22.275  0.00  0.00    -0.501 OA
ATOM     25  H   UNL     1       6.460  -6.047  21.518  0.00  0.00    +0.292 HD
ENDBRANCH   5  24
BRANCH   1  26
ATOM     26  C   UNL     1       9.323  -0.671  25.361  0.00  0.00    +0.077 C 
BRANCH  26  28
ATOM     27  C   UNL     1      10.280   1.421  24.346  0.00  0.00    +0.007 A 
ATOM     28  C   UNL     1       9.204   0.518  24.424  0.00  0.00    -0.043 A 
ATOM     29  C   UNL     1       8.029   0.826  23.726  0.00  0.00    +0.007 A 
ATOM     30  C   UNL     1       7.895   2.045  23.062  0.00  0.00    +0.045 A 
ATOM     31  C   UNL     1       8.927   2.971  23.106  0.00  0.00    +0.117 A 
ATOM     32  C   UNL     1      10.140   2.654  23.702  0.00  0.00    +0.045 A 
BRANCH  31  33
ATOM     33  O   UNL     1       8.693   4.208  22.583  0.00  0.00    -0.507 OA
ATOM     34  H   UNL     1       8.549   4.109  21.627  0.00  0.00    +0.292 HD
ENDBRANCH  31  33
ENDBRANCH  26  28
ENDBRANCH   1  26
BRANCH  11  35
ATOM     35  O   UNL     1       7.077  -0.450  27.104  0.00  0.00    -0.460 OA
BRANCH  35  36
ATOM     36  C   UNL     1       5.925   0.414  27.391  0.00  0.00    +0.339 C 
ATOM     37  O   UNL     1       5.951   1.511  26.474  0.00  0.00    -0.331 OA
ATOM     38  C   UNL     1       5.600   2.853  26.842  0.00  0.00    +0.179 C 
ATOM     39  C   UNL     1       5.502   3.236  28.331  0.00  0.00    +0.177 C 
ATOM     40  C   UNL     1       6.265   2.276  29.233  0.00  0.00    +0.180 C 
ATOM     41  C   UNL     1       5.956   0.801  28.908  0.00  0.00    +0.214 C 
BRANCH  39  42
ATOM     42  O   UNL     1       4.125   3.276  28.742  0.00  0.00    -0.386 OA
ATOM     43  H   UNL     1       3.873   4.220  28.790  0.00  0.00    +0.210 HD
ENDBRANCH  39  42
BRANCH  40  44
ATOM     44  O   UNL     1       7.666   2.542  29.254  0.00  0.00    -0.386 OA
ATOM     45  H   UNL     1       7.887   3.049  30.065  0.00  0.00    +0.210 HD
ENDBRANCH  40  44
BRANCH  41  46
ATOM     46  O   UNL     1       4.688   0.425  29.503  0.00  0.00    -0.383 OA
ATOM     47  H   UNL     1       4.099   0.083  28.803  0.00  0.00    +0.210 HD
ENDBRANCH  41  46
BRANCH  38  48
ATOM     48  C   UNL     1       6.678   3.742  26.188  0.00  0.00    +0.190 C 
BRANCH  48  49
ATOM     49  O   UNL     1       7.981   3.220  26.472  0.00  0.00    -0.392 OA
ATOM     50  H   UNL     1       8.442   3.920  26.981  0.00  0.00    +0.210 HD
ENDBRANCH  48  49
ENDBRANCH  38  48
ENDBRANCH  35  36
ENDBRANCH  11  35
TORSDOF 15
ENDMDL
MODEL 7
REMARK VINA RESULT:      -6.9      2.135      3.625
REMARK  Name = 
REMARK  15 active torsions:
REMARK  status: ('A' for Active; 'I' for Inactive)
REMARK    1  A    between atoms: C_3  and  O_46
REMARK    2  A    between atoms: C_6  and  C_7
REMARK    3  A    between atoms: C_7  and  C_8
REMARK    4  A    between atoms: C_9  and  O_29
REMARK    5  A    between atoms: C_13  and  O_14
REMARK    6  A    between atoms: C_17  and  O_28
REMARK    7  A    between atoms: C_18  and  C_20
REMARK    8  A    between atoms: C_22  and  O_27
REMARK    9  A    between atoms: C_23  and  O_26
REMARK   10  A    between atoms: O_29  and  C_30
REMARK   11  A    between atoms: C_32  and  O_45
REMARK   12  A    between atoms: C_34  and  O_44
REMARK   13  A    between atoms: C_36  and  O_43
REMARK   14  A    between atoms: C_38  and  C_41
REMARK   15  A    between atoms: C_41  and  O_42
REMARK                            x       y       z     vdW  Elec       q    Type
REMARK                         _______ _______ _______ _____ _____    ______ ____
ROOT
ATOM      1  C   UNL     1       8.639   0.808  24.900  0.00  0.00    +0.041 A 
ATOM      2  C   UNL     1       9.197  -0.439  24.540  0.00  0.00    +0.138 A 
ATOM      3  C   UNL     1       8.505  -1.630  24.770  0.00  0.00    +0.109 A 
ATOM      4  C   UNL     1       9.062  -2.911  24.333  0.00  0.00    +0.238 A 
ATOM      5  C   UNL     1       8.202  -4.101  24.417  0.00  0.00    +0.208 A 
ATOM      6  C   UNL     1       7.020  -4.003  25.062  0.00  0.00    +0.181 A 
ATOM      7  O   UNL     1       6.555  -2.787  25.621  0.00  0.00    -0.451 OA
ATOM      8  O   UNL     1      10.188  -3.009  23.842  0.00  0.00    -0.283 OA
ATOM      9  C   UNL     1       7.259  -1.609  25.386  0.00  0.00    +0.147 A 
ATOM     10  C   UNL     1       6.690  -0.364  25.775  0.00  0.00    +0.093 A 
ATOM     11  C   UNL     1       7.348   0.860  25.506  0.00  0.00    +0.134 A 
ENDROOT
BRANCH   6  12
ATOM     12  C   UNL     1       6.077  -5.163  25.140  0.00  0.00    +0.025 A 
ATOM     13  C   UNL     1       5.866  -5.816  26.375  0.00  0.00    +0.015 A 
ATOM     14  C   UNL     1       4.916  -6.835  26.507  0.00  0.00    +0.050 A 
ATOM     15  C   UNL     1       4.163  -7.219  25.411  0.00  0.00    +0.158 A 
ATOM     16  C   UNL     1       4.383  -6.624  24.178  0.00  0.00    +0.159 A 
ATOM     17  C   UNL     1       5.340  -5.631  24.028  0.00  0.00    +0.060 A 
BRANCH  15  18
ATOM     18  O   UNL     1       3.197  -8.172  25.557  0.00  0.00    -0.503 OA
ATOM     19  H   UNL     1       2.652  -7.860  26.307  0.00  0.00    +0.292 HD
ENDBRANCH  15  18
BRANCH  16  20
ATOM     20  O   UNL     1       3.587  -7.034  23.134  0.00  0.00    -0.503 OA
ATOM     21  H   UNL     1       2.696  -7.216  23.482  0.00  0.00    +0.292 HD
ENDBRANCH  16  20
ENDBRANCH   6  12
BRANCH   2  22
ATOM     22  O   UNL     1      10.441  -0.444  23.952  0.00  0.00    -0.506 OA
ATOM     23  H   UNL     1      10.881  -1.307  24.121  0.00  0.00    +0.292 HD
ENDBRANCH   2  22
BRANCH   5  24
ATOM     24  O   UNL     1       8.686  -5.243  23.795  0.00  0.00    -0.501 OA
ATOM     25  H   UNL     1       8.460  -5.131  22.845  0.00  0.00    +0.292 HD
ENDBRANCH   5  24
BRANCH   1  26
ATOM     26  C   UNL     1       9.453   2.061  24.607  0.00  0.00    +0.077 C 
BRANCH  26  28
ATOM     27  C   UNL     1       9.040   4.458  23.965  0.00  0.00    +0.007 A 
ATOM     28  C   UNL     1       8.845   3.094  23.674  0.00  0.00    -0.043 A 
ATOM     29  C   UNL     1       8.000   2.758  22.609  0.00  0.00    +0.007 A 
ATOM     30  C   UNL     1       7.289   3.746  21.926  0.00  0.00    +0.045 A 
ATOM     31  C   UNL     1       7.405   5.072  22.315  0.00  0.00    +0.117 A 
ATOM     32  C   UNL     1       8.310   5.446  23.299  0.00  0.00    +0.045 A 
BRANCH  31  33
ATOM     33  O   UNL     1       6.573   5.980  21.730  0.00  0.00    -0.507 OA
ATOM     34  H   UNL     1       5.923   6.265  22.394  0.00  0.00    +0.292 HD
ENDBRANCH  31  33
ENDBRANCH  26  28
ENDBRANCH   1  26
BRANCH  11  35
ATOM     35  O   UNL     1       6.896   2.116  25.868  0.00  0.00    -0.460 OA
BRANCH  35  36
ATOM     36  C   UNL     1       5.577   2.657  25.515  0.00  0.00    +0.339 C 
ATOM     37  O   UNL     1       5.735   4.039  25.187  0.00  0.00    -0.331 OA
ATOM     38  C   UNL     1       4.785   5.050  25.555  0.00  0.00    +0.179 C 
ATOM     39  C   UNL     1       3.713   4.739  26.617  0.00  0.00    +0.177 C 
ATOM     40  C   UNL     1       4.092   3.561  27.503  0.00  0.00    +0.180 C 
ATOM     41  C   UNL     1       4.582   2.350  26.684  0.00  0.00    +0.214 C 
BRANCH  39  42
ATOM     42  O   UNL     1       2.451   4.466  25.982  0.00  0.00    -0.386 OA
ATOM     43  H   UNL     1       2.481   4.891  25.102  0.00  0.00    +0.210 HD
ENDBRANCH  39  42
BRANCH  40  44
ATOM     44  O   UNL     1       5.010   3.924  28.532  0.00  0.00    -0.386 OA
ATOM     45  H   UNL     1       4.951   4.891  28.692  0.00  0.00    +0.210 HD
ENDBRANCH  40  44
BRANCH  41  46
ATOM     46  O   UNL     1       3.443   1.634  26.141  0.00  0.00    -0.383 OA
ATOM     47  H   UNL     1       3.754   0.796  25.749  0.00  0.00    +0.210 HD
ENDBRANCH  41  46
BRANCH  38  48
ATOM     48  C   UNL     1       5.635   6.233  26.063  0.00  0.00    +0.190 C 
BRANCH  48  49
ATOM     49  O   UNL     1       6.764   5.744  26.796  0.00  0.00    -0.392 OA
ATOM     50  H   UNL     1       7.010   4.896  26.369  0.00  0.00    +0.210 HD
ENDBRANCH  48  49
ENDBRANCH  38  48
ENDBRANCH  35  36
ENDBRANCH  11  35
TORSDOF 15
ENDMDL
MODEL 8
REMARK VINA RESULT:      -6.8      2.465      3.967
REMARK  Name = 
REMARK  15 active torsions:
REMARK  status: ('A' for Active; 'I' for Inactive)
REMARK    1  A    between atoms: C_3  and  O_46
REMARK    2  A    between atoms: C_6  and  C_7
REMARK    3  A    between atoms: C_7  and  C_8
REMARK    4  A    between atoms: C_9  and  O_29
REMARK    5  A    between atoms: C_13  and  O_14
REMARK    6  A    between atoms: C_17  and  O_28
REMARK    7  A    between atoms: C_18  and  C_20
REMARK    8  A    between atoms: C_22  and  O_27
REMARK    9  A    between atoms: C_23  and  O_26
REMARK   10  A    between atoms: O_29  and  C_30
REMARK   11  A    between atoms: C_32  and  O_45
REMARK   12  A    between atoms: C_34  and  O_44
REMARK   13  A    between atoms: C_36  and  O_43
REMARK   14  A    between atoms: C_38  and  C_41
REMARK   15  A    between atoms: C_41  and  O_42
REMARK                            x       y       z     vdW  Elec       q    Type
REMARK                         _______ _______ _______ _____ _____    ______ ____
ROOT
ATOM      1  C   UNL     1       8.027   2.080  23.888  0.00  0.00    +0.041 A 
ATOM      2  C   UNL     1       8.258   0.830  23.272  0.00  0.00    +0.138 A 
ATOM      3  C   UNL     1       7.950  -0.364  23.929  0.00  0.00    +0.109 A 
ATOM      4  C   UNL     1       8.130  -1.651  23.257  0.00  0.00    +0.238 A 
ATOM      5  C   UNL     1       7.600  -2.853  23.918  0.00  0.00    +0.208 A 
ATOM      6  C   UNL     1       7.149  -2.752  25.186  0.00  0.00    +0.181 A 
ATOM      7  O   UNL     1       7.122  -1.521  25.889  0.00  0.00    -0.451 OA
ATOM      8  O   UNL     1       8.643  -1.748  22.141  0.00  0.00    -0.283 OA
ATOM      9  C   UNL     1       7.435  -0.341  25.220  0.00  0.00    +0.147 A 
ATOM     10  C   UNL     1       7.216   0.909  25.866  0.00  0.00    +0.093 A 
ATOM     11  C   UNL     1       7.470   2.132  25.202  0.00  0.00    +0.134 A 
ENDROOT
BRANCH   6  12
ATOM     12  C   UNL     1       6.552  -3.925  25.897  0.00  0.00    +0.025 A 
ATOM     13  C   UNL     1       5.280  -4.407  25.513  0.00  0.00    +0.015 A 
ATOM     14  C   UNL     1       4.737  -5.564  26.085  0.00  0.00    +0.050 A 
ATOM     15  C   UNL     1       5.451  -6.255  27.048  0.00  0.00    +0.158 A 
ATOM     16  C   UNL     1       6.681  -5.777  27.474  0.00  0.00    +0.159 A 
ATOM     17  C   UNL     1       7.218  -4.618  26.933  0.00  0.00    +0.060 A 
BRANCH  15  18
ATOM     18  O   UNL     1       4.944  -7.414  27.561  0.00  0.00    -0.503 OA
ATOM     19  H   UNL     1       3.994  -7.228  27.703  0.00  0.00    +0.292 HD
ENDBRANCH  15  18
BRANCH  16  20
ATOM     20  O   UNL     1       7.350  -6.522  28.416  0.00  0.00    -0.503 OA
ATOM     21  H   UNL     1       8.252  -6.691  28.089  0.00  0.00    +0.292 HD
ENDBRANCH  16  20
ENDBRANCH   6  12
BRANCH   2  22
ATOM     22  O   UNL     1       8.789   0.824  22.003  0.00  0.00    -0.506 OA
ATOM     23  H   UNL     1       8.061   0.865  21.342  0.00  0.00    +0.292 HD
ENDBRANCH   2  22
BRANCH   5  24
ATOM     24  O   UNL     1       7.596  -4.012  23.155  0.00  0.00    -0.501 OA
ATOM     25  H   UNL     1       8.024  -3.762  22.307  0.00  0.00    +0.292 HD
ENDBRANCH   5  24
BRANCH   1  26
ATOM     26  C   UNL     1       8.379   3.335  23.102  0.00  0.00    +0.077 C 
BRANCH  26  28
ATOM     27  C   UNL     1       9.563   5.382  23.958  0.00  0.00    +0.007 A 
ATOM     28  C   UNL     1       9.658   4.064  23.474  0.00  0.00    -0.043 A 
ATOM     29  C   UNL     1      10.934   3.533  23.244  0.00  0.00    +0.007 A 
ATOM     30  C   UNL     1      12.072   4.327  23.391  0.00  0.00    +0.045 A 
ATOM     31  C   UNL     1      11.941   5.661  23.750  0.00  0.00    +0.117 A 
ATOM     32  C   UNL     1      10.700   6.186  24.082  0.00  0.00    +0.045 A 
BRANCH  31  33
ATOM     33  O   UNL     1      13.060   6.438  23.723  0.00  0.00    -0.507 OA
ATOM     34  H   UNL     1      13.045   6.960  22.904  0.00  0.00    +0.292 HD
ENDBRANCH  31  33
ENDBRANCH  26  28
ENDBRANCH   1  26
BRANCH  11  35
ATOM     35  O   UNL     1       7.319   3.394  25.749  0.00  0.00    -0.460 OA
BRANCH  35  36
ATOM     36  C   UNL     1       6.025   4.021  26.044  0.00  0.00    +0.339 C 
ATOM     37  O   UNL     1       5.361   3.229  27.033  0.00  0.00    -0.331 OA
ATOM     38  C   UNL     1       3.948   2.978  27.023  0.00  0.00    +0.179 C 
ATOM     39  C   UNL     1       3.129   3.275  25.752  0.00  0.00    +0.177 C 
ATOM     40  C   UNL     1       3.993   3.336  24.501  0.00  0.00    +0.180 C 
ATOM     41  C   UNL     1       5.245   4.214  24.700  0.00  0.00    +0.214 C 
BRANCH  39  42
ATOM     42  O   UNL     1       2.420   4.518  25.898  0.00  0.00    -0.386 OA
ATOM     43  H   UNL     1       1.604   4.319  26.399  0.00  0.00    +0.210 HD
ENDBRANCH  39  42
BRANCH  40  44
ATOM     44  O   UNL     1       4.316   2.043  23.995  0.00  0.00    -0.386 OA
ATOM     45  H   UNL     1       3.487   1.565  23.775  0.00  0.00    +0.210 HD
ENDBRANCH  40  44
BRANCH  41  46
ATOM     46  O   UNL     1       4.885   5.614  24.576  0.00  0.00    -0.383 OA
ATOM     47  H   UNL     1       3.924   5.708  24.717  0.00  0.00    +0.210 HD
ENDBRANCH  41  46
BRANCH  38  48
ATOM     48  C   UNL     1       3.806   1.477  27.346  0.00  0.00    +0.190 C 
BRANCH  48  49
ATOM     49  O   UNL     1       2.813   0.887  26.501  0.00  0.00    -0.392 OA
ATOM     50  H   UNL     1       3.190   0.031  26.206  0.00  0.00    +0.210 HD
ENDBRANCH  48  49
ENDBRANCH  38  48
ENDBRANCH  35  36
ENDBRANCH  11  35
TORSDOF 15
ENDMDL
MODEL 9
REMARK VINA RESULT:      -6.8      1.862      2.984
REMARK  Name = 
REMARK  15 active torsions:
REMARK  status: ('A' for Active; 'I' for Inactive)
REMARK    1  A    between atoms: C_3  and  O_46
REMARK    2  A    between atoms: C_6  and  C_7
REMARK    3  A    between atoms: C_7  and  C_8
REMARK    4  A    between atoms: C_9  and  O_29
REMARK    5  A    between atoms: C_13  and  O_14
REMARK    6  A    between atoms: C_17  and  O_28
REMARK    7  A    between atoms: C_18  and  C_20
REMARK    8  A    between atoms: C_22  and  O_27
REMARK    9  A    between atoms: C_23  and  O_26
REMARK   10  A    between atoms: O_29  and  C_30
REMARK   11  A    between atoms: C_32  and  O_45
REMARK   12  A    between atoms: C_34  and  O_44
REMARK   13  A    between atoms: C_36  and  O_43
REMARK   14  A    between atoms: C_38  and  C_41
REMARK   15  A    between atoms: C_41  and  O_42
REMARK                            x       y       z     vdW  Elec       q    Type
REMARK                         _______ _______ _______ _____ _____    ______ ____
ROOT
ATOM      1  C   UNL     1       8.789   1.358  24.836  0.00  0.00    +0.041 A 
ATOM      2  C   UNL     1       9.119   0.178  24.132  0.00  0.00    +0.138 A 
ATOM      3  C   UNL     1       8.466  -1.026  24.402  0.00  0.00    +0.109 A 
ATOM      4  C   UNL     1       8.767  -2.227  23.622  0.00  0.00    +0.238 A 
ATOM      5  C   UNL     1       7.909  -3.406  23.813  0.00  0.00    +0.208 A 
ATOM      6  C   UNL     1       7.013  -3.400  24.822  0.00  0.00    +0.181 A 
ATOM      7  O   UNL     1       6.835  -2.284  25.677  0.00  0.00    -0.451 OA
ATOM      8  O   UNL     1       9.661  -2.258  22.774  0.00  0.00    -0.283 OA
ATOM      9  C   UNL     1       7.496  -1.091  25.395  0.00  0.00    +0.147 A 
ATOM     10  C   UNL     1       7.165   0.083  26.130  0.00  0.00    +0.093 A 
ATOM     11  C   UNL     1       7.775   1.326  25.840  0.00  0.00    +0.134 A 
ENDROOT
BRANCH   6  12
ATOM     12  C   UNL     1       6.076  -4.547  25.040  0.00  0.00    +0.025 A 
ATOM     13  C   UNL     1       5.175  -4.921  24.018  0.00  0.00    +0.015 A 
ATOM     14  C   UNL     1       4.357  -6.051  24.145  0.00  0.00    +0.050 A 
ATOM     15  C   UNL     1       4.426  -6.822  25.293  0.00  0.00    +0.158 A 
ATOM     16  C   UNL     1       5.270  -6.450  26.328  0.00  0.00    +0.159 A 
ATOM     17  C   UNL     1       6.065  -5.318  26.224  0.00  0.00    +0.060 A 
BRANCH  15  18
ATOM     18  O   UNL     1       3.670  -7.954  25.389  0.00  0.00    -0.503 OA
ATOM     19  H   UNL     1       2.841  -7.741  24.914  0.00  0.00    +0.292 HD
ENDBRANCH  15  18
BRANCH  16  20
ATOM     20  O   UNL     1       5.308  -7.271  27.430  0.00  0.00    -0.503 OA
ATOM     21  H   UNL     1       6.059  -7.000  27.988  0.00  0.00    +0.292 HD
ENDBRANCH  16  20
ENDBRANCH   6  12
BRANCH   2  22
ATOM     22  O   UNL     1      10.098   0.254  23.168  0.00  0.00    -0.506 OA
ATOM     23  H   UNL     1      10.103  -0.575  22.639  0.00  0.00    +0.292 HD
ENDBRANCH   2  22
BRANCH   5  24
ATOM     24  O   UNL     1       8.088  -4.440  22.905  0.00  0.00    -0.501 OA
ATOM     25  H   UNL     1       8.291  -5.230  23.453  0.00  0.00    +0.292 HD
ENDBRANCH   5  24
BRANCH   1  26
ATOM     26  C   UNL     1       9.539   2.633  24.475  0.00  0.00    +0.077 C 
BRANCH  26  28
ATOM     27  C   UNL     1       9.052   4.996  23.766  0.00  0.00    +0.007 A 
ATOM     28  C   UNL     1       8.848   3.620  23.552  0.00  0.00    -0.043 A 
ATOM     29  C   UNL     1       7.922   3.232  22.575  0.00  0.00    +0.007 A 
ATOM     30  C   UNL     1       7.149   4.185  21.910  0.00  0.00    +0.045 A 
ATOM     31  C   UNL     1       7.282   5.528  22.231  0.00  0.00    +0.117 A 
ATOM     32  C   UNL     1       8.261   5.950  23.120  0.00  0.00    +0.045 A 
BRANCH  31  33
ATOM     33  O   UNL     1       6.397   6.403  21.677  0.00  0.00    -0.507 OA
ATOM     34  H   UNL     1       5.872   5.924  21.015  0.00  0.00    +0.292 HD
ENDBRANCH  31  33
ENDBRANCH  26  28
ENDBRANCH   1  26
BRANCH  11  35
ATOM     35  O   UNL     1       7.547   2.514  26.512  0.00  0.00    -0.460 OA
BRANCH  35  36
ATOM     36  C   UNL     1       6.229   3.147  26.654  0.00  0.00    +0.339 C 
ATOM     37  O   UNL     1       5.385   2.259  27.391  0.00  0.00    -0.331 OA
ATOM     38  C   UNL     1       3.994   2.068  27.095  0.00  0.00    +0.179 C 
ATOM     39  C   UNL     1       3.425   2.560  25.750  0.00  0.00    +0.177 C 
ATOM     40  C   UNL     1       4.503   2.751  24.694  0.00  0.00    +0.180 C 
ATOM     41  C   UNL     1       5.711   3.545  25.230  0.00  0.00    +0.214 C 
BRANCH  39  42
ATOM     42  O   UNL     1       2.720   3.800  25.935  0.00  0.00    -0.386 OA
ATOM     43  H   UNL     1       3.393   4.479  26.135  0.00  0.00    +0.210 HD
ENDBRANCH  39  42
BRANCH  40  44
ATOM     44  O   UNL     1       4.893   1.523  24.083  0.00  0.00    -0.386 OA
ATOM     45  H   UNL     1       5.558   1.076  24.650  0.00  0.00    +0.210 HD
ENDBRANCH  40  44
BRANCH  41  46
ATOM     46  O   UNL     1       5.401   4.962  25.236  0.00  0.00    -0.383 OA
ATOM     47  H   UNL     1       6.203   5.462  24.995  0.00  0.00    +0.210 HD
ENDBRANCH  41  46
BRANCH  38  48
ATOM     48  C   UNL     1       3.772   0.544  27.181  0.00  0.00    +0.190 C 
BRANCH  48  49
ATOM     49  O   UNL     1       2.462   0.213  26.709  0.00  0.00    -0.392 OA
ATOM     50  H   UNL     1       1.953   1.051  26.731  0.00  0.00    +0.210 HD
ENDBRANCH  48  49
ENDBRANCH  38  48
ENDBRANCH  35  36
ENDBRANCH  11  35
TORSDOF 15
ENDMDL
