MODEL 1
REMARK VINA RESULT:      -7.2      0.000      0.000
REMARK  Name = 
REMARK  24 active torsions:
REMARK  status: ('A' for Active; 'I' for Inactive)
REMARK    1  A    between atoms: C_3  and  O_64
REMARK    2  A    between atoms: C_4  and  O_63
REMARK    3  A    between atoms: C_6  and  C_7
REMARK    4  A    between atoms: C_8  and  O_35
REMARK    5  A    between atoms: C_12  and  O_34
REMARK    6  A    between atoms: C_14  and  O_18
REMARK    7  A    between atoms: O_18  and  C_19
REMARK    8  A    between atoms: C_21  and  O_33
REMARK    9  A    between atoms: C_22  and  O_32
REMARK   10  A    between atoms: C_24  and  O_31
REMARK   11  A    between atoms: C_26  and  C_28
REMARK   12  A    between atoms: C_28  and  O_30
REMARK   13  A    between atoms: O_35  and  C_36
REMARK   14  A    between atoms: C_38  and  O_62
REMARK   15  A    between atoms: C_39  and  O_61
REMARK   16  A    between atoms: C_40  and  O_60
REMARK   17  A    between atoms: C_42  and  C_44
REMARK   18  A    between atoms: C_44  and  O_45
REMARK   19  A    between atoms: O_45  and  C_46
REMARK   20  A    between atoms: C_48  and  O_59
REMARK   21  A    between atoms: C_49  and  O_58
REMARK   22  A    between atoms: C_51  and  O_57
REMARK   23  A    between atoms: C_53  and  C_55
REMARK   24  A    between atoms: C_55  and  O_56
REMARK                            x       y       z     vdW  Elec       q    Type
REMARK                         _______ _______ _______ _____ _____    ______ ____
ROOT
ATOM      1  C   UNL     1       5.696  -0.927  25.402  0.00  0.00    +0.181 A 
ATOM      2  O   UNL     1       5.295   0.367  25.172  0.00  0.00    -0.451 OA
ATOM      3  C   UNL     1       5.852   1.064  24.145  0.00  0.00    +0.147 A 
ATOM      4  C   UNL     1       6.926   0.605  23.396  0.00  0.00    +0.109 A 
ATOM      5  C   UNL     1       7.439   1.434  22.392  0.00  0.00    +0.135 A 
ATOM      6  C   UNL     1       6.800   2.644  22.068  0.00  0.00    +0.092 A 
ATOM      7  C   UNL     1       5.651   3.044  22.771  0.00  0.00    +0.131 A 
ATOM      8  C   UNL     1       7.421  -0.765  23.688  0.00  0.00    +0.238 A 
ATOM      9  O   UNL     1       8.434  -1.193  23.141  0.00  0.00    -0.283 OA
ATOM     10  C   UNL     1       5.260   2.299  23.877  0.00  0.00    +0.093 A 
ATOM     11  C   UNL     1       6.629  -1.573  24.683  0.00  0.00    +0.214 A 
ENDROOT
BRANCH   1  13
ATOM     12  C   UNL     1       3.704  -2.162  26.109  0.00  0.00    +0.015 A 
ATOM     13  C   UNL     1       4.888  -1.509  26.503  0.00  0.00    +0.025 A 
ATOM     14  C   UNL     1       5.083  -1.223  27.865  0.00  0.00    +0.060 A 
ATOM     15  C   UNL     1       4.043  -1.481  28.766  0.00  0.00    +0.159 A 
ATOM     16  C   UNL     1       2.828  -2.005  28.332  0.00  0.00    +0.158 A 
ATOM     17  C   UNL     1       2.667  -2.394  27.013  0.00  0.00    +0.050 A 
BRANCH  16  18
ATOM     18  O   UNL     1       1.797  -2.072  29.227  0.00  0.00    -0.503 OA
ATOM     19  H   UNL     1       2.093  -1.649  30.053  0.00  0.00    +0.292 HD
ENDBRANCH  16  18
BRANCH  15  20
ATOM     20  O   UNL     1       4.183  -1.147  30.086  0.00  0.00    -0.503 OA
ATOM     21  H   UNL     1       3.673  -1.821  30.582  0.00  0.00    +0.292 HD
ENDBRANCH  15  20
ENDBRANCH   1  13
BRANCH   5  22
ATOM     22  O   UNL     1       8.543   1.106  21.654  0.00  0.00    -0.506 OA
ATOM     23  H   UNL     1       8.475   1.542  20.777  0.00  0.00    +0.292 HD
ENDBRANCH   5  22
BRANCH  11  24
ATOM     24  O   UNL     1       7.064  -2.769  25.133  0.00  0.00    -0.453 OA
BRANCH  24  25
ATOM     25  C   UNL     1       6.868  -4.080  24.634  0.00  0.00    +0.340 C 
ATOM     26  O   UNL     1       5.761  -4.686  25.293  0.00  0.00    -0.331 OA
ATOM     27  C   UNL     1       5.891  -4.907  26.717  0.00  0.00    +0.179 C 
ATOM     28  C   UNL     1       7.297  -4.914  27.397  0.00  0.00    +0.177 C 
ATOM     29  C   UNL     1       8.412  -4.381  26.511  0.00  0.00    +0.180 C 
ATOM     30  C   UNL     1       8.116  -4.875  25.066  0.00  0.00    +0.214 C 
BRANCH  30  31
ATOM     31  O   UNL     1       9.233  -4.705  24.203  0.00  0.00    -0.383 OA
ATOM     32  H   UNL     1       9.989  -4.381  24.730  0.00  0.00    +0.210 HD
ENDBRANCH  30  31
BRANCH  29  33
ATOM     33  O   UNL     1       9.675  -4.782  27.046  0.00  0.00    -0.386 OA
ATOM     34  H   UNL     1       9.585  -5.721  27.282  0.00  0.00    +0.210 HD
ENDBRANCH  29  33
BRANCH  28  35
ATOM     35  O   UNL     1       7.712  -6.239  27.788  0.00  0.00    -0.386 OA
ATOM     36  H   UNL     1       8.680  -6.165  27.921  0.00  0.00    +0.210 HD
ENDBRANCH  28  35
BRANCH  27  37
ATOM     37  C   UNL     1       5.196  -6.250  26.987  0.00  0.00    +0.197 C 
BRANCH  37  38
ATOM     38  O   UNL     1       3.920  -6.404  26.359  0.00  0.00    -0.346 OA
BRANCH  38  39
ATOM     39  C   UNL     1       3.815  -7.525  25.472  0.00  0.00    +0.282 C 
ATOM     40  O   UNL     1       4.501  -7.219  24.253  0.00  0.00    -0.341 OA
ATOM     41  C   UNL     1       3.919  -6.148  23.493  0.00  0.00    +0.178 C 
ATOM     42  C   UNL     1       2.422  -6.399  23.199  0.00  0.00    +0.177 C 
ATOM     43  C   UNL     1       1.661  -6.725  24.489  0.00  0.00    +0.179 C 
ATOM     44  C   UNL     1       2.347  -7.908  25.188  0.00  0.00    +0.201 C 
BRANCH  44  45
ATOM     45  O   UNL     1       1.602  -8.301  26.346  0.00  0.00    -0.384 OA
ATOM     46  H   UNL     1       1.667  -9.276  26.412  0.00  0.00    +0.210 HD
ENDBRANCH  44  45
BRANCH  43  47
ATOM     47  O   UNL     1       1.557  -5.582  25.351  0.00  0.00    -0.386 OA
ATOM     48  H   UNL     1       1.354  -5.903  26.263  0.00  0.00    +0.210 HD
ENDBRANCH  43  47
BRANCH  42  49
ATOM     49  O   UNL     1       2.283  -7.506  22.295  0.00  0.00    -0.386 OA
ATOM     50  H   UNL     1       3.147  -7.948  22.211  0.00  0.00    +0.210 HD
ENDBRANCH  42  49
BRANCH  41  51
ATOM     51  C   UNL     1       4.714  -6.008  22.183  0.00  0.00    +0.190 C 
BRANCH  51  52
ATOM     52  O   UNL     1       5.954  -6.718  22.206  0.00  0.00    -0.392 OA
ATOM     53  H   UNL     1       5.968  -7.288  22.992  0.00  0.00    +0.210 HD
ENDBRANCH  51  52
ENDBRANCH  41  51
ENDBRANCH  38  39
ENDBRANCH  37  38
ENDBRANCH  27  37
ENDBRANCH  24  25
ENDBRANCH  11  24
BRANCH   7  54
ATOM     54  O   UNL     1       4.957   4.136  22.278  0.00  0.00    -0.461 OA
BRANCH  54  55
ATOM     55  C   UNL     1       3.613   4.225  22.798  0.00  0.00    +0.340 C 
ATOM     56  O   UNL     1       2.739   3.353  22.056  0.00  0.00    -0.322 OA
ATOM     57  C   UNL     1       2.407   3.901  20.765  0.00  0.00    +0.261 C 
ATOM     58  C   UNL     1       1.523   5.126  20.975  0.00  0.00    +0.185 C 
ATOM     59  C   UNL     1       2.382   6.207  21.643  0.00  0.00    +0.180 C 
ATOM     60  C   UNL     1       3.050   5.668  22.920  0.00  0.00    +0.214 C 
BRANCH  60  61
ATOM     61  O   UNL     1       4.017   6.585  23.438  0.00  0.00    -0.383 OA
ATOM     62  H   UNL     1       3.820   6.725  24.384  0.00  0.00    +0.210 HD
ENDBRANCH  60  61
BRANCH  59  63
ATOM     63  O   UNL     1       3.355   6.750  20.751  0.00  0.00    -0.386 OA
ATOM     64  H   UNL     1       4.250   6.651  21.126  0.00  0.00    +0.210 HD
ENDBRANCH  59  63
BRANCH  58  65
ATOM     65  O   UNL     1       0.451   4.770  21.863  0.00  0.00    -0.386 OA
ATOM     66  H   UNL     1       0.820   4.255  22.602  0.00  0.00    +0.210 HD
ENDBRANCH  58  65
BRANCH  57  67
ATOM     67  C   UNL     1       1.705   2.840  19.929  0.00  0.00    +0.337 C 
ATOM     68  O   UNL     1       1.053   1.912  20.379  0.00  0.00    -0.248 OA
BRANCH  67  69
ATOM     69  O   UNL     1       1.827   3.084  18.598  0.00  0.00    -0.479 OA
ATOM     70  H   UNL     1       1.089   2.616  18.143  0.00  0.00    +0.295 HD
ENDBRANCH  67  69
ENDBRANCH  57  67
ENDBRANCH  54  55
ENDBRANCH   7  54
TORSDOF 24
ENDMDL
MODEL 2
REMARK VINA RESULT:      -7.0      2.530     10.114
REMARK  Name = 
REMARK  24 active torsions:
REMARK  status: ('A' for Active; 'I' for Inactive)
REMARK    1  A    between atoms: C_3  and  O_64
REMARK    2  A    between atoms: C_4  and  O_63
REMARK    3  A    between atoms: C_6  and  C_7
REMARK    4  A    between atoms: C_8  and  O_35
REMARK    5  A    between atoms: C_12  and  O_34
REMARK    6  A    between atoms: C_14  and  O_18
REMARK    7  A    between atoms: O_18  and  C_19
REMARK    8  A    between atoms: C_21  and  O_33
REMARK    9  A    between atoms: C_22  and  O_32
REMARK   10  A    between atoms: C_24  and  O_31
REMARK   11  A    between atoms: C_26  and  C_28
REMARK   12  A    between atoms: C_28  and  O_30
REMARK   13  A    between atoms: O_35  and  C_36
REMARK   14  A    between atoms: C_38  and  O_62
REMARK   15  A    between atoms: C_39  and  O_61
REMARK   16  A    between atoms: C_40  and  O_60
REMARK   17  A    between atoms: C_42  and  C_44
REMARK   18  A    between atoms: C_44  and  O_45
REMARK   19  A    between atoms: O_45  and  C_46
REMARK   20  A    between atoms: C_48  and  O_59
REMARK   21  A    between atoms: C_49  and  O_58
REMARK   22  A    between atoms: C_51  and  O_57
REMARK   23  A    between atoms: C_53  and  C_55
REMARK   24  A    between atoms: C_55  and  O_56
REMARK                            x       y       z     vdW  Elec       q    Type
REMARK                         _______ _______ _______ _____ _____    ______ ____
ROOT
ATOM      1  C   UNL     1       7.361   1.122  25.666  0.00  0.00    +0.181 A 
ATOM      2  O   UNL     1       6.963  -0.159  25.971  0.00  0.00    -0.451 OA
ATOM      3  C   UNL     1       6.080  -0.356  26.986  0.00  0.00    +0.147 A 
ATOM      4  C   UNL     1       5.662   0.644  27.851  0.00  0.00    +0.109 A 
ATOM      5  C   UNL     1       4.782   0.306  28.885  0.00  0.00    +0.135 A 
ATOM      6  C   UNL     1       4.237  -0.988  28.965  0.00  0.00    +0.092 A 
ATOM      7  C   UNL     1       4.593  -1.962  28.018  0.00  0.00    +0.131 A 
ATOM      8  C   UNL     1       6.148   2.022  27.579  0.00  0.00    +0.238 A 
ATOM      9  O   UNL     1       5.907   2.935  28.364  0.00  0.00    -0.283 OA
ATOM     10  C   UNL     1       5.599  -1.661  27.106  0.00  0.00    +0.093 A 
ATOM     11  C   UNL     1       6.945   2.222  26.316  0.00  0.00    +0.214 A 
ENDROOT
BRANCH   1  13
ATOM     12  C   UNL     1       9.613   1.303  24.727  0.00  0.00    +0.015 A 
ATOM     13  C   UNL     1       8.244   1.096  24.473  0.00  0.00    +0.025 A 
ATOM     14  C   UNL     1       7.784   1.150  23.146  0.00  0.00    +0.060 A 
ATOM     15  C   UNL     1       8.677   1.530  22.137  0.00  0.00    +0.159 A 
ATOM     16  C   UNL     1       9.998   1.860  22.430  0.00  0.00    +0.158 A 
ATOM     17  C   UNL     1      10.487   1.702  23.716  0.00  0.00    +0.050 A 
BRANCH  16  18
ATOM     18  O   UNL     1      10.769   2.389  21.433  0.00  0.00    -0.503 OA
ATOM     19  H   UNL     1      10.681   1.811  20.653  0.00  0.00    +0.292 HD
ENDBRANCH  16  18
BRANCH  15  20
ATOM     20  O   UNL     1       8.237   1.657  20.847  0.00  0.00    -0.503 OA
ATOM     21  H   UNL     1       8.977   1.343  20.286  0.00  0.00    +0.292 HD
ENDBRANCH  15  20
ENDBRANCH   1  13
BRANCH   5  22
ATOM     22  O   UNL     1       4.375   1.203  29.835  0.00  0.00    -0.506 OA
ATOM     23  H   UNL     1       3.551   1.636  29.524  0.00  0.00    +0.292 HD
ENDBRANCH   5  22
BRANCH  11  24
ATOM     24  O   UNL     1       7.559   3.392  26.042  0.00  0.00    -0.453 OA
BRANCH  24  25
ATOM     25  C   UNL     1       7.076   4.724  26.063  0.00  0.00    +0.340 C 
ATOM     26  O   UNL     1       5.940   4.838  25.213  0.00  0.00    -0.331 OA
ATOM     27  C   UNL     1       6.155   4.602  23.802  0.00  0.00    +0.179 C 
ATOM     28  C   UNL     1       7.590   4.678  23.191  0.00  0.00    +0.177 C 
ATOM     29  C   UNL     1       8.700   4.706  24.229  0.00  0.00    +0.180 C 
ATOM     30  C   UNL     1       8.187   5.574  25.414  0.00  0.00    +0.214 C 
BRANCH  30  31
ATOM     31  O   UNL     1       9.233   5.930  26.309  0.00  0.00    -0.383 OA
ATOM     32  H   UNL     1      10.056   6.048  25.797  0.00  0.00    +0.210 HD
ENDBRANCH  30  31
BRANCH  29  33
ATOM     33  O   UNL     1       9.909   5.162  23.619  0.00  0.00    -0.386 OA
ATOM     34  H   UNL     1       9.763   5.115  22.658  0.00  0.00    +0.210 HD
ENDBRANCH  29  33
BRANCH  28  35
ATOM     35  O   UNL     1       7.783   5.857  22.383  0.00  0.00    -0.386 OA
ATOM     36  H   UNL     1       7.949   6.573  23.030  0.00  0.00    +0.210 HD
ENDBRANCH  28  35
BRANCH  27  37
ATOM     37  C   UNL     1       5.248   5.609  23.077  0.00  0.00    +0.197 C 
BRANCH  37  38
ATOM     38  O   UNL     1       3.879   5.209  22.960  0.00  0.00    -0.346 OA
BRANCH  38  39
ATOM     39  C   UNL     1       3.644   3.805  23.125  0.00  0.00    +0.282 C 
ATOM     40  O   UNL     1       3.076   3.284  21.918  0.00  0.00    -0.341 OA
ATOM     41  C   UNL     1       1.771   3.797  21.603  0.00  0.00    +0.178 C 
ATOM     42  C   UNL     1       0.779   3.602  22.772  0.00  0.00    +0.177 C 
ATOM     43  C   UNL     1       1.360   4.155  24.077  0.00  0.00    +0.179 C 
ATOM     44  C   UNL     1       2.729   3.505  24.330  0.00  0.00    +0.201 C 
BRANCH  44  45
ATOM     45  O   UNL     1       3.253   3.927  25.594  0.00  0.00    -0.384 OA
ATOM     46  H   UNL     1       3.249   4.906  25.593  0.00  0.00    +0.210 HD
ENDBRANCH  44  45
BRANCH  43  47
ATOM     47  O   UNL     1       1.445   5.588  24.059  0.00  0.00    -0.386 OA
ATOM     48  H   UNL     1       0.747   5.929  23.447  0.00  0.00    +0.210 HD
ENDBRANCH  43  47
BRANCH  42  49
ATOM     49  O   UNL     1       0.506   2.204  22.950  0.00  0.00    -0.386 OA
ATOM     50  H   UNL     1       0.421   2.023  23.903  0.00  0.00    +0.210 HD
ENDBRANCH  42  49
BRANCH  41  51
ATOM     51  C   UNL     1       1.271   3.076  20.338  0.00  0.00    +0.190 C 
BRANCH  51  52
ATOM     52  O   UNL     1       1.589   1.683  20.329  0.00  0.00    -0.392 OA
ATOM     53  H   UNL     1       1.025   1.234  20.980  0.00  0.00    +0.210 HD
ENDBRANCH  51  52
ENDBRANCH  41  51
ENDBRANCH  38  39
ENDBRANCH  37  38
ENDBRANCH  27  37
ENDBRANCH  24  25
ENDBRANCH  11  24
BRANCH   7  54
ATOM     54  O   UNL     1       3.878  -3.148  28.030  0.00  0.00    -0.461 OA
BRANCH  54  55
ATOM     55  C   UNL     1       4.471  -4.150  28.882  0.00  0.00    +0.340 C 
ATOM     56  O   UNL     1       5.761  -4.532  28.371  0.00  0.00    -0.322 OA
ATOM     57  C   UNL     1       5.647  -5.398  27.225  0.00  0.00    +0.261 C 
ATOM     58  C   UNL     1       5.086  -6.738  27.688  0.00  0.00    +0.185 C 
ATOM     59  C   UNL     1       3.639  -6.502  28.138  0.00  0.00    +0.180 C 
ATOM     60  C   UNL     1       3.564  -5.375  29.184  0.00  0.00    +0.214 C 
BRANCH  60  61
ATOM     61  O   UNL     1       2.212  -4.996  29.456  0.00  0.00    -0.383 OA
ATOM     62  H   UNL     1       2.228  -4.118  29.884  0.00  0.00    +0.210 HD
ENDBRANCH  60  61
BRANCH  59  63
ATOM     63  O   UNL     1       2.769  -6.233  27.038  0.00  0.00    -0.386 OA
ATOM     64  H   UNL     1       2.270  -5.409  27.196  0.00  0.00    +0.210 HD
ENDBRANCH  59  63
BRANCH  58  65
ATOM     65  O   UNL     1       5.853  -7.192  28.815  0.00  0.00    -0.386 OA
ATOM     66  H   UNL     1       6.787  -7.252  28.549  0.00  0.00    +0.210 HD
ENDBRANCH  58  65
BRANCH  57  67
ATOM     67  C   UNL     1       7.013  -5.559  26.572  0.00  0.00    +0.337 C 
ATOM     68  O   UNL     1       7.262  -5.323  25.401  0.00  0.00    -0.248 OA
BRANCH  67  69
ATOM     69  O   UNL     1       7.960  -5.935  27.471  0.00  0.00    -0.479 OA
ATOM     70  H   UNL     1       7.949  -6.920  27.518  0.00  0.00    +0.295 HD
ENDBRANCH  67  69
ENDBRANCH  57  67
ENDBRANCH  54  55
ENDBRANCH   7  54
TORSDOF 24
ENDMDL
MODEL 3
REMARK VINA RESULT:      -7.0      2.715      4.377
REMARK  Name = 
REMARK  24 active torsions:
REMARK  status: ('A' for Active; 'I' for Inactive)
REMARK    1  A    between atoms: C_3  and  O_64
REMARK    2  A    between atoms: C_4  and  O_63
REMARK    3  A    between atoms: C_6  and  C_7
REMARK    4  A    between atoms: C_8  and  O_35
REMARK    5  A    between atoms: C_12  and  O_34
REMARK    6  A    between atoms: C_14  and  O_18
REMARK    7  A    between atoms: O_18  and  C_19
REMARK    8  A    between atoms: C_21  and  O_33
REMARK    9  A    between atoms: C_22  and  O_32
REMARK   10  A    between atoms: C_24  and  O_31
REMARK   11  A    between atoms: C_26  and  C_28
REMARK   12  A    between atoms: C_28  and  O_30
REMARK   13  A    between atoms: O_35  and  C_36
REMARK   14  A    between atoms: C_38  and  O_62
REMARK   15  A    between atoms: C_39  and  O_61
REMARK   16  A    between atoms: C_40  and  O_60
REMARK   17  A    between atoms: C_42  and  C_44
REMARK   18  A    between atoms: C_44  and  O_45
REMARK   19  A    between atoms: O_45  and  C_46
REMARK   20  A    between atoms: C_48  and  O_59
REMARK   21  A    between atoms: C_49  and  O_58
REMARK   22  A    between atoms: C_51  and  O_57
REMARK   23  A    between atoms: C_53  and  C_55
REMARK   24  A    between atoms: C_55  and  O_56
REMARK                            x       y       z     vdW  Elec       q    Type
REMARK                         _______ _______ _______ _____ _____    ______ ____
ROOT
ATOM      1  C   UNL     1       7.619  -2.027  24.699  0.00  0.00    +0.181 A 
ATOM      2  O   UNL     1       8.401  -0.957  25.065  0.00  0.00    -0.451 OA
ATOM      3  C   UNL     1       8.716  -0.014  24.137  0.00  0.00    +0.147 A 
ATOM      4  C   UNL     1       8.427  -0.136  22.786  0.00  0.00    +0.109 A 
ATOM      5  C   UNL     1       8.842   0.884  21.922  0.00  0.00    +0.135 A 
ATOM      6  C   UNL     1       9.421   2.060  22.431  0.00  0.00    +0.092 A 
ATOM      7  C   UNL     1       9.612   2.209  23.815  0.00  0.00    +0.131 A 
ATOM      8  C   UNL     1       7.649  -1.329  22.364  0.00  0.00    +0.238 A 
ATOM      9  O   UNL     1       7.453  -1.557  21.173  0.00  0.00    -0.283 OA
ATOM     10  C   UNL     1       9.358   1.119  24.639  0.00  0.00    +0.093 A 
ATOM     11  C   UNL     1       7.139  -2.228  23.460  0.00  0.00    +0.214 A 
ENDROOT
BRANCH   1  13
ATOM     12  C   UNL     1       8.202  -3.954  26.090  0.00  0.00    +0.015 A 
ATOM     13  C   UNL     1       7.333  -2.864  25.890  0.00  0.00    +0.025 A 
ATOM     14  C   UNL     1       6.144  -2.799  26.637  0.00  0.00    +0.060 A 
ATOM     15  C   UNL     1       5.802  -3.879  27.459  0.00  0.00    +0.159 A 
ATOM     16  C   UNL     1       6.613  -5.009  27.540  0.00  0.00    +0.158 A 
ATOM     17  C   UNL     1       7.839  -5.034  26.896  0.00  0.00    +0.050 A 
BRANCH  16  18
ATOM     18  O   UNL     1       6.142  -6.096  28.220  0.00  0.00    -0.503 OA
ATOM     19  H   UNL     1       5.204  -6.211  27.983  0.00  0.00    +0.292 HD
ENDBRANCH  16  18
BRANCH  15  20
ATOM     20  O   UNL     1       4.616  -3.870  28.143  0.00  0.00    -0.503 OA
ATOM     21  H   UNL     1       4.861  -3.821  29.091  0.00  0.00    +0.292 HD
ENDBRANCH  15  20
ENDBRANCH   1  13
BRANCH   5  22
ATOM     22  O   UNL     1       8.675   0.819  20.566  0.00  0.00    -0.506 OA
ATOM     23  H   UNL     1       9.207   0.070  20.221  0.00  0.00    +0.292 HD
ENDBRANCH   5  22
BRANCH  11  24
ATOM     24  O   UNL     1       6.550  -3.412  23.191  0.00  0.00    -0.453 OA
BRANCH  24  25
ATOM     25  C   UNL     1       5.294  -3.716  22.609  0.00  0.00    +0.340 C 
ATOM     26  O   UNL     1       4.320  -3.893  23.632  0.00  0.00    -0.331 OA
ATOM     27  C   UNL     1       4.523  -4.999  24.542  0.00  0.00    +0.179 C 
ATOM     28  C   UNL     1       5.468  -6.182  24.160  0.00  0.00    +0.177 C 
ATOM     29  C   UNL     1       6.341  -5.905  22.947  0.00  0.00    +0.180 C 
ATOM     30  C   UNL     1       5.474  -5.095  21.942  0.00  0.00    +0.214 C 
BRANCH  30  31
ATOM     31  O   UNL     1       6.066  -5.034  20.650  0.00  0.00    -0.383 OA
ATOM     32  H   UNL     1       5.358  -4.930  19.986  0.00  0.00    +0.210 HD
ENDBRANCH  30  31
BRANCH  29  33
ATOM     33  O   UNL     1       6.864  -7.137  22.447  0.00  0.00    -0.386 OA
ATOM     34  H   UNL     1       6.825  -7.075  21.477  0.00  0.00    +0.210 HD
ENDBRANCH  29  33
BRANCH  28  35
ATOM     35  O   UNL     1       4.742  -7.389  23.848  0.00  0.00    -0.386 OA
ATOM     36  H   UNL     1       3.812  -7.098  23.755  0.00  0.00    +0.210 HD
ENDBRANCH  28  35
BRANCH  27  37
ATOM     37  C   UNL     1       3.119  -5.553  24.832  0.00  0.00    +0.197 C 
BRANCH  37  38
ATOM     38  O   UNL     1       2.783  -5.645  26.219  0.00  0.00    -0.346 OA
BRANCH  38  39
ATOM     39  C   UNL     1       3.192  -6.859  26.859  0.00  0.00    +0.282 C 
ATOM     40  O   UNL     1       2.712  -7.972  26.097  0.00  0.00    -0.341 OA
ATOM     41  C   UNL     1       1.281  -8.093  26.054  0.00  0.00    +0.178 C 
ATOM     42  C   UNL     1       0.664  -8.129  27.471  0.00  0.00    +0.177 C 
ATOM     43  C   UNL     1       1.158  -6.946  28.310  0.00  0.00    +0.179 C 
ATOM     44  C   UNL     1       2.694  -6.945  28.318  0.00  0.00    +0.201 C 
BRANCH  44  45
ATOM     45  O   UNL     1       3.186  -5.909  29.175  0.00  0.00    -0.384 OA
ATOM     46  H   UNL     1       2.405  -5.435  29.528  0.00  0.00    +0.210 HD
ENDBRANCH  44  45
BRANCH  43  47
ATOM     47  O   UNL     1       0.625  -5.698  27.838  0.00  0.00    -0.386 OA
ATOM     48  H   UNL     1      -0.361  -5.755  27.869  0.00  0.00    +0.210 HD
ENDBRANCH  43  47
BRANCH  42  49
ATOM     49  O   UNL     1       1.039  -9.346  28.133  0.00  0.00    -0.386 OA
ATOM     50  H   UNL     1       1.001 -10.075  27.489  0.00  0.00    +0.210 HD
ENDBRANCH  42  49
BRANCH  41  51
ATOM     51  C   UNL     1       0.936  -9.377  25.278  0.00  0.00    +0.190 C 
BRANCH  51  52
ATOM     52  O   UNL     1       1.976 -10.356  25.332  0.00  0.00    -0.392 OA
ATOM     53  H   UNL     1       2.289 -10.522  24.427  0.00  0.00    +0.210 HD
ENDBRANCH  51  52
ENDBRANCH  41  51
ENDBRANCH  38  39
ENDBRANCH  37  38
ENDBRANCH  27  37
ENDBRANCH  24  25
ENDBRANCH  11  24
BRANCH   7  54
ATOM     54  O   UNL     1       9.999   3.459  24.269  0.00  0.00    -0.461 OA
BRANCH  54  55
ATOM     55  C   UNL     1       8.952   4.139  24.995  0.00  0.00    +0.340 C 
ATOM     56  O   UNL     1       7.663   3.693  24.534  0.00  0.00    -0.322 OA
ATOM     57  C   UNL     1       7.322   4.271  23.258  0.00  0.00    +0.261 C 
ATOM     58  C   UNL     1       7.085   5.764  23.454  0.00  0.00    +0.185 C 
ATOM     59  C   UNL     1       8.431   6.402  23.818  0.00  0.00    +0.180 C 
ATOM     60  C   UNL     1       9.072   5.688  25.022  0.00  0.00    +0.214 C 
BRANCH  60  61
ATOM     61  O   UNL     1      10.415   6.125  25.242  0.00  0.00    -0.383 OA
ATOM     62  H   UNL     1      10.749   5.675  26.042  0.00  0.00    +0.210 HD
ENDBRANCH  60  61
BRANCH  59  63
ATOM     63  O   UNL     1       9.331   6.435  22.709  0.00  0.00    -0.386 OA
ATOM     64  H   UNL     1      10.252   6.495  23.024  0.00  0.00    +0.210 HD
ENDBRANCH  59  63
BRANCH  58  65
ATOM     65  O   UNL     1       6.175   5.944  24.552  0.00  0.00    -0.386 OA
ATOM     66  H   UNL     1       5.439   5.315  24.449  0.00  0.00    +0.210 HD
ENDBRANCH  58  65
BRANCH  57  67
ATOM     67  C   UNL     1       6.087   3.577  22.700  0.00  0.00    +0.337 C 
ATOM     68  O   UNL     1       5.871   2.377  22.763  0.00  0.00    -0.248 OA
BRANCH  67  69
ATOM     69  O   UNL     1       5.202   4.464  22.177  0.00  0.00    -0.479 OA
ATOM     70  H   UNL     1       4.850   4.073  21.344  0.00  0.00    +0.295 HD
ENDBRANCH  67  69
ENDBRANCH  57  67
ENDBRANCH  54  55
ENDBRANCH   7  54
TORSDOF 24
ENDMDL
MODEL 4
REMARK VINA RESULT:      -6.9      2.633      6.789
REMARK  Name = 
REMARK  24 active torsions:
REMARK  status: ('A' for Active; 'I' for Inactive)
REMARK    1  A    between atoms: C_3  and  O_64
REMARK    2  A    between atoms: C_4  and  O_63
REMARK    3  A    between atoms: C_6  and  C_7
REMARK    4  A    between atoms: C_8  and  O_35
REMARK    5  A    between atoms: C_12  and  O_34
REMARK    6  A    between atoms: C_14  and  O_18
REMARK    7  A    between atoms: O_18  and  C_19
REMARK    8  A    between atoms: C_21  and  O_33
REMARK    9  A    between atoms: C_22  and  O_32
REMARK   10  A    between atoms: C_24  and  O_31
REMARK   11  A    between atoms: C_26  and  C_28
REMARK   12  A    between atoms: C_28  and  O_30
REMARK   13  A    between atoms: O_35  and  C_36
REMARK   14  A    between atoms: C_38  and  O_62
REMARK   15  A    between atoms: C_39  and  O_61
REMARK   16  A    between atoms: C_40  and  O_60
REMARK   17  A    between atoms: C_42  and  C_44
REMARK   18  A    between atoms: C_44  and  O_45
REMARK   19  A    between atoms: O_45  and  C_46
REMARK   20  A    between atoms: C_48  and  O_59
REMARK   21  A    between atoms: C_49  and  O_58
REMARK   22  A    between atoms: C_51  and  O_57
REMARK   23  A    between atoms: C_53  and  C_55
REMARK   24  A    between atoms: C_55  and  O_56
REMARK                            x       y       z     vdW  Elec       q    Type
REMARK                         _______ _______ _______ _____ _____    ______ ____
ROOT
ATOM      1  C   UNL     1       5.512  -2.494  26.239  0.00  0.00    +0.181 A 
ATOM      2  O   UNL     1       4.505  -1.605  26.533  0.00  0.00    -0.451 OA
ATOM      3  C   UNL     1       4.826  -0.352  26.950  0.00  0.00    +0.147 A 
ATOM      4  C   UNL     1       6.118   0.053  27.253  0.00  0.00    +0.109 A 
ATOM      5  C   UNL     1       6.315   1.360  27.715  0.00  0.00    +0.135 A 
ATOM      6  C   UNL     1       5.249   2.275  27.748  0.00  0.00    +0.092 A 
ATOM      7  C   UNL     1       3.965   1.875  27.340  0.00  0.00    +0.131 A 
ATOM      8  C   UNL     1       7.209  -0.926  27.013  0.00  0.00    +0.238 A 
ATOM      9  O   UNL     1       8.361  -0.676  27.359  0.00  0.00    -0.283 OA
ATOM     10  C   UNL     1       3.751   0.532  27.053  0.00  0.00    +0.093 A 
ATOM     11  C   UNL     1       6.823  -2.221  26.345  0.00  0.00    +0.214 A 
ENDROOT
BRANCH   1  13
ATOM     12  C   UNL     1       5.177  -4.906  26.488  0.00  0.00    +0.015 A 
ATOM     13  C   UNL     1       4.925  -3.754  25.718  0.00  0.00    +0.025 A 
ATOM     14  C   UNL     1       4.393  -3.906  24.426  0.00  0.00    +0.060 A 
ATOM     15  C   UNL     1       4.250  -5.195  23.900  0.00  0.00    +0.159 A 
ATOM     16  C   UNL     1       4.632  -6.318  24.632  0.00  0.00    +0.158 A 
ATOM     17  C   UNL     1       5.051  -6.185  25.945  0.00  0.00    +0.050 A 
BRANCH  16  18
ATOM     18  O   UNL     1       4.631  -7.531  24.002  0.00  0.00    -0.503 OA
ATOM     19  H   UNL     1       4.386  -8.207  24.660  0.00  0.00    +0.292 HD
ENDBRANCH  16  18
BRANCH  15  20
ATOM     20  O   UNL     1       3.800  -5.366  22.620  0.00  0.00    -0.503 OA
ATOM     21  H   UNL     1       4.606  -5.445  22.067  0.00  0.00    +0.292 HD
ENDBRANCH  15  20
ENDBRANCH   1  13
BRANCH   5  22
ATOM     22  O   UNL     1       7.538   1.827  28.113  0.00  0.00    -0.506 OA
ATOM     23  H   UNL     1       7.600   2.779  27.883  0.00  0.00    +0.292 HD
ENDBRANCH   5  22
BRANCH  11  24
ATOM     24  O   UNL     1       7.699  -3.239  26.211  0.00  0.00    -0.453 OA
BRANCH  24  25
ATOM     25  C   UNL     1       9.070  -3.248  25.854  0.00  0.00    +0.340 C 
ATOM     26  O   UNL     1       9.390  -2.056  25.145  0.00  0.00    -0.331 OA
ATOM     27  C   UNL     1       8.734  -1.859  23.871  0.00  0.00    +0.179 C 
ATOM     28  C   UNL     1       8.088  -3.062  23.113  0.00  0.00    +0.177 C 
ATOM     29  C   UNL     1       7.953  -4.319  23.956  0.00  0.00    +0.180 C 
ATOM     30  C   UNL     1       9.225  -4.404  24.847  0.00  0.00    +0.214 C 
BRANCH  30  31
ATOM     31  O   UNL     1       9.367  -5.681  25.457  0.00  0.00    -0.383 OA
ATOM     32  H   UNL     1      10.167  -6.111  25.098  0.00  0.00    +0.210 HD
ENDBRANCH  30  31
BRANCH  29  33
ATOM     33  O   UNL     1       7.731  -5.443  23.101  0.00  0.00    -0.386 OA
ATOM     34  H   UNL     1       7.584  -5.081  22.210  0.00  0.00    +0.210 HD
ENDBRANCH  29  33
BRANCH  28  35
ATOM     35  O   UNL     1       8.849  -3.453  21.951  0.00  0.00    -0.386 OA
ATOM     36  H   UNL     1       8.709  -2.727  21.310  0.00  0.00    +0.210 HD
ENDBRANCH  28  35
BRANCH  27  37
ATOM     37  C   UNL     1       9.788  -1.204  22.965  0.00  0.00    +0.197 C 
BRANCH  37  38
ATOM     38  O   UNL     1      10.106   0.151  23.295  0.00  0.00    -0.346 OA
BRANCH  38  39
ATOM     39  C   UNL     1       9.568   1.133  22.401  0.00  0.00    +0.282 C 
ATOM     40  O   UNL     1      10.520   2.190  22.242  0.00  0.00    -0.341 OA
ATOM     41  C   UNL     1      10.779   2.945  23.436  0.00  0.00    +0.178 C 
ATOM     42  C   UNL     1       9.477   3.507  24.053  0.00  0.00    +0.177 C 
ATOM     43  C   UNL     1       8.439   2.395  24.239  0.00  0.00    +0.179 C 
ATOM     44  C   UNL     1       8.215   1.690  22.893  0.00  0.00    +0.201 C 
BRANCH  44  45
ATOM     45  O   UNL     1       7.177   0.711  23.012  0.00  0.00    -0.384 OA
ATOM     46  H   UNL     1       7.260   0.313  23.902  0.00  0.00    +0.210 HD
ENDBRANCH  44  45
BRANCH  43  47
ATOM     47  O   UNL     1       8.825   1.472  25.269  0.00  0.00    -0.386 OA
ATOM     48  H   UNL     1       9.640   0.999  24.968  0.00  0.00    +0.210 HD
ENDBRANCH  43  47
BRANCH  42  49
ATOM     49  O   UNL     1       8.923   4.510  23.189  0.00  0.00    -0.386 OA
ATOM     50  H   UNL     1       9.034   4.220  22.266  0.00  0.00    +0.210 HD
ENDBRANCH  42  49
BRANCH  41  51
ATOM     51  C   UNL     1      11.747   4.087  23.075  0.00  0.00    +0.190 C 
BRANCH  51  52
ATOM     52  O   UNL     1      11.453   5.304  23.765  0.00  0.00    -0.392 OA
ATOM     53  H   UNL     1      11.105   5.945  23.123  0.00  0.00    +0.210 HD
ENDBRANCH  51  52
ENDBRANCH  41  51
ENDBRANCH  38  39
ENDBRANCH  37  38
ENDBRANCH  27  37
ENDBRANCH  24  25
ENDBRANCH  11  24
BRANCH   7  54
ATOM     54  O   UNL     1       3.007   2.866  27.206  0.00  0.00    -0.461 OA
BRANCH  54  55
ATOM     55  C   UNL     1       2.262   2.761  25.974  0.00  0.00    +0.340 C 
ATOM     56  O   UNL     1       3.167   2.655  24.859  0.00  0.00    -0.322 OA
ATOM     57  C   UNL     1       3.764   3.926  24.533  0.00  0.00    +0.261 C 
ATOM     58  C   UNL     1       2.679   4.838  23.970  0.00  0.00    +0.185 C 
ATOM     59  C   UNL     1       1.703   5.152  25.110  0.00  0.00    +0.180 C 
ATOM     60  C   UNL     1       1.184   3.859  25.763  0.00  0.00    +0.214 C 
BRANCH  60  61
ATOM     61  O   UNL     1       0.444   4.130  26.957  0.00  0.00    -0.383 OA
ATOM     62  H   UNL     1       0.140   3.276  27.321  0.00  0.00    +0.210 HD
ENDBRANCH  60  61
BRANCH  59  63
ATOM     63  O   UNL     1       2.277   6.020  26.089  0.00  0.00    -0.386 OA
ATOM     64  H   UNL     1       1.592   6.327  26.711  0.00  0.00    +0.210 HD
ENDBRANCH  59  63
BRANCH  58  65
ATOM     65  O   UNL     1       1.974   4.129  22.938  0.00  0.00    -0.386 OA
ATOM     66  H   UNL     1       2.034   3.175  23.123  0.00  0.00    +0.210 HD
ENDBRANCH  58  65
BRANCH  57  67
ATOM     67  C   UNL     1       4.892   3.715  23.533  0.00  0.00    +0.337 C 
ATOM     68  O   UNL     1       5.854   4.454  23.396  0.00  0.00    -0.248 OA
BRANCH  67  69
ATOM     69  O   UNL     1       4.745   2.553  22.844  0.00  0.00    -0.479 OA
ATOM     70  H   UNL     1       4.437   1.868  23.482  0.00  0.00    +0.295 HD
ENDBRANCH  67  69
ENDBRANCH  57  67
ENDBRANCH  54  55
ENDBRANCH   7  54
TORSDOF 24
ENDMDL
MODEL 5
REMARK VINA RESULT:      -6.9      2.721      7.003
REMARK  Name = 
REMARK  24 active torsions:
REMARK  status: ('A' for Active; 'I' for Inactive)
REMARK    1  A    between atoms: C_3  and  O_64
REMARK    2  A    between atoms: C_4  and  O_63
REMARK    3  A    between atoms: C_6  and  C_7
REMARK    4  A    between atoms: C_8  and  O_35
REMARK    5  A    between atoms: C_12  and  O_34
REMARK    6  A    between atoms: C_14  and  O_18
REMARK    7  A    between atoms: O_18  and  C_19
REMARK    8  A    between atoms: C_21  and  O_33
REMARK    9  A    between atoms: C_22  and  O_32
REMARK   10  A    between atoms: C_24  and  O_31
REMARK   11  A    between atoms: C_26  and  C_28
REMARK   12  A    between atoms: C_28  and  O_30
REMARK   13  A    between atoms: O_35  and  C_36
REMARK   14  A    between atoms: C_38  and  O_62
REMARK   15  A    between atoms: C_39  and  O_61
REMARK   16  A    between atoms: C_40  and  O_60
REMARK   17  A    between atoms: C_42  and  C_44
REMARK   18  A    between atoms: C_44  and  O_45
REMARK   19  A    between atoms: O_45  and  C_46
REMARK   20  A    between atoms: C_48  and  O_59
REMARK   21  A    between atoms: C_49  and  O_58
REMARK   22  A    between atoms: C_51  and  O_57
REMARK   23  A    between atoms: C_53  and  C_55
REMARK   24  A    between atoms: C_55  and  O_56
REMARK                            x       y       z     vdW  Elec       q    Type
REMARK                         _______ _______ _______ _____ _____    ______ ____
ROOT
ATOM      1  C   UNL     1       5.520  -2.664  26.529  0.00  0.00    +0.181 A 
ATOM      2  O   UNL     1       4.560  -1.898  27.147  0.00  0.00    -0.451 OA
ATOM      3  C   UNL     1       4.902  -0.680  27.646  0.00  0.00    +0.147 A 
ATOM      4  C   UNL     1       6.206  -0.213  27.714  0.00  0.00    +0.109 A 
ATOM      5  C   UNL     1       6.434   1.043  28.290  0.00  0.00    +0.135 A 
ATOM      6  C   UNL     1       5.356   1.861  28.671  0.00  0.00    +0.092 A 
ATOM      7  C   UNL     1       4.036   1.412  28.500  0.00  0.00    +0.131 A 
ATOM      8  C   UNL     1       7.265  -1.068  27.119  0.00  0.00    +0.238 A 
ATOM      9  O   UNL     1       8.450  -0.770  27.240  0.00  0.00    -0.283 OA
ATOM     10  C   UNL     1       3.832   0.098  28.092  0.00  0.00    +0.093 A 
ATOM     11  C   UNL     1       6.806  -2.302  26.387  0.00  0.00    +0.214 A 
ENDROOT
BRANCH   1  13
ATOM     12  C   UNL     1       5.315  -5.102  26.583  0.00  0.00    +0.015 A 
ATOM     13  C   UNL     1       4.897  -3.897  25.987  0.00  0.00    +0.025 A 
ATOM     14  C   UNL     1       4.161  -3.952  24.791  0.00  0.00    +0.060 A 
ATOM     15  C   UNL     1       3.976  -5.192  24.167  0.00  0.00    +0.159 A 
ATOM     16  C   UNL     1       4.513  -6.358  24.708  0.00  0.00    +0.158 A 
ATOM     17  C   UNL     1       5.143  -6.329  25.941  0.00  0.00    +0.050 A 
BRANCH  16  18
ATOM     18  O   UNL     1       4.448  -7.504  23.966  0.00  0.00    -0.503 OA
ATOM     19  H   UNL     1       4.005  -7.288  23.126  0.00  0.00    +0.292 HD
ENDBRANCH  16  18
BRANCH  15  20
ATOM     20  O   UNL     1       3.322  -5.263  22.967  0.00  0.00    -0.503 OA
ATOM     21  H   UNL     1       3.272  -4.340  22.641  0.00  0.00    +0.292 HD
ENDBRANCH  15  20
ENDBRANCH   1  13
BRANCH   5  22
ATOM     22  O   UNL     1       7.689   1.556  28.474  0.00  0.00    -0.506 OA
ATOM     23  H   UNL     1       7.840   2.262  27.810  0.00  0.00    +0.292 HD
ENDBRANCH   5  22
BRANCH  11  24
ATOM     24  O   UNL     1       7.681  -3.226  25.935  0.00  0.00    -0.453 OA
BRANCH  24  25
ATOM     25  C   UNL     1       8.937  -3.085  25.294  0.00  0.00    +0.340 C 
ATOM     26  O   UNL     1       8.953  -1.887  24.525  0.00  0.00    -0.331 OA
ATOM     27  C   UNL     1       8.023  -1.811  23.419  0.00  0.00    +0.179 C 
ATOM     28  C   UNL     1       7.383  -3.105  22.824  0.00  0.00    +0.177 C 
ATOM     29  C   UNL     1       7.583  -4.342  23.686  0.00  0.00    +0.180 C 
ATOM     30  C   UNL     1       9.015  -4.248  24.285  0.00  0.00    +0.214 C 
BRANCH  30  31
ATOM     31  O   UNL     1       9.438  -5.478  24.859  0.00  0.00    -0.383 OA
ATOM     32  H   UNL     1      10.114  -5.878  24.279  0.00  0.00    +0.210 HD
ENDBRANCH  30  31
BRANCH  29  33
ATOM     33  O   UNL     1       7.324  -5.511  22.905  0.00  0.00    -0.386 OA
ATOM     34  H   UNL     1       7.467  -5.255  21.978  0.00  0.00    +0.210 HD
ENDBRANCH  29  33
BRANCH  28  35
ATOM     35  O   UNL     1       7.923  -3.442  21.530  0.00  0.00    -0.386 OA
ATOM     36  H   UNL     1       8.502  -4.214  21.699  0.00  0.00    +0.210 HD
ENDBRANCH  28  35
BRANCH  27  37
ATOM     37  C   UNL     1       8.775  -1.066  22.304  0.00  0.00    +0.197 C 
BRANCH  37  38
ATOM     38  O   UNL     1       8.901   0.345  22.504  0.00  0.00    -0.346 OA
BRANCH  38  39
ATOM     39  C   UNL     1       8.107   0.878  23.570  0.00  0.00    +0.282 C 
ATOM     40  O   UNL     1       7.122   1.760  23.021  0.00  0.00    -0.341 OA
ATOM     41  C   UNL     1       7.658   2.937  22.396  0.00  0.00    +0.178 C 
ATOM     42  C   UNL     1       8.586   3.723  23.350  0.00  0.00    +0.177 C 
ATOM     43  C   UNL     1       9.654   2.803  23.951  0.00  0.00    +0.179 C 
ATOM     44  C   UNL     1       8.963   1.609  24.626  0.00  0.00    +0.201 C 
BRANCH  44  45
ATOM     45  O   UNL     1       9.930   0.782  25.283  0.00  0.00    -0.384 OA
ATOM     46  H   UNL     1      10.812   1.065  24.965  0.00  0.00    +0.210 HD
ENDBRANCH  44  45
BRANCH  43  47
ATOM     47  O   UNL     1      10.610   2.381  22.966  0.00  0.00    -0.386 OA
ATOM     48  H   UNL     1      10.120   1.922  22.241  0.00  0.00    +0.210 HD
ENDBRANCH  43  47
BRANCH  42  49
ATOM     49  O   UNL     1       7.815   4.288  24.422  0.00  0.00    -0.386 OA
ATOM     50  H   UNL     1       8.104   3.884  25.259  0.00  0.00    +0.210 HD
ENDBRANCH  42  49
BRANCH  41  51
ATOM     51  C   UNL     1       6.477   3.813  21.942  0.00  0.00    +0.190 C 
BRANCH  51  52
ATOM     52  O   UNL     1       6.772   5.211  21.983  0.00  0.00    -0.392 OA
ATOM     53  H   UNL     1       7.404   5.371  22.704  0.00  0.00    +0.210 HD
ENDBRANCH  51  52
ENDBRANCH  41  51
ENDBRANCH  38  39
ENDBRANCH  37  38
ENDBRANCH  27  37
ENDBRANCH  24  25
ENDBRANCH  11  24
BRANCH   7  54
ATOM     54  O   UNL     1       3.022   2.333  28.706  0.00  0.00    -0.461 OA
BRANCH  54  55
ATOM     55  C   UNL     1       2.178   2.503  27.548  0.00  0.00    +0.340 C 
ATOM     56  O   UNL     1       2.986   2.685  26.371  0.00  0.00    -0.322 OA
ATOM     57  C   UNL     1       3.549   4.011  26.307  0.00  0.00    +0.261 C 
ATOM     58  C   UNL     1       2.417   5.003  26.065  0.00  0.00    +0.185 C 
ATOM     59  C   UNL     1       1.538   5.017  27.323  0.00  0.00    +0.180 C 
ATOM     60  C   UNL     1       1.081   3.594  27.690  0.00  0.00    +0.214 C 
BRANCH  60  61
ATOM     61  O   UNL     1       0.443   3.559  28.970  0.00  0.00    -0.383 OA
ATOM     62  H   UNL     1      -0.520   3.627  28.826  0.00  0.00    +0.210 HD
ENDBRANCH  60  61
BRANCH  59  63
ATOM     63  O   UNL     1       2.189   5.643  28.429  0.00  0.00    -0.386 OA
ATOM     64  H   UNL     1       1.533   6.088  28.998  0.00  0.00    +0.210 HD
ENDBRANCH  59  63
BRANCH  58  65
ATOM     65  O   UNL     1       1.631   4.540  24.955  0.00  0.00    -0.386 OA
ATOM     66  H   UNL     1       0.861   4.056  25.302  0.00  0.00    +0.210 HD
ENDBRANCH  58  65
BRANCH  57  67
ATOM     67  C   UNL     1       4.590   4.068  25.198  0.00  0.00    +0.337 C 
ATOM     68  O   UNL     1       4.788   5.029  24.472  0.00  0.00    -0.248 OA
BRANCH  67  69
ATOM     69  O   UNL     1       5.338   2.935  25.149  0.00  0.00    -0.479 OA
ATOM     70  H   UNL     1       5.024   2.406  24.379  0.00  0.00    +0.295 HD
ENDBRANCH  67  69
ENDBRANCH  57  67
ENDBRANCH  54  55
ENDBRANCH   7  54
TORSDOF 24
ENDMDL
MODEL 6
REMARK VINA RESULT:      -6.7      2.604     10.423
REMARK  Name = 
REMARK  24 active torsions:
REMARK  status: ('A' for Active; 'I' for Inactive)
REMARK    1  A    between atoms: C_3  and  O_64
REMARK    2  A    between atoms: C_4  and  O_63
REMARK    3  A    between atoms: C_6  and  C_7
REMARK    4  A    between atoms: C_8  and  O_35
REMARK    5  A    between atoms: C_12  and  O_34
REMARK    6  A    between atoms: C_14  and  O_18
REMARK    7  A    between atoms: O_18  and  C_19
REMARK    8  A    between atoms: C_21  and  O_33
REMARK    9  A    between atoms: C_22  and  O_32
REMARK   10  A    between atoms: C_24  and  O_31
REMARK   11  A    between atoms: C_26  and  C_28
REMARK   12  A    between atoms: C_28  and  O_30
REMARK   13  A    between atoms: O_35  and  C_36
REMARK   14  A    between atoms: C_38  and  O_62
REMARK   15  A    between atoms: C_39  and  O_61
REMARK   16  A    between atoms: C_40  and  O_60
REMARK   17  A    between atoms: C_42  and  C_44
REMARK   18  A    between atoms: C_44  and  O_45
REMARK   19  A    between atoms: O_45  and  C_46
REMARK   20  A    between atoms: C_48  and  O_59
REMARK   21  A    between atoms: C_49  and  O_58
REMARK   22  A    between atoms: C_51  and  O_57
REMARK   23  A    between atoms: C_53  and  C_55
REMARK   24  A    between atoms: C_55  and  O_56
REMARK                            x       y       z     vdW  Elec       q    Type
REMARK                         _______ _______ _______ _____ _____    ______ ____
ROOT
ATOM      1  C   UNL     1       7.364   1.170  25.692  0.00  0.00    +0.181 A 
ATOM      2  O   UNL     1       6.978  -0.116  25.988  0.00  0.00    -0.451 OA
ATOM      3  C   UNL     1       6.090  -0.328  26.996  0.00  0.00    +0.147 A 
ATOM      4  C   UNL     1       5.656   0.665  27.862  0.00  0.00    +0.109 A 
ATOM      5  C   UNL     1       4.772   0.312  28.889  0.00  0.00    +0.135 A 
ATOM      6  C   UNL     1       4.240  -0.987  28.960  0.00  0.00    +0.092 A 
ATOM      7  C   UNL     1       4.613  -1.953  28.010  0.00  0.00    +0.131 A 
ATOM      8  C   UNL     1       6.129   2.048  27.600  0.00  0.00    +0.238 A 
ATOM      9  O   UNL     1       5.873   2.956  28.388  0.00  0.00    -0.283 OA
ATOM     10  C   UNL     1       5.623  -1.638  27.107  0.00  0.00    +0.093 A 
ATOM     11  C   UNL     1       6.933   2.263  26.344  0.00  0.00    +0.214 A 
ENDROOT
BRANCH   1  13
ATOM     12  C   UNL     1       9.627   1.334  24.775  0.00  0.00    +0.015 A 
ATOM     13  C   UNL     1       8.256   1.159  24.506  0.00  0.00    +0.025 A 
ATOM     14  C   UNL     1       7.808   1.256  23.177  0.00  0.00    +0.060 A 
ATOM     15  C   UNL     1       8.715   1.646  22.184  0.00  0.00    +0.159 A 
ATOM     16  C   UNL     1      10.040   1.944  22.496  0.00  0.00    +0.158 A 
ATOM     17  C   UNL     1      10.516   1.744  23.780  0.00  0.00    +0.050 A 
BRANCH  16  18
ATOM     18  O   UNL     1      10.827   2.484  21.518  0.00  0.00    -0.503 OA
ATOM     19  H   UNL     1      11.731   2.559  21.873  0.00  0.00    +0.292 HD
ENDBRANCH  16  18
BRANCH  15  20
ATOM     20  O   UNL     1       8.287   1.814  20.895  0.00  0.00    -0.503 OA
ATOM     21  H   UNL     1       8.548   0.995  20.424  0.00  0.00    +0.292 HD
ENDBRANCH  15  20
ENDBRANCH   1  13
BRANCH   5  22
ATOM     22  O   UNL     1       4.349   1.201  29.839  0.00  0.00    -0.506 OA
ATOM     23  H   UNL     1       5.041   1.888  29.956  0.00  0.00    +0.292 HD
ENDBRANCH   5  22
BRANCH  11  24
ATOM     24  O   UNL     1       7.536   3.441  26.080  0.00  0.00    -0.453 OA
BRANCH  24  25
ATOM     25  C   UNL     1       7.032   4.765  26.079  0.00  0.00    +0.340 C 
ATOM     26  O   UNL     1       6.040   4.903  25.068  0.00  0.00    -0.331 OA
ATOM     27  C   UNL     1       6.476   4.730  23.699  0.00  0.00    +0.179 C 
ATOM     28  C   UNL     1       7.988   4.848  23.323  0.00  0.00    +0.177 C 
ATOM     29  C   UNL     1       8.922   4.844  24.522  0.00  0.00    +0.180 C 
ATOM     30  C   UNL     1       8.216   5.654  25.647  0.00  0.00    +0.214 C 
BRANCH  30  31
ATOM     31  O   UNL     1       9.104   5.983  26.708  0.00  0.00    -0.383 OA
ATOM     32  H   UNL     1       9.325   5.167  27.195  0.00  0.00    +0.210 HD
ENDBRANCH  30  31
BRANCH  29  33
ATOM     33  O   UNL     1      10.203   5.339  24.127  0.00  0.00    -0.386 OA
ATOM     34  H   UNL     1      10.409   6.073  24.731  0.00  0.00    +0.210 HD
ENDBRANCH  29  33
BRANCH  28  35
ATOM     35  O   UNL     1       8.284   6.063  22.604  0.00  0.00    -0.386 OA
ATOM     36  H   UNL     1       7.481   6.234  22.070  0.00  0.00    +0.210 HD
ENDBRANCH  28  35
BRANCH  27  37
ATOM     37  C   UNL     1       5.675   5.757  22.883  0.00  0.00    +0.197 C 
BRANCH  37  38
ATOM     38  O   UNL     1       4.563   5.218  22.164  0.00  0.00    -0.346 OA
BRANCH  38  39
ATOM     39  C   UNL     1       3.307   5.856  22.428  0.00  0.00    +0.282 C 
ATOM     40  O   UNL     1       3.026   5.767  23.829  0.00  0.00    -0.341 OA
ATOM     41  C   UNL     1       2.819   4.430  24.313  0.00  0.00    +0.178 C 
ATOM     42  C   UNL     1       1.720   3.693  23.514  0.00  0.00    +0.177 C 
ATOM     43  C   UNL     1       1.997   3.768  22.009  0.00  0.00    +0.179 C 
ATOM     44  C   UNL     1       2.156   5.242  21.603  0.00  0.00    +0.201 C 
BRANCH  44  45
ATOM     45  O   UNL     1       2.318   5.351  20.184  0.00  0.00    -0.384 OA
ATOM     46  H   UNL     1       2.120   6.279  19.944  0.00  0.00    +0.210 HD
ENDBRANCH  44  45
BRANCH  43  47
ATOM     47  O   UNL     1       3.142   2.985  21.637  0.00  0.00    -0.386 OA
ATOM     48  H   UNL     1       2.867   2.036  21.606  0.00  0.00    +0.210 HD
ENDBRANCH  43  47
BRANCH  42  49
ATOM     49  O   UNL     1       0.443   4.297  23.773  0.00  0.00    -0.386 OA
ATOM     50  H   UNL     1       0.239   4.915  23.049  0.00  0.00    +0.210 HD
ENDBRANCH  42  49
BRANCH  41  51
ATOM     51  C   UNL     1       2.443   4.517  25.803  0.00  0.00    +0.190 C 
BRANCH  51  52
ATOM     52  O   UNL     1       3.520   4.157  26.671  0.00  0.00    -0.392 OA
ATOM     53  H   UNL     1       3.999   3.411  26.274  0.00  0.00    +0.210 HD
ENDBRANCH  51  52
ENDBRANCH  41  51
ENDBRANCH  38  39
ENDBRANCH  37  38
ENDBRANCH  27  37
ENDBRANCH  24  25
ENDBRANCH  11  24
BRANCH   7  54
ATOM     54  O   UNL     1       3.910  -3.147  28.012  0.00  0.00    -0.461 OA
BRANCH  54  55
ATOM     55  C   UNL     1       4.526  -4.157  28.838  0.00  0.00    +0.340 C 
ATOM     56  O   UNL     1       5.797  -4.542  28.283  0.00  0.00    -0.322 OA
ATOM     57  C   UNL     1       5.641  -5.401  27.135  0.00  0.00    +0.261 C 
ATOM     58  C   UNL     1       5.088  -6.741  27.609  0.00  0.00    +0.185 C 
ATOM     59  C   UNL     1       3.658  -6.500  28.108  0.00  0.00    +0.180 C 
ATOM     60  C   UNL     1       3.623  -5.380  29.162  0.00  0.00    +0.214 C 
BRANCH  60  61
ATOM     61  O   UNL     1       2.283  -4.996  29.481  0.00  0.00    -0.383 OA
ATOM     62  H   UNL     1       1.685  -5.688  29.139  0.00  0.00    +0.210 HD
ENDBRANCH  60  61
BRANCH  59  63
ATOM     63  O   UNL     1       2.754  -6.220  27.038  0.00  0.00    -0.386 OA
ATOM     64  H   UNL     1       3.244  -5.916  26.252  0.00  0.00    +0.210 HD
ENDBRANCH  59  63
BRANCH  58  65
ATOM     65  O   UNL     1       5.890  -7.205  28.707  0.00  0.00    -0.386 OA
ATOM     66  H   UNL     1       6.044  -6.460  29.314  0.00  0.00    +0.210 HD
ENDBRANCH  58  65
BRANCH  57  67
ATOM     67  C   UNL     1       6.984  -5.565  26.438  0.00  0.00    +0.337 C 
ATOM     68  O   UNL     1       7.209  -5.271  25.274  0.00  0.00    -0.248 OA
BRANCH  67  69
ATOM     69  O   UNL     1       7.943  -6.016  27.288  0.00  0.00    -0.479 OA
ATOM     70  H   UNL     1       8.817  -5.840  26.868  0.00  0.00    +0.295 HD
ENDBRANCH  67  69
ENDBRANCH  57  67
ENDBRANCH  54  55
ENDBRANCH   7  54
TORSDOF 24
ENDMDL
MODEL 7
REMARK VINA RESULT:      -6.6      3.725      5.673
REMARK  Name = 
REMARK  24 active torsions:
REMARK  status: ('A' for Active; 'I' for Inactive)
REMARK    1  A    between atoms: C_3  and  O_64
REMARK    2  A    between atoms: C_4  and  O_63
REMARK    3  A    between atoms: C_6  and  C_7
REMARK    4  A    between atoms: C_8  and  O_35
REMARK    5  A    between atoms: C_12  and  O_34
REMARK    6  A    between atoms: C_14  and  O_18
REMARK    7  A    between atoms: O_18  and  C_19
REMARK    8  A    between atoms: C_21  and  O_33
REMARK    9  A    between atoms: C_22  and  O_32
REMARK   10  A    between atoms: C_24  and  O_31
REMARK   11  A    between atoms: C_26  and  C_28
REMARK   12  A    between atoms: C_28  and  O_30
REMARK   13  A    between atoms: O_35  and  C_36
REMARK   14  A    between atoms: C_38  and  O_62
REMARK   15  A    between atoms: C_39  and  O_61
REMARK   16  A    between atoms: C_40  and  O_60
REMARK   17  A    between atoms: C_42  and  C_44
REMARK   18  A    between atoms: C_44  and  O_45
REMARK   19  A    between atoms: O_45  and  C_46
REMARK   20  A    between atoms: C_48  and  O_59
REMARK   21  A    between atoms: C_49  and  O_58
REMARK   22  A    between atoms: C_51  and  O_57
REMARK   23  A    between atoms: C_53  and  C_55
REMARK   24  A    between atoms: C_55  and  O_56
REMARK                            x       y       z     vdW  Elec       q    Type
REMARK                         _______ _______ _______ _____ _____    ______ ____
ROOT
ATOM      1  C   UNL     1       6.998  -1.838  25.998  0.00  0.00    +0.181 A 
ATOM      2  O   UNL     1       7.427  -0.576  25.662  0.00  0.00    -0.451 OA
ATOM      3  C   UNL     1       6.821   0.504  26.224  0.00  0.00    +0.147 A 
ATOM      4  C   UNL     1       5.679   0.426  27.008  0.00  0.00    +0.109 A 
ATOM      5  C   UNL     1       5.123   1.615  27.494  0.00  0.00    +0.135 A 
ATOM      6  C   UNL     1       5.779   2.843  27.299  0.00  0.00    +0.092 A 
ATOM      7  C   UNL     1       6.991   2.889  26.590  0.00  0.00    +0.131 A 
ATOM      8  C   UNL     1       5.158  -0.931  27.314  0.00  0.00    +0.238 A 
ATOM      9  O   UNL     1       4.092  -1.072  27.909  0.00  0.00    -0.283 OA
ATOM     10  C   UNL     1       7.436   1.729  25.965  0.00  0.00    +0.093 A 
ATOM     11  C   UNL     1       5.991  -2.097  26.850  0.00  0.00    +0.214 A 
ENDROOT
BRANCH   1  13
ATOM     12  C   UNL     1       7.470  -3.233  24.043  0.00  0.00    +0.015 A 
ATOM     13  C   UNL     1       7.863  -2.849  25.340  0.00  0.00    +0.025 A 
ATOM     14  C   UNL     1       8.842  -3.607  26.005  0.00  0.00    +0.060 A 
ATOM     15  C   UNL     1       9.301  -4.788  25.410  0.00  0.00    +0.159 A 
ATOM     16  C   UNL     1       8.799  -5.220  24.185  0.00  0.00    +0.158 A 
ATOM     17  C   UNL     1       7.919  -4.424  23.471  0.00  0.00    +0.050 A 
BRANCH  16  18
ATOM     18  O   UNL     1       9.158  -6.463  23.742  0.00  0.00    -0.503 OA
ATOM     19  H   UNL     1       8.369  -7.033  23.788  0.00  0.00    +0.292 HD
ENDBRANCH  16  18
BRANCH  15  20
ATOM     20  O   UNL     1      10.203  -5.580  26.069  0.00  0.00    -0.503 OA
ATOM     21  H   UNL     1      11.084  -5.208  25.854  0.00  0.00    +0.292 HD
ENDBRANCH  15  20
ENDBRANCH   1  13
BRANCH   5  22
ATOM     22  O   UNL     1       3.956   1.649  28.208  0.00  0.00    -0.506 OA
ATOM     23  H   UNL     1       3.675   0.727  28.392  0.00  0.00    +0.292 HD
ENDBRANCH   5  22
BRANCH  11  24
ATOM     24  O   UNL     1       5.547  -3.369  26.942  0.00  0.00    -0.453 OA
BRANCH  24  25
ATOM     25  C   UNL     1       5.043  -4.253  25.956  0.00  0.00    +0.340 C 
ATOM     26  O   UNL     1       3.729  -3.855  25.579  0.00  0.00    -0.331 OA
ATOM     27  C   UNL     1       2.710  -3.913  26.605  0.00  0.00    +0.179 C 
ATOM     28  C   UNL     1       2.920  -4.778  27.888  0.00  0.00    +0.177 C 
ATOM     29  C   UNL     1       4.348  -5.264  28.076  0.00  0.00    +0.180 C 
ATOM     30  C   UNL     1       4.895  -5.615  26.662  0.00  0.00    +0.214 C 
BRANCH  30  31
ATOM     31  O   UNL     1       6.104  -6.362  26.726  0.00  0.00    -0.383 OA
ATOM     32  H   UNL     1       6.103  -7.019  26.004  0.00  0.00    +0.210 HD
ENDBRANCH  30  31
BRANCH  29  33
ATOM     33  O   UNL     1       4.364  -6.337  29.020  0.00  0.00    -0.386 OA
ATOM     34  H   UNL     1       3.457  -6.412  29.362  0.00  0.00    +0.210 HD
ENDBRANCH  29  33
BRANCH  28  35
ATOM     35  O   UNL     1       2.102  -5.967  27.890  0.00  0.00    -0.386 OA
ATOM     36  H   UNL     1       2.364  -6.443  28.705  0.00  0.00    +0.210 HD
ENDBRANCH  28  35
BRANCH  27  37
ATOM     37  C   UNL     1       1.434  -4.380  25.888  0.00  0.00    +0.197 C 
BRANCH  37  38
ATOM     38  O   UNL     1       1.645  -5.336  24.846  0.00  0.00    -0.346 OA
BRANCH  38  39
ATOM     39  C   UNL     1       0.489  -6.100  24.484  0.00  0.00    +0.282 C 
ATOM     40  O   UNL     1       0.444  -7.285  25.286  0.00  0.00    -0.341 OA
ATOM     41  C   UNL     1       1.525  -8.203  25.056  0.00  0.00    +0.178 C 
ATOM     42  C   UNL     1       1.642  -8.589  23.563  0.00  0.00    +0.177 C 
ATOM     43  C   UNL     1       1.696  -7.339  22.680  0.00  0.00    +0.179 C 
ATOM     44  C   UNL     1       0.474  -6.460  22.983  0.00  0.00    +0.201 C 
BRANCH  44  45
ATOM     45  O   UNL     1       0.443  -5.331  22.102  0.00  0.00    -0.384 OA
ATOM     46  H   UNL     1      -0.153  -5.563  21.361  0.00  0.00    +0.210 HD
ENDBRANCH  44  45
BRANCH  43  47
ATOM     47  O   UNL     1       2.927  -6.619  22.848  0.00  0.00    -0.386 OA
ATOM     48  H   UNL     1       3.534  -6.873  22.110  0.00  0.00    +0.210 HD
ENDBRANCH  43  47
BRANCH  42  49
ATOM     49  O   UNL     1       0.506  -9.375  23.174  0.00  0.00    -0.386 OA
ATOM     50  H   UNL     1      -0.080  -9.478  23.945  0.00  0.00    +0.210 HD
ENDBRANCH  42  49
BRANCH  41  51
ATOM     51  C   UNL     1       1.282  -9.451  25.923  0.00  0.00    +0.190 C 
BRANCH  51  52
ATOM     52  O   UNL     1       2.033 -10.586  25.489  0.00  0.00    -0.392 OA
ATOM     53  H   UNL     1       2.000 -11.262  26.186  0.00  0.00    +0.210 HD
ENDBRANCH  51  52
ENDBRANCH  41  51
ENDBRANCH  38  39
ENDBRANCH  37  38
ENDBRANCH  27  37
ENDBRANCH  24  25
ENDBRANCH  11  24
BRANCH   7  54
ATOM     54  O   UNL     1       7.687   4.086  26.602  0.00  0.00    -0.461 OA
BRANCH  54  55
ATOM     55  C   UNL     1       7.491   4.859  25.399  0.00  0.00    +0.340 C 
ATOM     56  O   UNL     1       8.248   4.286  24.316  0.00  0.00    -0.322 OA
ATOM     57  C   UNL     1       9.653   4.586  24.428  0.00  0.00    +0.261 C 
ATOM     58  C   UNL     1       9.846   6.079  24.187  0.00  0.00    +0.185 C 
ATOM     59  C   UNL     1       9.198   6.824  25.361  0.00  0.00    +0.180 C 
ATOM     60  C   UNL     1       7.735   6.386  25.552  0.00  0.00    +0.214 C 
BRANCH  60  61
ATOM     61  O   UNL     1       7.182   6.905  26.763  0.00  0.00    -0.383 OA
ATOM     62  H   UNL     1       6.490   6.286  27.066  0.00  0.00    +0.210 HD
ENDBRANCH  60  61
BRANCH  59  63
ATOM     63  O   UNL     1       9.938   6.668  26.573  0.00  0.00    -0.386 OA
ATOM     64  H   UNL     1       9.540   5.967  27.123  0.00  0.00    +0.210 HD
ENDBRANCH  59  63
BRANCH  58  65
ATOM     65  O   UNL     1       9.163   6.441  22.975  0.00  0.00    -0.386 OA
ATOM     66  H   UNL     1       8.734   7.304  23.109  0.00  0.00    +0.210 HD
ENDBRANCH  58  65
BRANCH  57  67
ATOM     67  C   UNL     1      10.432   3.752  23.421  0.00  0.00    +0.337 C 
ATOM     68  O   UNL     1      11.648   3.743  23.310  0.00  0.00    -0.248 OA
BRANCH  67  69
ATOM     69  O   UNL     1       9.615   2.948  22.691  0.00  0.00    -0.479 OA
ATOM     70  H   UNL     1       8.686   3.181  22.925  0.00  0.00    +0.295 HD
ENDBRANCH  67  69
ENDBRANCH  57  67
ENDBRANCH  54  55
ENDBRANCH   7  54
TORSDOF 24
ENDMDL
MODEL 8
REMARK VINA RESULT:      -6.4      2.917      9.565
REMARK  Name = 
REMARK  24 active torsions:
REMARK  status: ('A' for Active; 'I' for Inactive)
REMARK    1  A    between atoms: C_3  and  O_64
REMARK    2  A    between atoms: C_4  and  O_63
REMARK    3  A    between atoms: C_6  and  C_7
REMARK    4  A    between atoms: C_8  and  O_35
REMARK    5  A    between atoms: C_12  and  O_34
REMARK    6  A    between atoms: C_14  and  O_18
REMARK    7  A    between atoms: O_18  and  C_19
REMARK    8  A    between atoms: C_21  and  O_33
REMARK    9  A    between atoms: C_22  and  O_32
REMARK   10  A    between atoms: C_24  and  O_31
REMARK   11  A    between atoms: C_26  and  C_28
REMARK   12  A    between atoms: C_28  and  O_30
REMARK   13  A    between atoms: O_35  and  C_36
REMARK   14  A    between atoms: C_38  and  O_62
REMARK   15  A    between atoms: C_39  and  O_61
REMARK   16  A    between atoms: C_40  and  O_60
REMARK   17  A    between atoms: C_42  and  C_44
REMARK   18  A    between atoms: C_44  and  O_45
REMARK   19  A    between atoms: O_45  and  C_46
REMARK   20  A    between atoms: C_48  and  O_59
REMARK   21  A    between atoms: C_49  and  O_58
REMARK   22  A    between atoms: C_51  and  O_57
REMARK   23  A    between atoms: C_53  and  C_55
REMARK   24  A    between atoms: C_55  and  O_56
REMARK                            x       y       z     vdW  Elec       q    Type
REMARK                         _______ _______ _______ _____ _____    ______ ____
ROOT
ATOM      1  C   UNL     1       6.856   1.554  26.170  0.00  0.00    +0.181 A 
ATOM      2  O   UNL     1       6.197   0.354  26.039  0.00  0.00    -0.451 OA
ATOM      3  C   UNL     1       6.540  -0.485  25.025  0.00  0.00    +0.147 A 
ATOM      4  C   UNL     1       7.417  -0.146  24.006  0.00  0.00    +0.109 A 
ATOM      5  C   UNL     1       7.657  -1.083  22.995  0.00  0.00    +0.135 A 
ATOM      6  C   UNL     1       7.122  -2.380  23.080  0.00  0.00    +0.092 A 
ATOM      7  C   UNL     1       6.318  -2.739  24.175  0.00  0.00    +0.131 A 
ATOM      8  C   UNL     1       8.078   1.182  24.094  0.00  0.00    +0.238 A 
ATOM      9  O   UNL     1       8.780   1.593  23.174  0.00  0.00    -0.283 OA
ATOM     10  C   UNL     1       5.947  -1.748  25.076  0.00  0.00    +0.093 A 
ATOM     11  C   UNL     1       7.830   1.980  25.348  0.00  0.00    +0.214 A 
ENDROOT
BRANCH   1  13
ATOM     12  C   UNL     1       5.100   2.829  27.301  0.00  0.00    +0.015 A 
ATOM     13  C   UNL     1       6.380   2.250  27.391  0.00  0.00    +0.025 A 
ATOM     14  C   UNL     1       7.201   2.586  28.482  0.00  0.00    +0.060 A 
ATOM     15  C   UNL     1       6.770   3.577  29.372  0.00  0.00    +0.159 A 
ATOM     16  C   UNL     1       5.555   4.232  29.187  0.00  0.00    +0.158 A 
ATOM     17  C   UNL     1       4.692   3.831  28.182  0.00  0.00    +0.050 A 
BRANCH  16  18
ATOM     18  O   UNL     1       5.272   5.305  29.985  0.00  0.00    -0.503 OA
ATOM     19  H   UNL     1       6.043   5.900  29.967  0.00  0.00    +0.292 HD
ENDBRANCH  16  18
BRANCH  15  20
ATOM     20  O   UNL     1       7.581   3.970  30.402  0.00  0.00    -0.503 OA
ATOM     21  H   UNL     1       7.350   4.907  30.575  0.00  0.00    +0.292 HD
ENDBRANCH  15  20
ENDBRANCH   1  13
BRANCH   5  22
ATOM     22  O   UNL     1       8.442  -0.814  21.907  0.00  0.00    -0.506 OA
ATOM     23  H   UNL     1       9.380  -0.794  22.195  0.00  0.00    +0.292 HD
ENDBRANCH   5  22
BRANCH  11  24
ATOM     24  O   UNL     1       8.257   3.254  25.475  0.00  0.00    -0.453 OA
BRANCH  24  25
ATOM     25  C   UNL     1       7.538   4.466  25.630  0.00  0.00    +0.340 C 
ATOM     26  O   UNL     1       6.463   4.510  24.699  0.00  0.00    -0.331 OA
ATOM     27  C   UNL     1       6.815   4.530  23.296  0.00  0.00    +0.179 C 
ATOM     28  C   UNL     1       8.251   4.940  22.840  0.00  0.00    +0.177 C 
ATOM     29  C   UNL     1       9.262   5.001  23.974  0.00  0.00    +0.180 C 
ATOM     30  C   UNL     1       8.518   5.580  25.211  0.00  0.00    +0.214 C 
BRANCH  30  31
ATOM     31  O   UNL     1       9.417   5.971  26.242  0.00  0.00    -0.383 OA
ATOM     32  H   UNL     1      10.235   5.444  26.159  0.00  0.00    +0.210 HD
ENDBRANCH  30  31
BRANCH  29  33
ATOM     33  O   UNL     1      10.408   5.743  23.549  0.00  0.00    -0.386 OA
ATOM     34  H   UNL     1      10.438   6.539  24.106  0.00  0.00    +0.210 HD
ENDBRANCH  29  33
BRANCH  28  35
ATOM     35  O   UNL     1       8.282   6.243  22.222  0.00  0.00    -0.386 OA
ATOM     36  H   UNL     1       8.114   6.068  21.273  0.00  0.00    +0.210 HD
ENDBRANCH  28  35
BRANCH  27  37
ATOM     37  C   UNL     1       5.792   5.464  22.630  0.00  0.00    +0.197 C 
BRANCH  37  38
ATOM     38  O   UNL     1       4.430   5.215  22.986  0.00  0.00    -0.346 OA
BRANCH  38  39
ATOM     39  C   UNL     1       3.791   4.172  22.239  0.00  0.00    +0.282 C 
ATOM     40  O   UNL     1       2.684   4.726  21.520  0.00  0.00    -0.341 OA
ATOM     41  C   UNL     1       1.624   5.227  22.350  0.00  0.00    +0.178 C 
ATOM     42  C   UNL     1       1.116   4.156  23.342  0.00  0.00    +0.177 C 
ATOM     43  C   UNL     1       2.281   3.548  24.130  0.00  0.00    +0.179 C 
ATOM     44  C   UNL     1       3.326   3.009  23.141  0.00  0.00    +0.201 C 
BRANCH  44  45
ATOM     45  O   UNL     1       4.381   2.346  23.846  0.00  0.00    -0.384 OA
ATOM     46  H   UNL     1       3.962   1.818  24.557  0.00  0.00    +0.210 HD
ENDBRANCH  44  45
BRANCH  43  47
ATOM     47  O   UNL     1       2.852   4.490  25.051  0.00  0.00    -0.386 OA
ATOM     48  H   UNL     1       2.566   4.238  25.964  0.00  0.00    +0.210 HD
ENDBRANCH  43  47
BRANCH  42  49
ATOM     49  O   UNL     1       0.452   3.104  22.625  0.00  0.00    -0.386 OA
ATOM     50  H   UNL     1       1.079   2.718  21.988  0.00  0.00    +0.210 HD
ENDBRANCH  42  49
BRANCH  41  51
ATOM     51  C   UNL     1       0.484   5.700  21.430  0.00  0.00    +0.190 C 
BRANCH  51  52
ATOM     52  O   UNL     1       0.447   5.000  20.184  0.00  0.00    -0.392 OA
ATOM     53  H   UNL     1       0.076   5.592  19.509  0.00  0.00    +0.210 HD
ENDBRANCH  51  52
ENDBRANCH  41  51
ENDBRANCH  38  39
ENDBRANCH  37  38
ENDBRANCH  27  37
ENDBRANCH  24  25
ENDBRANCH  11  24
BRANCH   7  54
ATOM     54  O   UNL     1       5.988  -4.078  24.306  0.00  0.00    -0.461 OA
BRANCH  54  55
ATOM     55  C   UNL     1       4.745  -4.281  25.010  0.00  0.00    +0.340 C 
ATOM     56  O   UNL     1       5.007  -4.701  26.362  0.00  0.00    -0.322 OA
ATOM     57  C   UNL     1       5.409  -6.085  26.423  0.00  0.00    +0.261 C 
ATOM     58  C   UNL     1       4.211  -6.951  26.053  0.00  0.00    +0.185 C 
ATOM     59  C   UNL     1       3.902  -6.705  24.571  0.00  0.00    +0.180 C 
ATOM     60  C   UNL     1       3.724  -5.202  24.288  0.00  0.00    +0.214 C 
BRANCH  60  61
ATOM     61  O   UNL     1       3.648  -4.935  22.886  0.00  0.00    -0.383 OA
ATOM     62  H   UNL     1       3.386  -4.001  22.773  0.00  0.00    +0.210 HD
ENDBRANCH  60  61
BRANCH  59  63
ATOM     63  O   UNL     1       4.894  -7.269  23.712  0.00  0.00    -0.386 OA
ATOM     64  H   UNL     1       4.594  -7.239  22.785  0.00  0.00    +0.210 HD
ENDBRANCH  59  63
BRANCH  58  65
ATOM     65  O   UNL     1       3.082  -6.532  26.838  0.00  0.00    -0.386 OA
ATOM     66  H   UNL     1       2.312  -6.447  26.250  0.00  0.00    +0.210 HD
ENDBRANCH  58  65
BRANCH  57  67
ATOM     67  C   UNL     1       5.921  -6.403  27.821  0.00  0.00    +0.337 C 
ATOM     68  O   UNL     1       5.649  -7.412  28.453  0.00  0.00    -0.248 OA
BRANCH  67  69
ATOM     69  O   UNL     1       6.785  -5.456  28.271  0.00  0.00    -0.479 OA
ATOM     70  H   UNL     1       7.249  -5.083  27.486  0.00  0.00    +0.295 HD
ENDBRANCH  67  69
ENDBRANCH  57  67
ENDBRANCH  54  55
ENDBRANCH   7  54
TORSDOF 24
ENDMDL
MODEL 9
REMARK VINA RESULT:      -6.1      2.953      9.878
REMARK  Name = 
REMARK  24 active torsions:
REMARK  status: ('A' for Active; 'I' for Inactive)
REMARK    1  A    between atoms: C_3  and  O_64
REMARK    2  A    between atoms: C_4  and  O_63
REMARK    3  A    between atoms: C_6  and  C_7
REMARK    4  A    between atoms: C_8  and  O_35
REMARK    5  A    between atoms: C_12  and  O_34
REMARK    6  A    between atoms: C_14  and  O_18
REMARK    7  A    between atoms: O_18  and  C_19
REMARK    8  A    between atoms: C_21  and  O_33
REMARK    9  A    between atoms: C_22  and  O_32
REMARK   10  A    between atoms: C_24  and  O_31
REMARK   11  A    between atoms: C_26  and  C_28
REMARK   12  A    between atoms: C_28  and  O_30
REMARK   13  A    between atoms: O_35  and  C_36
REMARK   14  A    between atoms: C_38  and  O_62
REMARK   15  A    between atoms: C_39  and  O_61
REMARK   16  A    between atoms: C_40  and  O_60
REMARK   17  A    between atoms: C_42  and  C_44
REMARK   18  A    between atoms: C_44  and  O_45
REMARK   19  A    between atoms: O_45  and  C_46
REMARK   20  A    between atoms: C_48  and  O_59
REMARK   21  A    between atoms: C_49  and  O_58
REMARK   22  A    between atoms: C_51  and  O_57
REMARK   23  A    between atoms: C_53  and  C_55
REMARK   24  A    between atoms: C_55  and  O_56
REMARK                            x       y       z     vdW  Elec       q    Type
REMARK                         _______ _______ _______ _____ _____    ______ ____
ROOT
ATOM      1  C   UNL     1       6.272  -1.879  25.211  0.00  0.00    +0.181 A 
ATOM      2  O   UNL     1       5.223  -2.767  25.242  0.00  0.00    -0.451 OA
ATOM      3  C   UNL     1       5.115  -3.703  24.262  0.00  0.00    +0.147 A 
ATOM      4  C   UNL     1       5.915  -3.730  23.130  0.00  0.00    +0.109 A 
ATOM      5  C   UNL     1       5.678  -4.721  22.170  0.00  0.00    +0.135 A 
ATOM      6  C   UNL     1       4.738  -5.738  22.410  0.00  0.00    +0.092 A 
ATOM      7  C   UNL     1       4.008  -5.753  23.610  0.00  0.00    +0.131 A 
ATOM      8  C   UNL     1       7.006  -2.724  23.046  0.00  0.00    +0.238 A 
ATOM      9  O   UNL     1       7.682  -2.619  22.025  0.00  0.00    -0.283 OA
ATOM     10  C   UNL     1       4.129  -4.668  24.471  0.00  0.00    +0.093 A 
ATOM     11  C   UNL     1       7.218  -1.853  24.256  0.00  0.00    +0.214 A 
ENDROOT
BRANCH   1  13
ATOM     12  C   UNL     1       5.116  -0.174  26.532  0.00  0.00    +0.015 A 
ATOM     13  C   UNL     1       6.234  -1.022  26.422  0.00  0.00    +0.025 A 
ATOM     14  C   UNL     1       7.326  -0.819  27.284  0.00  0.00    +0.060 A 
ATOM     15  C   UNL     1       7.320   0.294  28.132  0.00  0.00    +0.159 A 
ATOM     16  C   UNL     1       6.259   1.197  28.128  0.00  0.00    +0.158 A 
ATOM     17  C   UNL     1       5.131   0.944  27.366  0.00  0.00    +0.050 A 
BRANCH  16  18
ATOM     18  O   UNL     1       6.390   2.351  28.849  0.00  0.00    -0.503 OA
ATOM     19  H   UNL     1       5.636   2.927  28.626  0.00  0.00    +0.292 HD
ENDBRANCH  16  18
BRANCH  15  20
ATOM     20  O   UNL     1       8.401   0.552  28.930  0.00  0.00    -0.503 OA
ATOM     21  H   UNL     1       9.129   0.000  28.572  0.00  0.00    +0.292 HD
ENDBRANCH  15  20
ENDBRANCH   1  13
BRANCH   5  22
ATOM     22  O   UNL     1       6.359  -4.782  20.985  0.00  0.00    -0.506 OA
ATOM     23  H   UNL     1       5.714  -4.920  20.259  0.00  0.00    +0.292 HD
ENDBRANCH   5  22
BRANCH  11  24
ATOM     24  O   UNL     1       8.078  -0.813  24.241  0.00  0.00    -0.453 OA
BRANCH  24  25
ATOM     25  C   UNL     1       7.903   0.545  24.605  0.00  0.00    +0.340 C 
ATOM     26  O   UNL     1       6.925   1.147  23.764  0.00  0.00    -0.331 OA
ATOM     27  C   UNL     1       7.243   1.237  22.355  0.00  0.00    +0.179 C 
ATOM     28  C   UNL     1       8.719   1.114  21.862  0.00  0.00    +0.177 C 
ATOM     29  C   UNL     1       9.681   0.603  22.922  0.00  0.00    +0.180 C 
ATOM     30  C   UNL     1       9.241   1.235  24.274  0.00  0.00    +0.214 C 
BRANCH  30  31
ATOM     31  O   UNL     1      10.231   1.083  25.284  0.00  0.00    -0.383 OA
ATOM     32  H   UNL     1      11.109   1.059  24.859  0.00  0.00    +0.210 HD
ENDBRANCH  30  31
BRANCH  29  33
ATOM     33  O   UNL     1      11.023   0.891  22.523  0.00  0.00    -0.386 OA
ATOM     34  H   UNL     1      11.560   0.131  22.806  0.00  0.00    +0.210 HD
ENDBRANCH  29  33
BRANCH  28  35
ATOM     35  O   UNL     1       9.260   2.377  21.423  0.00  0.00    -0.386 OA
ATOM     36  H   UNL     1       9.664   2.764  22.227  0.00  0.00    +0.210 HD
ENDBRANCH  28  35
BRANCH  27  37
ATOM     37  C   UNL     1       6.670   2.586  21.892  0.00  0.00    +0.197 C 
BRANCH  37  38
ATOM     38  O   UNL     1       6.328   3.488  22.947  0.00  0.00    -0.346 OA
BRANCH  38  39
ATOM     39  C   UNL     1       6.714   4.850  22.726  0.00  0.00    +0.282 C 
ATOM     40  O   UNL     1       8.142   4.943  22.772  0.00  0.00    -0.341 OA
ATOM     41  C   UNL     1       8.719   4.646  24.054  0.00  0.00    +0.178 C 
ATOM     42  C   UNL     1       8.104   5.516  25.175  0.00  0.00    +0.177 C 
ATOM     43  C   UNL     1       6.575   5.433  25.152  0.00  0.00    +0.179 C 
ATOM     44  C   UNL     1       6.074   5.811  23.750  0.00  0.00    +0.201 C 
BRANCH  44  45
ATOM     45  O   UNL     1       4.642   5.839  23.725  0.00  0.00    -0.384 OA
ATOM     46  H   UNL     1       4.357   5.222  23.020  0.00  0.00    +0.210 HD
ENDBRANCH  44  45
BRANCH  43  47
ATOM     47  O   UNL     1       6.105   4.138  25.557  0.00  0.00    -0.386 OA
ATOM     48  H   UNL     1       5.363   3.880  24.956  0.00  0.00    +0.210 HD
ENDBRANCH  43  47
BRANCH  42  49
ATOM     49  O   UNL     1       8.490   6.887  24.992  0.00  0.00    -0.386 OA
ATOM     50  H   UNL     1       9.441   6.917  24.783  0.00  0.00    +0.210 HD
ENDBRANCH  42  49
BRANCH  41  51
ATOM     51  C   UNL     1      10.237   4.877  23.956  0.00  0.00    +0.190 C 
BRANCH  51  52
ATOM     52  O   UNL     1      10.871   4.017  23.007  0.00  0.00    -0.392 OA
ATOM     53  H   UNL     1      11.530   3.477  23.473  0.00  0.00    +0.210 HD
ENDBRANCH  51  52
ENDBRANCH  41  51
ENDBRANCH  38  39
ENDBRANCH  37  38
ENDBRANCH  27  37
ENDBRANCH  24  25
ENDBRANCH  11  24
BRANCH   7  54
ATOM     54  O   UNL     1       3.249  -6.881  23.875  0.00  0.00    -0.461 OA
BRANCH  54  55
ATOM     55  C   UNL     1       2.046  -6.583  24.615  0.00  0.00    +0.340 C 
ATOM     56  O   UNL     1       2.378  -6.179  25.955  0.00  0.00    -0.322 OA
ATOM     57  C   UNL     1       2.751  -7.303  26.777  0.00  0.00    +0.261 C 
ATOM     58  C   UNL     1       1.513  -8.162  27.008  0.00  0.00    +0.185 C 
ATOM     59  C   UNL     1       1.123  -8.782  25.660  0.00  0.00    +0.180 C 
ATOM     60  C   UNL     1       0.962  -7.697  24.581  0.00  0.00    +0.214 C 
BRANCH  60  61
ATOM     61  O   UNL     1       0.809  -8.266  23.278  0.00  0.00    -0.383 OA
ATOM     62  H   UNL     1       1.283  -7.694  22.644  0.00  0.00    +0.210 HD
ENDBRANCH  60  61
BRANCH  59  63
ATOM     63  O   UNL     1       2.049  -9.785  25.239  0.00  0.00    -0.386 OA
ATOM     64  H   UNL     1       1.872 -10.040  24.314  0.00  0.00    +0.210 HD
ENDBRANCH  59  63
BRANCH  58  65
ATOM     65  O   UNL     1       0.443  -7.314  27.455  0.00  0.00    -0.386 OA
ATOM     66  H   UNL     1      -0.377  -7.592  27.012  0.00  0.00    +0.210 HD
ENDBRANCH  58  65
BRANCH  57  67
ATOM     67  C   UNL     1       3.337  -6.801  28.089  0.00  0.00    +0.337 C 
ATOM     68  O   UNL     1       4.006  -5.788  28.215  0.00  0.00    -0.248 OA
BRANCH  67  69
ATOM     69  O   UNL     1       2.968  -7.581  29.138  0.00  0.00    -0.479 OA
ATOM     70  H   UNL     1       3.048  -7.035  29.955  0.00  0.00    +0.295 HD
ENDBRANCH  67  69
ENDBRANCH  57  67
ENDBRANCH  54  55
ENDBRANCH   7  54
TORSDOF 24
ENDMDL
