MODEL 1
REMARK VINA RESULT:      -8.0      0.000      0.000
REMARK  Name = 
REMARK  11 active torsions:
REMARK  status: ('A' for Active; 'I' for Inactive)
REMARK    1  A    between atoms: C_1  and  C_2
REMARK    2  A    between atoms: C_4  and  O_36
REMARK    3  A    between atoms: C_6  and  O_35
REMARK    4  A    between atoms: C_8  and  O_34
REMARK    5  A    between atoms: C_10  and  O_12
REMARK    6  A    between atoms: O_12  and  C_13
REMARK    7  A    between atoms: C_14  and  C_26
REMARK    8  A    between atoms: C_18  and  O_25
REMARK    9  A    between atoms: C_20  and  O_24
REMARK   10  A    between atoms: C_28  and  O_33
REMARK   11  A    between atoms: C_29  and  O_32
REMARK                            x       y       z     vdW  Elec       q    Type
REMARK                         _______ _______ _______ _____ _____    ______ ____
ROOT
ATOM      1  C   UNL     1       8.080  -2.647  25.096  0.00  0.00    +0.214 A 
ATOM      2  C   UNL     1       8.904  -1.433  25.420  0.00  0.00    +0.238 A 
ATOM      3  O   UNL     1       9.264  -1.165  26.561  0.00  0.00    -0.283 OA
ATOM      4  C   UNL     1       9.158  -0.475  24.339  0.00  0.00    +0.109 A 
ATOM      5  C   UNL     1       8.388  -0.590  23.189  0.00  0.00    +0.147 A 
ATOM      6  C   UNL     1       8.477   0.386  22.191  0.00  0.00    +0.092 A 
ATOM      7  C   UNL     1       9.346   1.463  22.362  0.00  0.00    +0.124 A 
ATOM      8  C   UNL     1      10.148   1.568  23.491  0.00  0.00    +0.091 A 
ATOM      9  O   UNL     1       7.504  -1.616  22.981  0.00  0.00    -0.451 OA
ATOM     10  C   UNL     1      10.059   0.592  24.480  0.00  0.00    +0.135 A 
ATOM     11  C   UNL     1       7.414  -2.649  23.917  0.00  0.00    +0.181 A 
ENDROOT
BRANCH  11  12
ATOM     12  C   UNL     1       6.436  -3.713  23.494  0.00  0.00    +0.025 A 
ATOM     13  C   UNL     1       5.053  -3.511  23.705  0.00  0.00    +0.015 A 
ATOM     14  C   UNL     1       4.097  -4.467  23.327  0.00  0.00    +0.050 A 
ATOM     15  C   UNL     1       4.516  -5.645  22.735  0.00  0.00    +0.158 A 
ATOM     16  C   UNL     1       5.868  -5.877  22.519  0.00  0.00    +0.159 A 
ATOM     17  C   UNL     1       6.822  -4.920  22.876  0.00  0.00    +0.060 A 
BRANCH  15  18
ATOM     18  O   UNL     1       3.589  -6.577  22.368  0.00  0.00    -0.503 OA
ATOM     19  H   UNL     1       3.094  -6.766  23.191  0.00  0.00    +0.292 HD
ENDBRANCH  15  18
BRANCH  16  20
ATOM     20  O   UNL     1       6.221  -7.070  21.949  0.00  0.00    -0.503 OA
ATOM     21  H   UNL     1       5.852  -7.092  21.047  0.00  0.00    +0.292 HD
ENDBRANCH  16  20
ENDBRANCH  11  12
BRANCH   7  22
ATOM     22  O   UNL     1       9.454   2.454  21.433  0.00  0.00    -0.507 OA
ATOM     23  H   UNL     1      10.262   2.964  21.603  0.00  0.00    +0.292 HD
ENDBRANCH   7  22
BRANCH  10  24
ATOM     24  O   UNL     1      10.876   0.688  25.571  0.00  0.00    -0.506 OA
ATOM     25  H   UNL     1      11.142   1.610  25.712  0.00  0.00    +0.292 HD
ENDBRANCH  10  24
BRANCH   1  26
ATOM     26  O   UNL     1       7.920  -3.684  26.005  0.00  0.00    -0.453 OA
BRANCH  26  30
ATOM     27  C   UNL     1       4.184  -2.655  28.800  0.00  0.00    +0.041 C 
ATOM     28  C   UNL     1       4.698  -3.605  27.721  0.00  0.00    +0.150 C 
ATOM     29  O   UNL     1       6.081  -3.307  27.478  0.00  0.00    -0.334 OA
ATOM     30  C   UNL     1       6.595  -4.073  26.375  0.00  0.00    +0.339 C 
ATOM     31  C   UNL     1       6.603  -5.568  26.740  0.00  0.00    +0.214 C 
ATOM     32  C   UNL     1       5.165  -5.981  27.056  0.00  0.00    +0.180 C 
ATOM     33  C   UNL     1       4.547  -5.079  28.136  0.00  0.00    +0.174 C 
BRANCH  31  34
ATOM     34  O   UNL     1       7.445  -5.849  27.872  0.00  0.00    -0.383 OA
ATOM     35  H   UNL     1       8.239  -6.272  27.484  0.00  0.00    +0.210 HD
ENDBRANCH  31  34
BRANCH  32  36
ATOM     36  O   UNL     1       5.147  -7.345  27.506  0.00  0.00    -0.386 OA
ATOM     37  H   UNL     1       4.966  -7.867  26.697  0.00  0.00    +0.210 HD
ENDBRANCH  32  36
BRANCH  33  38
ATOM     38  O   UNL     1       3.178  -5.470  28.294  0.00  0.00    -0.387 OA
ATOM     39  H   UNL     1       2.632  -4.672  28.172  0.00  0.00    +0.210 HD
ENDBRANCH  33  38
ENDBRANCH  26  30
ENDBRANCH   1  26
TORSDOF 10
ENDMDL
MODEL 2
REMARK VINA RESULT:      -7.9      2.034      4.395
REMARK  Name = 
REMARK  11 active torsions:
REMARK  status: ('A' for Active; 'I' for Inactive)
REMARK    1  A    between atoms: C_1  and  C_2
REMARK    2  A    between atoms: C_4  and  O_36
REMARK    3  A    between atoms: C_6  and  O_35
REMARK    4  A    between atoms: C_8  and  O_34
REMARK    5  A    between atoms: C_10  and  O_12
REMARK    6  A    between atoms: O_12  and  C_13
REMARK    7  A    between atoms: C_14  and  C_26
REMARK    8  A    between atoms: C_18  and  O_25
REMARK    9  A    between atoms: C_20  and  O_24
REMARK   10  A    between atoms: C_28  and  O_33
REMARK   11  A    between atoms: C_29  and  O_32
REMARK                            x       y       z     vdW  Elec       q    Type
REMARK                         _______ _______ _______ _____ _____    ______ ____
ROOT
ATOM      1  C   UNL     1       8.325  -1.407  22.983  0.00  0.00    +0.214 A 
ATOM      2  C   UNL     1       8.521  -0.091  22.285  0.00  0.00    +0.238 A 
ATOM      3  O   UNL     1       8.866  -0.011  21.111  0.00  0.00    -0.283 OA
ATOM      4  C   UNL     1       8.424   1.128  23.094  0.00  0.00    +0.109 A 
ATOM      5  C   UNL     1       8.459   0.984  24.475  0.00  0.00    +0.147 A 
ATOM      6  C   UNL     1       8.527   2.116  25.293  0.00  0.00    +0.092 A 
ATOM      7  C   UNL     1       8.552   3.382  24.709  0.00  0.00    +0.124 A 
ATOM      8  C   UNL     1       8.480   3.540  23.330  0.00  0.00    +0.091 A 
ATOM      9  O   UNL     1       8.457  -0.237  25.099  0.00  0.00    -0.451 OA
ATOM     10  C   UNL     1       8.408   2.410  22.521  0.00  0.00    +0.135 A 
ATOM     11  C   UNL     1       8.334  -1.400  24.337  0.00  0.00    +0.181 A 
ENDROOT
BRANCH  11  12
ATOM     12  C   UNL     1       8.294  -2.638  25.194  0.00  0.00    +0.025 A 
ATOM     13  C   UNL     1       7.266  -2.787  26.154  0.00  0.00    +0.015 A 
ATOM     14  C   UNL     1       7.178  -3.921  26.976  0.00  0.00    +0.050 A 
ATOM     15  C   UNL     1       8.124  -4.922  26.851  0.00  0.00    +0.158 A 
ATOM     16  C   UNL     1       9.148  -4.805  25.921  0.00  0.00    +0.159 A 
ATOM     17  C   UNL     1       9.230  -3.686  25.088  0.00  0.00    +0.060 A 
BRANCH  15  18
ATOM     18  O   UNL     1       8.041  -6.026  27.650  0.00  0.00    -0.503 OA
ATOM     19  H   UNL     1       8.323  -6.766  27.074  0.00  0.00    +0.292 HD
ENDBRANCH  15  18
BRANCH  16  20
ATOM     20  O   UNL     1      10.066  -5.819  25.860  0.00  0.00    -0.503 OA
ATOM     21  H   UNL     1       9.583  -6.650  25.697  0.00  0.00    +0.292 HD
ENDBRANCH  16  20
ENDBRANCH  11  12
BRANCH   7  22
ATOM     22  O   UNL     1       8.643   4.518  25.456  0.00  0.00    -0.507 OA
ATOM     23  H   UNL     1       8.002   5.168  25.128  0.00  0.00    +0.292 HD
ENDBRANCH   7  22
BRANCH  10  24
ATOM     24  O   UNL     1       8.305   2.577  21.169  0.00  0.00    -0.506 OA
ATOM     25  H   UNL     1       9.084   2.206  20.724  0.00  0.00    +0.292 HD
ENDBRANCH  10  24
BRANCH   1  26
ATOM     26  O   UNL     1       8.240  -2.600  22.278  0.00  0.00    -0.453 OA
BRANCH  26  30
ATOM     27  C   UNL     1       4.073  -3.412  24.470  0.00  0.00    +0.041 C 
ATOM     28  C   UNL     1       4.870  -3.666  23.193  0.00  0.00    +0.150 C 
ATOM     29  O   UNL     1       6.199  -3.160  23.381  0.00  0.00    -0.334 OA
ATOM     30  C   UNL     1       6.967  -3.243  22.168  0.00  0.00    +0.339 C 
ATOM     31  C   UNL     1       7.191  -4.719  21.794  0.00  0.00    +0.214 C 
ATOM     32  C   UNL     1       5.818  -5.367  21.606  0.00  0.00    +0.180 C 
ATOM     33  C   UNL     1       4.928  -5.164  22.843  0.00  0.00    +0.174 C 
BRANCH  31  34
ATOM     34  O   UNL     1       7.925  -5.433  22.805  0.00  0.00    -0.383 OA
ATOM     35  H   UNL     1       7.492  -5.177  23.645  0.00  0.00    +0.210 HD
ENDBRANCH  31  34
BRANCH  32  36
ATOM     36  O   UNL     1       5.983  -6.773  21.362  0.00  0.00    -0.386 OA
ATOM     37  H   UNL     1       5.178  -7.031  20.868  0.00  0.00    +0.210 HD
ENDBRANCH  32  36
BRANCH  33  38
ATOM     38  O   UNL     1       3.638  -5.710  22.540  0.00  0.00    -0.387 OA
ATOM     39  H   UNL     1       3.298  -5.236  21.760  0.00  0.00    +0.210 HD
ENDBRANCH  33  38
ENDBRANCH  26  30
ENDBRANCH   1  26
TORSDOF 10
ENDMDL
MODEL 3
REMARK VINA RESULT:      -7.6      1.838      4.535
REMARK  Name = 
REMARK  11 active torsions:
REMARK  status: ('A' for Active; 'I' for Inactive)
REMARK    1  A    between atoms: C_1  and  C_2
REMARK    2  A    between atoms: C_4  and  O_36
REMARK    3  A    between atoms: C_6  and  O_35
REMARK    4  A    between atoms: C_8  and  O_34
REMARK    5  A    between atoms: C_10  and  O_12
REMARK    6  A    between atoms: O_12  and  C_13
REMARK    7  A    between atoms: C_14  and  C_26
REMARK    8  A    between atoms: C_18  and  O_25
REMARK    9  A    between atoms: C_20  and  O_24
REMARK   10  A    between atoms: C_28  and  O_33
REMARK   11  A    between atoms: C_29  and  O_32
REMARK                            x       y       z     vdW  Elec       q    Type
REMARK                         _______ _______ _______ _____ _____    ______ ____
ROOT
ATOM      1  C   UNL     1       6.916  -4.248  24.643  0.00  0.00    +0.214 A 
ATOM      2  C   UNL     1       7.734  -3.575  23.576  0.00  0.00    +0.238 A 
ATOM      3  O   UNL     1       7.942  -4.088  22.482  0.00  0.00    -0.283 OA
ATOM      4  C   UNL     1       8.412  -2.324  23.928  0.00  0.00    +0.109 A 
ATOM      5  C   UNL     1       8.505  -2.003  25.276  0.00  0.00    +0.147 A 
ATOM      6  C   UNL     1       9.271  -0.906  25.681  0.00  0.00    +0.092 A 
ATOM      7  C   UNL     1       9.932  -0.141  24.720  0.00  0.00    +0.124 A 
ATOM      8  C   UNL     1       9.817  -0.430  23.366  0.00  0.00    +0.091 A 
ATOM      9  O   UNL     1       7.893  -2.734  26.261  0.00  0.00    -0.451 OA
ATOM     10  C   UNL     1       9.048  -1.520  22.968  0.00  0.00    +0.135 A 
ATOM     11  C   UNL     1       7.068  -3.806  25.914  0.00  0.00    +0.181 A 
ENDROOT
BRANCH  11  12
ATOM     12  C   UNL     1       6.439  -4.451  27.120  0.00  0.00    +0.025 A 
ATOM     13  C   UNL     1       5.362  -3.809  27.772  0.00  0.00    +0.015 A 
ATOM     14  C   UNL     1       4.737  -4.367  28.897  0.00  0.00    +0.050 A 
ATOM     15  C   UNL     1       5.186  -5.579  29.389  0.00  0.00    +0.158 A 
ATOM     16  C   UNL     1       6.245  -6.234  28.775  0.00  0.00    +0.159 A 
ATOM     17  C   UNL     1       6.859  -5.691  27.644  0.00  0.00    +0.060 A 
BRANCH  15  18
ATOM     18  O   UNL     1       4.579  -6.125  30.484  0.00  0.00    -0.503 OA
ATOM     19  H   UNL     1       3.715  -5.667  30.537  0.00  0.00    +0.292 HD
ENDBRANCH  15  18
BRANCH  16  20
ATOM     20  O   UNL     1       6.658  -7.420  29.322  0.00  0.00    -0.503 OA
ATOM     21  H   UNL     1       7.475  -7.248  29.825  0.00  0.00    +0.292 HD
ENDBRANCH  16  20
ENDBRANCH  11  12
BRANCH   7  22
ATOM     22  O   UNL     1      10.712   0.923  25.060  0.00  0.00    -0.507 OA
ATOM     23  H   UNL     1      11.178   0.727  25.888  0.00  0.00    +0.292 HD
ENDBRANCH   7  22
BRANCH  10  24
ATOM     24  O   UNL     1       8.915  -1.777  21.633  0.00  0.00    -0.506 OA
ATOM     25  H   UNL     1       9.661  -1.396  21.141  0.00  0.00    +0.292 HD
ENDBRANCH  10  24
BRANCH   1  26
ATOM     26  O   UNL     1       6.113  -5.345  24.362  0.00  0.00    -0.453 OA
BRANCH  26  30
ATOM     27  C   UNL     1       1.819  -3.813  25.790  0.00  0.00    +0.041 C 
ATOM     28  C   UNL     1       2.608  -4.353  24.599  0.00  0.00    +0.150 C 
ATOM     29  O   UNL     1       3.915  -4.729  25.056  0.00  0.00    -0.334 OA
ATOM     30  C   UNL     1       4.760  -5.119  23.960  0.00  0.00    +0.339 C 
ATOM     31  C   UNL     1       4.215  -6.408  23.317  0.00  0.00    +0.214 C 
ATOM     32  C   UNL     1       2.796  -6.121  22.825  0.00  0.00    +0.180 C 
ATOM     33  C   UNL     1       1.912  -5.564  23.954  0.00  0.00    +0.174 C 
BRANCH  31  34
ATOM     34  O   UNL     1       4.191  -7.510  24.241  0.00  0.00    -0.383 OA
ATOM     35  H   UNL     1       3.773  -8.239  23.737  0.00  0.00    +0.210 HD
ENDBRANCH  31  34
BRANCH  32  36
ATOM     36  O   UNL     1       2.213  -7.331  22.315  0.00  0.00    -0.386 OA
ATOM     37  H   UNL     1       1.424  -7.477  22.877  0.00  0.00    +0.210 HD
ENDBRANCH  32  36
BRANCH  33  38
ATOM     38  O   UNL     1       0.641  -5.231  23.383  0.00  0.00    -0.387 OA
ATOM     39  H   UNL     1       0.499  -5.827  22.625  0.00  0.00    +0.210 HD
ENDBRANCH  33  38
ENDBRANCH  26  30
ENDBRANCH   1  26
TORSDOF 10
ENDMDL
MODEL 4
REMARK VINA RESULT:      -7.4      1.598      2.563
REMARK  Name = 
REMARK  11 active torsions:
REMARK  status: ('A' for Active; 'I' for Inactive)
REMARK    1  A    between atoms: C_1  and  C_2
REMARK    2  A    between atoms: C_4  and  O_36
REMARK    3  A    between atoms: C_6  and  O_35
REMARK    4  A    between atoms: C_8  and  O_34
REMARK    5  A    between atoms: C_10  and  O_12
REMARK    6  A    between atoms: O_12  and  C_13
REMARK    7  A    between atoms: C_14  and  C_26
REMARK    8  A    between atoms: C_18  and  O_25
REMARK    9  A    between atoms: C_20  and  O_24
REMARK   10  A    between atoms: C_28  and  O_33
REMARK   11  A    between atoms: C_29  and  O_32
REMARK                            x       y       z     vdW  Elec       q    Type
REMARK                         _______ _______ _______ _____ _____    ______ ____
ROOT
ATOM      1  C   UNL     1       6.590  -1.108  24.795  0.00  0.00    +0.214 A 
ATOM      2  C   UNL     1       7.032   0.288  25.129  0.00  0.00    +0.238 A 
ATOM      3  O   UNL     1       6.472   0.973  25.978  0.00  0.00    -0.283 OA
ATOM      4  C   UNL     1       8.086   0.883  24.302  0.00  0.00    +0.109 A 
ATOM      5  C   UNL     1       8.392   0.253  23.102  0.00  0.00    +0.147 A 
ATOM      6  C   UNL     1       9.275   0.856  22.203  0.00  0.00    +0.092 A 
ATOM      7  C   UNL     1       9.847   2.087  22.525  0.00  0.00    +0.124 A 
ATOM      8  C   UNL     1       9.578   2.709  23.738  0.00  0.00    +0.091 A 
ATOM      9  O   UNL     1       7.842  -0.946  22.729  0.00  0.00    -0.451 OA
ATOM     10  C   UNL     1       8.701   2.102  24.632  0.00  0.00    +0.135 A 
ATOM     11  C   UNL     1       6.997  -1.623  23.610  0.00  0.00    +0.181 A 
ENDROOT
BRANCH  11  12
ATOM     12  C   UNL     1       6.537  -2.943  23.053  0.00  0.00    +0.025 A 
ATOM     13  C   UNL     1       7.471  -3.798  22.425  0.00  0.00    +0.015 A 
ATOM     14  C   UNL     1       7.098  -5.041  21.892  0.00  0.00    +0.050 A 
ATOM     15  C   UNL     1       5.778  -5.446  21.978  0.00  0.00    +0.158 A 
ATOM     16  C   UNL     1       4.834  -4.628  22.585  0.00  0.00    +0.159 A 
ATOM     17  C   UNL     1       5.204  -3.397  23.133  0.00  0.00    +0.060 A 
BRANCH  15  18
ATOM     18  O   UNL     1       5.412  -6.655  21.459  0.00  0.00    -0.503 OA
ATOM     19  H   UNL     1       4.584  -6.470  20.971  0.00  0.00    +0.292 HD
ENDBRANCH  15  18
BRANCH  16  20
ATOM     20  O   UNL     1       3.540  -5.073  22.619  0.00  0.00    -0.503 OA
ATOM     21  H   UNL     1       3.537  -6.005  22.331  0.00  0.00    +0.292 HD
ENDBRANCH  16  20
ENDBRANCH  11  12
BRANCH   7  22
ATOM     22  O   UNL     1      10.694   2.732  21.675  0.00  0.00    -0.507 OA
ATOM     23  H   UNL     1      10.832   3.640  21.989  0.00  0.00    +0.292 HD
ENDBRANCH   7  22
BRANCH  10  24
ATOM     24  O   UNL     1       8.469   2.706  25.836  0.00  0.00    -0.506 OA
ATOM     25  H   UNL     1       7.639   2.382  26.220  0.00  0.00    +0.292 HD
ENDBRANCH  10  24
BRANCH   1  26
ATOM     26  O   UNL     1       5.717  -1.812  25.614  0.00  0.00    -0.453 OA
BRANCH  26  30
ATOM     27  C   UNL     1       8.784  -5.454  26.007  0.00  0.00    +0.041 C 
ATOM     28  C   UNL     1       7.770  -4.602  26.766  0.00  0.00    +0.150 C 
ATOM     29  O   UNL     1       7.123  -3.727  25.831  0.00  0.00    -0.334 OA
ATOM     30  C   UNL     1       6.251  -2.799  26.499  0.00  0.00    +0.339 C 
ATOM     31  C   UNL     1       5.083  -3.561  27.151  0.00  0.00    +0.214 C 
ATOM     32  C   UNL     1       5.674  -4.557  28.150  0.00  0.00    +0.180 C 
ATOM     33  C   UNL     1       6.718  -5.467  27.484  0.00  0.00    +0.174 C 
BRANCH  31  34
ATOM     34  O   UNL     1       4.284  -4.265  26.185  0.00  0.00    -0.383 OA
ATOM     35  H   UNL     1       4.626  -3.960  25.319  0.00  0.00    +0.210 HD
ENDBRANCH  31  34
BRANCH  32  36
ATOM     36  O   UNL     1       4.620  -5.363  28.701  0.00  0.00    -0.386 OA
ATOM     37  H   UNL     1       4.562  -5.081  29.638  0.00  0.00    +0.210 HD
ENDBRANCH  32  36
BRANCH  33  38
ATOM     38  O   UNL     1       7.288  -6.292  28.507  0.00  0.00    -0.387 OA
ATOM     39  H   UNL     1       8.230  -6.414  28.290  0.00  0.00    +0.210 HD
ENDBRANCH  33  38
ENDBRANCH  26  30
ENDBRANCH   1  26
TORSDOF 10
ENDMDL
MODEL 5
REMARK VINA RESULT:      -7.4      2.239      6.569
REMARK  Name = 
REMARK  11 active torsions:
REMARK  status: ('A' for Active; 'I' for Inactive)
REMARK    1  A    between atoms: C_1  and  C_2
REMARK    2  A    between atoms: C_4  and  O_36
REMARK    3  A    between atoms: C_6  and  O_35
REMARK    4  A    between atoms: C_8  and  O_34
REMARK    5  A    between atoms: C_10  and  O_12
REMARK    6  A    between atoms: O_12  and  C_13
REMARK    7  A    between atoms: C_14  and  C_26
REMARK    8  A    between atoms: C_18  and  O_25
REMARK    9  A    between atoms: C_20  and  O_24
REMARK   10  A    between atoms: C_28  and  O_33
REMARK   11  A    between atoms: C_29  and  O_32
REMARK                            x       y       z     vdW  Elec       q    Type
REMARK                         _______ _______ _______ _____ _____    ______ ____
ROOT
ATOM      1  C   UNL     1       8.009  -2.218  25.189  0.00  0.00    +0.214 A 
ATOM      2  C   UNL     1       7.438  -3.595  25.381  0.00  0.00    +0.238 A 
ATOM      3  O   UNL     1       7.584  -4.231  26.419  0.00  0.00    -0.283 OA
ATOM      4  C   UNL     1       6.808  -4.236  24.223  0.00  0.00    +0.109 A 
ATOM      5  C   UNL     1       7.038  -3.673  22.975  0.00  0.00    +0.147 A 
ATOM      6  C   UNL     1       6.593  -4.327  21.822  0.00  0.00    +0.092 A 
ATOM      7  C   UNL     1       5.913  -5.539  21.941  0.00  0.00    +0.124 A 
ATOM      8  C   UNL     1       5.643  -6.093  23.187  0.00  0.00    +0.091 A 
ATOM      9  O   UNL     1       7.719  -2.496  22.801  0.00  0.00    -0.451 OA
ATOM     10  C   UNL     1       6.085  -5.436  24.332  0.00  0.00    +0.135 A 
ATOM     11  C   UNL     1       8.138  -1.770  23.917  0.00  0.00    +0.181 A 
ENDROOT
BRANCH  11  12
ATOM     12  C   UNL     1       8.815  -0.481  23.534  0.00  0.00    +0.025 A 
ATOM     13  C   UNL     1      10.084  -0.173  24.077  0.00  0.00    +0.015 A 
ATOM     14  C   UNL     1      10.762   1.012  23.752  0.00  0.00    +0.050 A 
ATOM     15  C   UNL     1      10.175   1.910  22.878  0.00  0.00    +0.158 A 
ATOM     16  C   UNL     1       8.928   1.639  22.331  0.00  0.00    +0.159 A 
ATOM     17  C   UNL     1       8.257   0.452  22.637  0.00  0.00    +0.060 A 
BRANCH  15  18
ATOM     18  O   UNL     1      10.832   3.063  22.560  0.00  0.00    -0.503 OA
ATOM     19  H   UNL     1      10.453   3.329  21.697  0.00  0.00    +0.292 HD
ENDBRANCH  15  18
BRANCH  16  20
ATOM     20  O   UNL     1       8.389   2.576  21.490  0.00  0.00    -0.503 OA
ATOM     21  H   UNL     1       8.515   3.452  21.899  0.00  0.00    +0.292 HD
ENDBRANCH  16  20
ENDBRANCH  11  12
BRANCH   7  22
ATOM     22  O   UNL     1       5.479  -6.231  20.851  0.00  0.00    -0.507 OA
ATOM     23  H   UNL     1       4.514  -6.151  20.785  0.00  0.00    +0.292 HD
ENDBRANCH   7  22
BRANCH  10  24
ATOM     24  O   UNL     1       5.787  -5.972  25.552  0.00  0.00    -0.506 OA
ATOM     25  H   UNL     1       6.596  -6.280  25.991  0.00  0.00    +0.292 HD
ENDBRANCH  10  24
BRANCH   1  26
ATOM     26  O   UNL     1       8.481  -1.469  26.258  0.00  0.00    -0.453 OA
BRANCH  26  30
ATOM     27  C   UNL     1       3.863  -0.441  26.926  0.00  0.00    +0.041 C 
ATOM     28  C   UNL     1       5.256  -0.340  27.543  0.00  0.00    +0.150 C 
ATOM     29  O   UNL     1       6.213  -0.801  26.579  0.00  0.00    -0.334 OA
ATOM     30  C   UNL     1       7.535  -0.863  27.142  0.00  0.00    +0.339 C 
ATOM     31  C   UNL     1       8.020   0.558  27.486  0.00  0.00    +0.214 C 
ATOM     32  C   UNL     1       7.036   1.158  28.491  0.00  0.00    +0.180 C 
ATOM     33  C   UNL     1       5.592   1.101  27.965  0.00  0.00    +0.174 C 
BRANCH  31  34
ATOM     34  O   UNL     1       8.098   1.403  26.325  0.00  0.00    -0.383 OA
ATOM     35  H   UNL     1       7.954   0.793  25.572  0.00  0.00    +0.210 HD
ENDBRANCH  31  34
BRANCH  32  36
ATOM     36  O   UNL     1       7.395   2.523  28.754  0.00  0.00    -0.386 OA
ATOM     37  H   UNL     1       6.548   2.959  28.980  0.00  0.00    +0.210 HD
ENDBRANCH  32  36
BRANCH  33  38
ATOM     38  O   UNL     1       4.734   1.587  29.004  0.00  0.00    -0.387 OA
ATOM     39  H   UNL     1       4.697   2.557  28.920  0.00  0.00    +0.210 HD
ENDBRANCH  33  38
ENDBRANCH  26  30
ENDBRANCH   1  26
TORSDOF 10
ENDMDL
MODEL 6
REMARK VINA RESULT:      -7.4      2.518      6.922
REMARK  Name = 
REMARK  11 active torsions:
REMARK  status: ('A' for Active; 'I' for Inactive)
REMARK    1  A    between atoms: C_1  and  C_2
REMARK    2  A    between atoms: C_4  and  O_36
REMARK    3  A    between atoms: C_6  and  O_35
REMARK    4  A    between atoms: C_8  and  O_34
REMARK    5  A    between atoms: C_10  and  O_12
REMARK    6  A    between atoms: O_12  and  C_13
REMARK    7  A    between atoms: C_14  and  C_26
REMARK    8  A    between atoms: C_18  and  O_25
REMARK    9  A    between atoms: C_20  and  O_24
REMARK   10  A    between atoms: C_28  and  O_33
REMARK   11  A    between atoms: C_29  and  O_32
REMARK                            x       y       z     vdW  Elec       q    Type
REMARK                         _______ _______ _______ _____ _____    ______ ____
ROOT
ATOM      1  C   UNL     1       7.792  -1.923  25.240  0.00  0.00    +0.214 A 
ATOM      2  C   UNL     1       7.203  -3.274  25.538  0.00  0.00    +0.238 A 
ATOM      3  O   UNL     1       7.255  -3.785  26.651  0.00  0.00    -0.283 OA
ATOM      4  C   UNL     1       6.675  -4.048  24.410  0.00  0.00    +0.109 A 
ATOM      5  C   UNL     1       7.016  -3.630  23.130  0.00  0.00    +0.147 A 
ATOM      6  C   UNL     1       6.672  -4.415  22.026  0.00  0.00    +0.092 A 
ATOM      7  C   UNL     1       5.981  -5.610  22.224  0.00  0.00    +0.124 A 
ATOM      8  C   UNL     1       5.601  -6.020  23.496  0.00  0.00    +0.091 A 
ATOM      9  O   UNL     1       7.712  -2.476  22.883  0.00  0.00    -0.451 OA
ATOM     10  C   UNL     1       5.943  -5.233  24.592  0.00  0.00    +0.135 A 
ATOM     11  C   UNL     1       8.034  -1.624  23.941  0.00  0.00    +0.181 A 
ENDROOT
BRANCH  11  12
ATOM     12  C   UNL     1       8.745  -0.382  23.474  0.00  0.00    +0.025 A 
ATOM     13  C   UNL     1      10.085  -0.157  23.866  0.00  0.00    +0.015 A 
ATOM     14  C   UNL     1      10.797   0.981  23.457  0.00  0.00    +0.050 A 
ATOM     15  C   UNL     1      10.174   1.915  22.649  0.00  0.00    +0.158 A 
ATOM     16  C   UNL     1       8.857   1.726  22.249  0.00  0.00    +0.159 A 
ATOM     17  C   UNL     1       8.150   0.586  22.639  0.00  0.00    +0.060 A 
BRANCH  15  18
ATOM     18  O   UNL     1      10.864   3.023  22.249  0.00  0.00    -0.503 OA
ATOM     19  H   UNL     1      11.773   2.876  22.581  0.00  0.00    +0.292 HD
ENDBRANCH  15  18
BRANCH  16  20
ATOM     20  O   UNL     1       8.289   2.696  21.468  0.00  0.00    -0.503 OA
ATOM     21  H   UNL     1       9.002   3.128  20.961  0.00  0.00    +0.292 HD
ENDBRANCH  16  20
ENDBRANCH  11  12
BRANCH   7  22
ATOM     22  O   UNL     1       5.642  -6.426  21.186  0.00  0.00    -0.507 OA
ATOM     23  H   UNL     1       4.882  -6.971  21.443  0.00  0.00    +0.292 HD
ENDBRANCH   7  22
BRANCH  10  24
ATOM     24  O   UNL     1       5.537  -5.628  25.835  0.00  0.00    -0.506 OA
ATOM     25  H   UNL     1       5.441  -4.858  26.418  0.00  0.00    +0.292 HD
ENDBRANCH  10  24
BRANCH   1  26
ATOM     26  O   UNL     1       8.171  -1.054  26.253  0.00  0.00    -0.453 OA
BRANCH  26  30
ATOM     27  C   UNL     1       7.775   3.626  25.373  0.00  0.00    +0.041 C 
ATOM     28  C   UNL     1       7.116   2.437  26.068  0.00  0.00    +0.150 C 
ATOM     29  O   UNL     1       7.998   1.310  25.969  0.00  0.00    -0.334 OA
ATOM     30  C   UNL     1       7.381   0.116  26.483  0.00  0.00    +0.339 C 
ATOM     31  C   UNL     1       7.148   0.263  27.998  0.00  0.00    +0.214 C 
ATOM     32  C   UNL     1       6.239   1.474  28.216  0.00  0.00    +0.180 C 
ATOM     33  C   UNL     1       6.812   2.734  27.547  0.00  0.00    +0.174 C 
BRANCH  31  34
ATOM     34  O   UNL     1       8.376   0.447  28.724  0.00  0.00    -0.383 OA
ATOM     35  H   UNL     1       8.106   0.915  29.541  0.00  0.00    +0.210 HD
ENDBRANCH  31  34
BRANCH  32  36
ATOM     36  O   UNL     1       6.084   1.709  29.624  0.00  0.00    -0.386 OA
ATOM     37  H   UNL     1       5.218   1.309  29.845  0.00  0.00    +0.210 HD
ENDBRANCH  32  36
BRANCH  33  38
ATOM     38  O   UNL     1       5.854   3.786  27.713  0.00  0.00    -0.387 OA
ATOM     39  H   UNL     1       5.245   3.513  28.423  0.00  0.00    +0.210 HD
ENDBRANCH  33  38
ENDBRANCH  26  30
ENDBRANCH   1  26
TORSDOF 10
ENDMDL
MODEL 7
REMARK VINA RESULT:      -7.3      2.237      4.299
REMARK  Name = 
REMARK  11 active torsions:
REMARK  status: ('A' for Active; 'I' for Inactive)
REMARK    1  A    between atoms: C_1  and  C_2
REMARK    2  A    between atoms: C_4  and  O_36
REMARK    3  A    between atoms: C_6  and  O_35
REMARK    4  A    between atoms: C_8  and  O_34
REMARK    5  A    between atoms: C_10  and  O_12
REMARK    6  A    between atoms: O_12  and  C_13
REMARK    7  A    between atoms: C_14  and  C_26
REMARK    8  A    between atoms: C_18  and  O_25
REMARK    9  A    between atoms: C_20  and  O_24
REMARK   10  A    between atoms: C_28  and  O_33
REMARK   11  A    between atoms: C_29  and  O_32
REMARK                            x       y       z     vdW  Elec       q    Type
REMARK                         _______ _______ _______ _____ _____    ______ ____
ROOT
ATOM      1  C   UNL     1       7.446  -2.208  25.585  0.00  0.00    +0.214 A 
ATOM      2  C   UNL     1       8.664  -2.236  24.705  0.00  0.00    +0.238 A 
ATOM      3  O   UNL     1       9.554  -3.068  24.836  0.00  0.00    -0.283 OA
ATOM      4  C   UNL     1       8.838  -1.135  23.752  0.00  0.00    +0.109 A 
ATOM      5  C   UNL     1       8.048  -0.006  23.925  0.00  0.00    +0.147 A 
ATOM      6  C   UNL     1       8.277   1.132  23.146  0.00  0.00    +0.092 A 
ATOM      7  C   UNL     1       9.296   1.117  22.195  0.00  0.00    +0.124 A 
ATOM      8  C   UNL     1      10.069  -0.020  21.986  0.00  0.00    +0.091 A 
ATOM      9  O   UNL     1       7.048   0.068  24.859  0.00  0.00    -0.451 OA
ATOM     10  C   UNL     1       9.834  -1.151  22.762  0.00  0.00    +0.135 A 
ATOM     11  C   UNL     1       6.736  -1.055  25.628  0.00  0.00    +0.181 A 
ENDROOT
BRANCH  11  12
ATOM     12  C   UNL     1       5.577  -0.804  26.556  0.00  0.00    +0.025 A 
ATOM     13  C   UNL     1       5.806  -0.175  27.801  0.00  0.00    +0.015 A 
ATOM     14  C   UNL     1       4.763   0.087  28.702  0.00  0.00    +0.050 A 
ATOM     15  C   UNL     1       3.472  -0.283  28.370  0.00  0.00    +0.158 A 
ATOM     16  C   UNL     1       3.214  -0.907  27.157  0.00  0.00    +0.159 A 
ATOM     17  C   UNL     1       4.247  -1.154  26.248  0.00  0.00    +0.060 A 
BRANCH  15  18
ATOM     18  O   UNL     1       2.456  -0.030  29.246  0.00  0.00    -0.503 OA
ATOM     19  H   UNL     1       2.852  -0.178  30.128  0.00  0.00    +0.292 HD
ENDBRANCH  15  18
BRANCH  16  20
ATOM     20  O   UNL     1       1.920  -1.269  26.895  0.00  0.00    -0.503 OA
ATOM     21  H   UNL     1       1.904  -2.233  26.748  0.00  0.00    +0.292 HD
ENDBRANCH  16  20
ENDBRANCH  11  12
BRANCH   7  22
ATOM     22  O   UNL     1       9.579   2.205  21.425  0.00  0.00    -0.507 OA
ATOM     23  H   UNL     1       9.502   1.963  20.489  0.00  0.00    +0.292 HD
ENDBRANCH   7  22
BRANCH  10  24
ATOM     24  O   UNL     1      10.577  -2.273  22.526  0.00  0.00    -0.506 OA
ATOM     25  H   UNL     1      10.001  -3.051  22.460  0.00  0.00    +0.292 HD
ENDBRANCH  10  24
BRANCH   1  26
ATOM     26  O   UNL     1       7.113  -3.280  26.402  0.00  0.00    -0.453 OA
BRANCH  26  30
ATOM     27  C   UNL     1       5.003  -5.140  22.540  0.00  0.00    +0.041 C 
ATOM     28  C   UNL     1       5.617  -5.475  23.897  0.00  0.00    +0.150 C 
ATOM     29  O   UNL     1       5.934  -4.245  24.566  0.00  0.00    -0.334 OA
ATOM     30  C   UNL     1       6.642  -4.485  25.794  0.00  0.00    +0.339 C 
ATOM     31  C   UNL     1       5.722  -5.214  26.791  0.00  0.00    +0.214 C 
ATOM     32  C   UNL     1       5.294  -6.535  26.151  0.00  0.00    +0.180 C 
ATOM     33  C   UNL     1       4.662  -6.310  24.768  0.00  0.00    +0.174 C 
BRANCH  31  34
ATOM     34  O   UNL     1       4.557  -4.439  27.124  0.00  0.00    -0.383 OA
ATOM     35  H   UNL     1       4.321  -3.985  26.288  0.00  0.00    +0.210 HD
ENDBRANCH  31  34
BRANCH  32  36
ATOM     36  O   UNL     1       4.347  -7.195  27.007  0.00  0.00    -0.386 OA
ATOM     37  H   UNL     1       4.858  -7.919  27.423  0.00  0.00    +0.210 HD
ENDBRANCH  32  36
BRANCH  33  38
ATOM     38  O   UNL     1       4.386  -7.598  24.204  0.00  0.00    -0.387 OA
ATOM     39  H   UNL     1       3.424  -7.743  24.268  0.00  0.00    +0.210 HD
ENDBRANCH  33  38
ENDBRANCH  26  30
ENDBRANCH   1  26
TORSDOF 10
ENDMDL
MODEL 8
REMARK VINA RESULT:      -7.2      2.562      6.581
REMARK  Name = 
REMARK  11 active torsions:
REMARK  status: ('A' for Active; 'I' for Inactive)
REMARK    1  A    between atoms: C_1  and  C_2
REMARK    2  A    between atoms: C_4  and  O_36
REMARK    3  A    between atoms: C_6  and  O_35
REMARK    4  A    between atoms: C_8  and  O_34
REMARK    5  A    between atoms: C_10  and  O_12
REMARK    6  A    between atoms: O_12  and  C_13
REMARK    7  A    between atoms: C_14  and  C_26
REMARK    8  A    between atoms: C_18  and  O_25
REMARK    9  A    between atoms: C_20  and  O_24
REMARK   10  A    between atoms: C_28  and  O_33
REMARK   11  A    between atoms: C_29  and  O_32
REMARK                            x       y       z     vdW  Elec       q    Type
REMARK                         _______ _______ _______ _____ _____    ______ ____
ROOT
ATOM      1  C   UNL     1       6.872  -2.928  25.952  0.00  0.00    +0.214 A 
ATOM      2  C   UNL     1       6.294  -4.093  26.705  0.00  0.00    +0.238 A 
ATOM      3  O   UNL     1       6.599  -4.345  27.865  0.00  0.00    -0.283 OA
ATOM      4  C   UNL     1       5.444  -5.028  25.962  0.00  0.00    +0.109 A 
ATOM      5  C   UNL     1       5.470  -4.954  24.575  0.00  0.00    +0.147 A 
ATOM      6  C   UNL     1       4.802  -5.916  23.812  0.00  0.00    +0.092 A 
ATOM      7  C   UNL     1       4.110  -6.941  24.457  0.00  0.00    +0.124 A 
ATOM      8  C   UNL     1       4.046  -7.006  25.844  0.00  0.00    +0.091 A 
ATOM      9  O   UNL     1       6.151  -3.980  23.893  0.00  0.00    -0.451 OA
ATOM     10  C   UNL     1       4.709  -6.042  26.598  0.00  0.00    +0.135 A 
ATOM     11  C   UNL     1       6.789  -2.959  24.600  0.00  0.00    +0.181 A 
ENDROOT
BRANCH  11  12
ATOM     12  C   UNL     1       7.435  -1.953  23.685  0.00  0.00    +0.025 A 
ATOM     13  C   UNL     1       6.829  -0.688  23.502  0.00  0.00    +0.015 A 
ATOM     14  C   UNL     1       7.388   0.289  22.665  0.00  0.00    +0.050 A 
ATOM     15  C   UNL     1       8.565   0.011  21.993  0.00  0.00    +0.158 A 
ATOM     16  C   UNL     1       9.184  -1.223  22.147  0.00  0.00    +0.159 A 
ATOM     17  C   UNL     1       8.640  -2.193  22.994  0.00  0.00    +0.060 A 
BRANCH  15  18
ATOM     18  O   UNL     1       9.112   0.959  21.178  0.00  0.00    -0.503 OA
ATOM     19  H   UNL     1       9.417   0.459  20.393  0.00  0.00    +0.292 HD
ENDBRANCH  15  18
BRANCH  16  20
ATOM     20  O   UNL     1      10.334  -1.446  21.439  0.00  0.00    -0.503 OA
ATOM     21  H   UNL     1      10.730  -0.580  21.232  0.00  0.00    +0.292 HD
ENDBRANCH  16  20
ENDBRANCH  11  12
BRANCH   7  22
ATOM     22  O   UNL     1       3.463  -7.920  23.764  0.00  0.00    -0.507 OA
ATOM     23  H   UNL     1       3.440  -8.729  24.299  0.00  0.00    +0.292 HD
ENDBRANCH   7  22
BRANCH  10  24
ATOM     24  O   UNL     1       4.613  -6.095  27.960  0.00  0.00    -0.506 OA
ATOM     25  H   UNL     1       4.929  -5.265  28.352  0.00  0.00    +0.292 HD
ENDBRANCH  10  24
BRANCH   1  26
ATOM     26  O   UNL     1       7.555  -1.908  26.599  0.00  0.00    -0.453 OA
BRANCH  26  30
ATOM     27  C   UNL     1       3.406   0.422  27.030  0.00  0.00    +0.041 C 
ATOM     28  C   UNL     1       4.767   0.187  27.681  0.00  0.00    +0.150 C 
ATOM     29  O   UNL     1       5.562  -0.608  26.790  0.00  0.00    -0.334 OA
ATOM     30  C   UNL     1       6.811  -0.984  27.398  0.00  0.00    +0.339 C 
ATOM     31  C   UNL     1       7.672   0.270  27.634  0.00  0.00    +0.214 C 
ATOM     32  C   UNL     1       6.889   1.209  28.552  0.00  0.00    +0.180 C 
ATOM     33  C   UNL     1       5.491   1.510  27.987  0.00  0.00    +0.174 C 
BRANCH  31  34
ATOM     34  O   UNL     1       7.991   0.951  26.407  0.00  0.00    -0.383 OA
ATOM     35  H   UNL     1       8.754   0.453  26.046  0.00  0.00    +0.210 HD
ENDBRANCH  31  34
BRANCH  32  36
ATOM     36  O   UNL     1       7.615   2.439  28.709  0.00  0.00    -0.386 OA
ATOM     37  H   UNL     1       8.526   2.158  28.933  0.00  0.00    +0.210 HD
ENDBRANCH  32  36
BRANCH  33  38
ATOM     38  O   UNL     1       4.797   2.308  28.954  0.00  0.00    -0.387 OA
ATOM     39  H   UNL     1       5.197   2.124  29.823  0.00  0.00    +0.210 HD
ENDBRANCH  33  38
ENDBRANCH  26  30
ENDBRANCH   1  26
TORSDOF 10
ENDMDL
MODEL 9
REMARK VINA RESULT:      -7.1      2.538      6.525
REMARK  Name = 
REMARK  11 active torsions:
REMARK  status: ('A' for Active; 'I' for Inactive)
REMARK    1  A    between atoms: C_1  and  C_2
REMARK    2  A    between atoms: C_4  and  O_36
REMARK    3  A    between atoms: C_6  and  O_35
REMARK    4  A    between atoms: C_8  and  O_34
REMARK    5  A    between atoms: C_10  and  O_12
REMARK    6  A    between atoms: O_12  and  C_13
REMARK    7  A    between atoms: C_14  and  C_26
REMARK    8  A    between atoms: C_18  and  O_25
REMARK    9  A    between atoms: C_20  and  O_24
REMARK   10  A    between atoms: C_28  and  O_33
REMARK   11  A    between atoms: C_29  and  O_32
REMARK                            x       y       z     vdW  Elec       q    Type
REMARK                         _______ _______ _______ _____ _____    ______ ____
ROOT
ATOM      1  C   UNL     1       7.741  -2.073  25.288  0.00  0.00    +0.214 A 
ATOM      2  C   UNL     1       7.152  -3.444  25.464  0.00  0.00    +0.238 A 
ATOM      3  O   UNL     1       7.130  -4.019  26.547  0.00  0.00    -0.283 OA
ATOM      4  C   UNL     1       6.719  -4.158  24.259  0.00  0.00    +0.109 A 
ATOM      5  C   UNL     1       7.148  -3.664  23.034  0.00  0.00    +0.147 A 
ATOM      6  C   UNL     1       6.897  -4.387  21.864  0.00  0.00    +0.092 A 
ATOM      7  C   UNL     1       6.211  -5.599  21.942  0.00  0.00    +0.124 A 
ATOM      8  C   UNL     1       5.745  -6.085  23.158  0.00  0.00    +0.091 A 
ATOM      9  O   UNL     1       7.843  -2.490  22.904  0.00  0.00    -0.451 OA
ATOM     10  C   UNL     1       5.994  -5.359  24.318  0.00  0.00    +0.135 A 
ATOM     11  C   UNL     1       8.074  -1.697  24.030  0.00  0.00    +0.181 A 
ENDROOT
BRANCH  11  12
ATOM     12  C   UNL     1       8.800  -0.423  23.687  0.00  0.00    +0.025 A 
ATOM     13  C   UNL     1      10.020  -0.121  24.334  0.00  0.00    +0.015 A 
ATOM     14  C   UNL     1      10.740   1.050  24.051  0.00  0.00    +0.050 A 
ATOM     15  C   UNL     1      10.244   1.940  23.115  0.00  0.00    +0.158 A 
ATOM     16  C   UNL     1       9.046   1.675  22.465  0.00  0.00    +0.159 A 
ATOM     17  C   UNL     1       8.334   0.502  22.731  0.00  0.00    +0.060 A 
BRANCH  15  18
ATOM     18  O   UNL     1      10.942   3.080  22.838  0.00  0.00    -0.503 OA
ATOM     19  H   UNL     1      11.660   3.093  23.503  0.00  0.00    +0.292 HD
ENDBRANCH  15  18
BRANCH  16  20
ATOM     20  O   UNL     1       8.596   2.605  21.566  0.00  0.00    -0.503 OA
ATOM     21  H   UNL     1       8.701   3.486  21.970  0.00  0.00    +0.292 HD
ENDBRANCH  16  20
ENDBRANCH  11  12
BRANCH   7  22
ATOM     22  O   UNL     1       5.962  -6.357  20.838  0.00  0.00    -0.507 OA
ATOM     23  H   UNL     1       6.696  -6.261  20.211  0.00  0.00    +0.292 HD
ENDBRANCH   7  22
BRANCH  10  24
ATOM     24  O   UNL     1       5.503  -5.829  25.504  0.00  0.00    -0.506 OA
ATOM     25  H   UNL     1       5.685  -5.197  26.218  0.00  0.00    +0.292 HD
ENDBRANCH  10  24
BRANCH   1  26
ATOM     26  O   UNL     1       8.032  -1.259  26.374  0.00  0.00    -0.453 OA
BRANCH  26  30
ATOM     27  C   UNL     1       7.122   2.332  29.392  0.00  0.00    +0.041 C 
ATOM     28  C   UNL     1       6.706   1.690  28.071  0.00  0.00    +0.150 C 
ATOM     29  O   UNL     1       7.437   0.465  27.913  0.00  0.00    -0.334 OA
ATOM     30  C   UNL     1       7.197  -0.126  26.624  0.00  0.00    +0.339 C 
ATOM     31  C   UNL     1       5.725  -0.565  26.521  0.00  0.00    +0.214 C 
ATOM     32  C   UNL     1       4.851   0.675  26.714  0.00  0.00    +0.180 C 
ATOM     33  C   UNL     1       5.195   1.405  28.024  0.00  0.00    +0.174 C 
BRANCH  31  34
ATOM     34  O   UNL     1       5.380  -1.555  27.506  0.00  0.00    -0.383 OA
ATOM     35  H   UNL     1       4.882  -1.056  28.186  0.00  0.00    +0.210 HD
ENDBRANCH  31  34
BRANCH  32  36
ATOM     36  O   UNL     1       3.468   0.288  26.732  0.00  0.00    -0.386 OA
ATOM     37  H   UNL     1       3.489  -0.691  26.741  0.00  0.00    +0.210 HD
ENDBRANCH  32  36
BRANCH  33  38
ATOM     38  O   UNL     1       4.406   2.600  28.072  0.00  0.00    -0.387 OA
ATOM     39  H   UNL     1       4.045   2.672  28.974  0.00  0.00    +0.210 HD
ENDBRANCH  33  38
ENDBRANCH  26  30
ENDBRANCH   1  26
TORSDOF 10
ENDMDL
