MODEL 1
REMARK VINA RESULT:      -7.9      0.000      0.000
REMARK  Name = 
REMARK  27 active torsions:
REMARK  status: ('A' for Active; 'I' for Inactive)
REMARK    1  A    between atoms: C_1  and  C_2
REMARK    2  A    between atoms: C_4  and  O_80
REMARK    3  A    between atoms: C_6  and  O_79
REMARK    4  A    between atoms: C_8  and  O_51
REMARK    5  A    between atoms: C_10  and  O_13
REMARK    6  A    between atoms: O_13  and  C_14
REMARK    7  A    between atoms: C_15  and  C_43
REMARK    8  A    between atoms: C_19  and  O_26
REMARK    9  A    between atoms: C_21  and  O_25
REMARK   10  A    between atoms: O_26  and  C_27
REMARK   11  A    between atoms: C_29  and  O_42
REMARK   12  A    between atoms: C_31  and  O_41
REMARK   13  A    between atoms: C_33  and  O_40
REMARK   14  A    between atoms: C_35  and  C_38
REMARK   15  A    between atoms: C_38  and  O_39
REMARK   16  A    between atoms: C_45  and  O_50
REMARK   17  A    between atoms: C_46  and  O_49
REMARK   18  A    between atoms: O_51  and  C_52
REMARK   19  A    between atoms: C_54  and  O_78
REMARK   20  A    between atoms: C_56  and  O_77
REMARK   21  A    between atoms: C_58  and  O_76
REMARK   22  A    between atoms: C_60  and  C_63
REMARK   23  A    between atoms: C_63  and  O_64
REMARK   24  A    between atoms: O_64  and  C_65
REMARK   25  A    between atoms: C_65  and  C_67
REMARK   26  A    between atoms: C_68  and  C_69
REMARK   27  A    between atoms: C_72  and  O_75
REMARK                            x       y       z     vdW  Elec       q    Type
REMARK                         _______ _______ _______ _____ _____    ______ ____
ROOT
ATOM      1  O   UNL     1       4.964  -2.699  27.924  0.00  0.00    -0.453 OA
ENDROOT
BRANCH   1   2
ATOM      2  C   UNL     1       5.556  -1.522  27.487  0.00  0.00    +0.214 A 
ATOM      3  C   UNL     1       4.972  -0.184  27.830  0.00  0.00    +0.238 A 
ATOM      4  O   UNL     1       4.074  -0.067  28.654  0.00  0.00    -0.283 OA
ATOM      5  C   UNL     1       5.525   0.990  27.144  0.00  0.00    +0.109 A 
ATOM      6  C   UNL     1       6.683   0.815  26.396  0.00  0.00    +0.147 A 
ATOM      7  C   UNL     1       7.276   1.908  25.764  0.00  0.00    +0.093 A 
ATOM      8  C   UNL     1       6.702   3.180  25.871  0.00  0.00    +0.131 A 
ATOM      9  C   UNL     1       5.543   3.359  26.622  0.00  0.00    +0.092 A 
ATOM     10  O   UNL     1       7.309  -0.399  26.251  0.00  0.00    -0.451 OA
ATOM     11  C   UNL     1       4.946   2.265  27.243  0.00  0.00    +0.135 A 
ATOM     12  C   UNL     1       6.694  -1.532  26.765  0.00  0.00    +0.181 A 
BRANCH  12  13
ATOM     13  C   UNL     1       7.434  -2.771  26.428  0.00  0.00    +0.025 A 
ATOM     14  C   UNL     1       8.431  -2.755  25.439  0.00  0.00    +0.015 A 
ATOM     15  C   UNL     1       9.212  -3.890  25.171  0.00  0.00    +0.050 A 
ATOM     16  C   UNL     1       9.002  -5.047  25.902  0.00  0.00    +0.158 A 
ATOM     17  C   UNL     1       8.009  -5.089  26.878  0.00  0.00    +0.159 A 
ATOM     18  C   UNL     1       7.216  -3.966  27.142  0.00  0.00    +0.060 A 
BRANCH  17  19
ATOM     19  O   UNL     1       7.858  -6.266  27.562  0.00  0.00    -0.503 OA
ATOM     20  H   UNL     1       7.777  -6.066  28.509  0.00  0.00    +0.292 HD
ENDBRANCH  17  19
BRANCH  16  21
ATOM     21  O   UNL     1       9.789  -6.139  25.673  0.00  0.00    -0.503 OA
ATOM     22  H   UNL     1      10.210  -5.966  24.807  0.00  0.00    +0.292 HD
ENDBRANCH  16  21
ENDBRANCH  12  13
BRANCH  11  23
ATOM     23  O   UNL     1       3.785   2.457  27.935  0.00  0.00    -0.506 OA
ATOM     24  H   UNL     1       3.520   1.649  28.403  0.00  0.00    +0.292 HD
ENDBRANCH  11  23
BRANCH   8  25
ATOM     25  O   UNL     1       7.221   4.322  25.313  0.00  0.00    -0.461 OA
BRANCH  25  26
ATOM     26  C   UNL     1       7.370   4.262  23.889  0.00  0.00    +0.339 C 
ATOM     27  O   UNL     1       8.552   4.937  23.453  0.00  0.00    -0.331 OA
ATOM     28  C   UNL     1       8.494   6.361  23.317  0.00  0.00    +0.179 C 
ATOM     29  C   UNL     1       7.303   6.794  22.449  0.00  0.00    +0.177 C 
ATOM     30  C   UNL     1       5.966   6.222  22.937  0.00  0.00    +0.180 C 
ATOM     31  C   UNL     1       6.074   4.708  23.167  0.00  0.00    +0.214 C 
BRANCH  31  32
ATOM     32  O   UNL     1       6.035   4.063  21.873  0.00  0.00    -0.383 OA
ATOM     33  H   UNL     1       6.328   3.137  22.019  0.00  0.00    +0.210 HD
ENDBRANCH  31  32
BRANCH  30  34
ATOM     34  O   UNL     1       5.422   6.921  24.051  0.00  0.00    -0.386 OA
ATOM     35  H   UNL     1       5.770   6.537  24.884  0.00  0.00    +0.210 HD
ENDBRANCH  30  34
BRANCH  29  36
ATOM     36  O   UNL     1       7.550   6.282  21.119  0.00  0.00    -0.386 OA
ATOM     37  H   UNL     1       8.211   5.569  21.197  0.00  0.00    +0.210 HD
ENDBRANCH  29  36
BRANCH  28  38
ATOM     38  C   UNL     1       8.636   7.108  24.654  0.00  0.00    +0.190 C 
BRANCH  38  39
ATOM     39  O   UNL     1       9.421   6.407  25.612  0.00  0.00    -0.392 OA
ATOM     40  H   UNL     1       9.879   5.692  25.123  0.00  0.00    +0.210 HD
ENDBRANCH  38  39
ENDBRANCH  28  38
ENDBRANCH  25  26
ENDBRANCH   8  25
ENDBRANCH   1   2
BRANCH   1  44
ATOM     41  C   UNL     1       0.846  -1.520  28.614  0.00  0.00    +0.041 C 
ATOM     42  C   UNL     1       1.572  -2.676  29.322  0.00  0.00    +0.150 C 
ATOM     43  O   UNL     1       3.006  -2.610  29.207  0.00  0.00    -0.334 OA
ATOM     44  C   UNL     1       3.525  -2.750  27.873  0.00  0.00    +0.340 C 
ATOM     45  C   UNL     1       3.121  -4.090  27.233  0.00  0.00    +0.221 C 
ATOM     46  C   UNL     1       1.606  -4.343  27.479  0.00  0.00    +0.180 C 
ATOM     47  C   UNL     1       1.117  -4.071  28.888  0.00  0.00    +0.174 C 
BRANCH  47  48
ATOM     48  O   UNL     1       1.597  -5.088  29.772  0.00  0.00    -0.387 OA
ATOM     49  H   UNL     1       1.603  -4.699  30.674  0.00  0.00    +0.210 HD
ENDBRANCH  47  48
BRANCH  46  50
ATOM     50  O   UNL     1       0.701  -3.573  26.686  0.00  0.00    -0.386 OA
ATOM     51  H   UNL     1       0.739  -2.635  26.921  0.00  0.00    +0.210 HD
ENDBRANCH  46  50
BRANCH  45  52
ATOM     52  O   UNL     1       3.598  -4.319  25.854  0.00  0.00    -0.337 OA
BRANCH  52  53
ATOM     53  C   UNL     1       4.155  -5.596  25.544  0.00  0.00    +0.282 C 
ATOM     54  O   UNL     1       5.458  -5.461  24.996  0.00  0.00    -0.339 OA
ATOM     55  C   UNL     1       5.561  -4.904  23.663  0.00  0.00    +0.190 C 
ATOM     56  C   UNL     1       4.794  -5.767  22.671  0.00  0.00    +0.178 C 
ATOM     57  C   UNL     1       3.348  -5.997  23.142  0.00  0.00    +0.179 C 
ATOM     58  C   UNL     1       3.312  -6.491  24.601  0.00  0.00    +0.201 C 
BRANCH  58  59
ATOM     59  O   UNL     1       3.847  -7.829  24.656  0.00  0.00    -0.384 OA
ATOM     60  H   UNL     1       4.216  -7.940  25.564  0.00  0.00    +0.210 HD
ENDBRANCH  58  59
BRANCH  57  61
ATOM     61  O   UNL     1       2.548  -4.833  22.948  0.00  0.00    -0.386 OA
ATOM     62  H   UNL     1       2.976  -4.070  23.381  0.00  0.00    +0.210 HD
ENDBRANCH  57  61
BRANCH  56  63
ATOM     63  O   UNL     1       5.475  -7.036  22.616  0.00  0.00    -0.386 OA
ATOM     64  H   UNL     1       4.809  -7.727  22.744  0.00  0.00    +0.210 HD
ENDBRANCH  56  63
BRANCH  55  65
ATOM     65  C   UNL     1       5.214  -3.422  23.546  0.00  0.00    +0.266 C 
BRANCH  65  66
ATOM     66  O   UNL     1       5.617  -2.836  22.313  0.00  0.00    -0.459 OA
BRANCH  66  67
ATOM     67  C   UNL     1       6.964  -2.903  22.137  0.00  0.00    +0.332 C 
ATOM     68  O   UNL     1       7.619  -3.853  21.745  0.00  0.00    -0.246 OA
BRANCH  67  69
ATOM     69  C   UNL     1       7.517  -1.611  22.521  0.00  0.00    +0.092 C 
ATOM     70  C   UNL     1       8.827  -1.408  22.341  0.00  0.00    +0.015 C 
BRANCH  70  71
ATOM     71  C   UNL     1       9.456  -0.136  22.659  0.00  0.00    -0.025 A 
ATOM     72  C   UNL     1      10.042   0.097  23.909  0.00  0.00    +0.011 A 
ATOM     73  C   UNL     1      10.647   1.317  24.177  0.00  0.00    +0.046 A 
ATOM     74  C   UNL     1      10.643   2.315  23.211  0.00  0.00    +0.117 A 
ATOM     75  C   UNL     1      10.025   2.122  21.982  0.00  0.00    +0.046 A 
ATOM     76  C   UNL     1       9.423   0.896  21.711  0.00  0.00    +0.011 A 
BRANCH  74  77
ATOM     77  O   UNL     1      11.273   3.485  23.513  0.00  0.00    -0.507 OA
ATOM     78  H   UNL     1      11.634   3.410  24.411  0.00  0.00    +0.292 HD
ENDBRANCH  74  77
ENDBRANCH  70  71
ENDBRANCH  67  69
ENDBRANCH  66  67
ENDBRANCH  65  66
ENDBRANCH  55  65
ENDBRANCH  52  53
ENDBRANCH  45  52
ENDBRANCH   1  44
TORSDOF 26
ENDMDL
MODEL 2
REMARK VINA RESULT:      -7.8      1.564      2.179
REMARK  Name = 
REMARK  27 active torsions:
REMARK  status: ('A' for Active; 'I' for Inactive)
REMARK    1  A    between atoms: C_1  and  C_2
REMARK    2  A    between atoms: C_4  and  O_80
REMARK    3  A    between atoms: C_6  and  O_79
REMARK    4  A    between atoms: C_8  and  O_51
REMARK    5  A    between atoms: C_10  and  O_13
REMARK    6  A    between atoms: O_13  and  C_14
REMARK    7  A    between atoms: C_15  and  C_43
REMARK    8  A    between atoms: C_19  and  O_26
REMARK    9  A    between atoms: C_21  and  O_25
REMARK   10  A    between atoms: O_26  and  C_27
REMARK   11  A    between atoms: C_29  and  O_42
REMARK   12  A    between atoms: C_31  and  O_41
REMARK   13  A    between atoms: C_33  and  O_40
REMARK   14  A    between atoms: C_35  and  C_38
REMARK   15  A    between atoms: C_38  and  O_39
REMARK   16  A    between atoms: C_45  and  O_50
REMARK   17  A    between atoms: C_46  and  O_49
REMARK   18  A    between atoms: O_51  and  C_52
REMARK   19  A    between atoms: C_54  and  O_78
REMARK   20  A    between atoms: C_56  and  O_77
REMARK   21  A    between atoms: C_58  and  O_76
REMARK   22  A    between atoms: C_60  and  C_63
REMARK   23  A    between atoms: C_63  and  O_64
REMARK   24  A    between atoms: O_64  and  C_65
REMARK   25  A    between atoms: C_65  and  C_67
REMARK   26  A    between atoms: C_68  and  C_69
REMARK   27  A    between atoms: C_72  and  O_75
REMARK                            x       y       z     vdW  Elec       q    Type
REMARK                         _______ _______ _______ _____ _____    ______ ____
ROOT
ATOM      1  O   UNL     1       4.422  -3.269  26.387  0.00  0.00    -0.453 OA
ENDROOT
BRANCH   1   2
ATOM      2  C   UNL     1       4.995  -2.006  26.367  0.00  0.00    +0.214 A 
ATOM      3  C   UNL     1       4.163  -0.771  26.545  0.00  0.00    +0.238 A 
ATOM      4  O   UNL     1       2.992  -0.831  26.899  0.00  0.00    -0.283 OA
ATOM      5  C   UNL     1       4.808   0.522  26.286  0.00  0.00    +0.109 A 
ATOM      6  C   UNL     1       6.187   0.531  26.109  0.00  0.00    +0.147 A 
ATOM      7  C   UNL     1       6.854   1.740  25.907  0.00  0.00    +0.093 A 
ATOM      8  C   UNL     1       6.139   2.942  25.873  0.00  0.00    +0.131 A 
ATOM      9  C   UNL     1       4.758   2.936  26.052  0.00  0.00    +0.092 A 
ATOM     10  O   UNL     1       6.957  -0.605  26.138  0.00  0.00    -0.451 OA
ATOM     11  C   UNL     1       4.092   1.728  26.242  0.00  0.00    +0.135 A 
ATOM     12  C   UNL     1       6.325  -1.837  26.220  0.00  0.00    +0.181 A 
BRANCH  12  13
ATOM     13  C   UNL     1       7.283  -2.964  26.125  0.00  0.00    +0.025 A 
ATOM     14  C   UNL     1       7.009  -4.183  26.766  0.00  0.00    +0.015 A 
ATOM     15  C   UNL     1       7.851  -5.295  26.610  0.00  0.00    +0.050 A 
ATOM     16  C   UNL     1       8.969  -5.192  25.801  0.00  0.00    +0.158 A 
ATOM     17  C   UNL     1       9.268  -3.989  25.167  0.00  0.00    +0.159 A 
ATOM     18  C   UNL     1       8.441  -2.870  25.328  0.00  0.00    +0.060 A 
BRANCH  17  19
ATOM     19  O   UNL     1      10.389  -3.960  24.382  0.00  0.00    -0.503 OA
ATOM     20  H   UNL     1      10.973  -4.690  24.647  0.00  0.00    +0.292 HD
ENDBRANCH  17  19
BRANCH  16  21
ATOM     21  O   UNL     1       9.767  -6.285  25.614  0.00  0.00    -0.503 OA
ATOM     22  H   UNL     1       9.729  -6.460  24.651  0.00  0.00    +0.292 HD
ENDBRANCH  16  21
ENDBRANCH  12  13
BRANCH  11  23
ATOM     23  O   UNL     1       2.733   1.743  26.369  0.00  0.00    -0.506 OA
ATOM     24  H   UNL     1       2.318   1.114  25.757  0.00  0.00    +0.292 HD
ENDBRANCH  11  23
BRANCH   8  25
ATOM     25  O   UNL     1       6.703   4.184  25.709  0.00  0.00    -0.461 OA
BRANCH  25  26
ATOM     26  C   UNL     1       7.722   4.236  24.703  0.00  0.00    +0.339 C 
ATOM     27  O   UNL     1       8.940   4.783  25.214  0.00  0.00    -0.331 OA
ATOM     28  C   UNL     1       9.046   6.209  25.297  0.00  0.00    +0.179 C 
ATOM     29  C   UNL     1       8.702   6.877  23.957  0.00  0.00    +0.177 C 
ATOM     30  C   UNL     1       7.336   6.446  23.406  0.00  0.00    +0.180 C 
ATOM     31  C   UNL     1       7.205   4.917  23.412  0.00  0.00    +0.214 C 
BRANCH  31  32
ATOM     32  O   UNL     1       7.970   4.406  22.296  0.00  0.00    -0.383 OA
ATOM     33  H   UNL     1       8.882   4.265  22.631  0.00  0.00    +0.210 HD
ENDBRANCH  31  32
BRANCH  30  34
ATOM     34  O   UNL     1       6.240   7.106  24.028  0.00  0.00    -0.386 OA
ATOM     35  H   UNL     1       6.044   7.941  23.550  0.00  0.00    +0.210 HD
ENDBRANCH  30  34
BRANCH  29  36
ATOM     36  O   UNL     1       9.717   6.461  23.013  0.00  0.00    -0.386 OA
ATOM     37  H   UNL     1       9.292   5.863  22.370  0.00  0.00    +0.210 HD
ENDBRANCH  29  36
BRANCH  28  38
ATOM     38  C   UNL     1       8.337   6.803  26.526  0.00  0.00    +0.190 C 
BRANCH  38  39
ATOM     39  O   UNL     1       8.282   5.910  27.632  0.00  0.00    -0.392 OA
ATOM     40  H   UNL     1       7.875   5.083  27.299  0.00  0.00    +0.210 HD
ENDBRANCH  38  39
ENDBRANCH  28  38
ENDBRANCH  25  26
ENDBRANCH   8  25
ENDBRANCH   1   2
BRANCH   1  44
ATOM     41  C   UNL     1       2.646  -2.852  30.322  0.00  0.00    +0.041 C 
ATOM     42  C   UNL     1       3.803  -3.799  29.963  0.00  0.00    +0.150 C 
ATOM     43  O   UNL     1       4.451  -3.469  28.720  0.00  0.00    -0.334 OA
ATOM     44  C   UNL     1       3.631  -3.596  27.546  0.00  0.00    +0.340 C 
ATOM     45  C   UNL     1       3.097  -5.029  27.365  0.00  0.00    +0.221 C 
ATOM     46  C   UNL     1       2.547  -5.549  28.724  0.00  0.00    +0.180 C 
ATOM     47  C   UNL     1       3.423  -5.281  29.931  0.00  0.00    +0.174 C 
BRANCH  47  48
ATOM     48  O   UNL     1       4.577  -6.126  29.889  0.00  0.00    -0.387 OA
ATOM     49  H   UNL     1       4.569  -6.658  30.715  0.00  0.00    +0.210 HD
ENDBRANCH  47  48
BRANCH  46  50
ATOM     50  O   UNL     1       1.286  -5.020  29.137  0.00  0.00    -0.386 OA
ATOM     51  H   UNL     1       0.970  -4.344  28.521  0.00  0.00    +0.210 HD
ENDBRANCH  46  50
BRANCH  45  52
ATOM     52  O   UNL     1       2.232  -5.255  26.190  0.00  0.00    -0.337 OA
BRANCH  52  53
ATOM     53  C   UNL     1       2.042  -6.600  25.750  0.00  0.00    +0.282 C 
ATOM     54  O   UNL     1       3.123  -7.022  24.930  0.00  0.00    -0.339 OA
ATOM     55  C   UNL     1       3.228  -6.427  23.615  0.00  0.00    +0.190 C 
ATOM     56  C   UNL     1       1.972  -6.715  22.804  0.00  0.00    +0.178 C 
ATOM     57  C   UNL     1       0.708  -6.301  23.578  0.00  0.00    +0.179 C 
ATOM     58  C   UNL     1       0.714  -6.886  25.003  0.00  0.00    +0.201 C 
BRANCH  58  59
ATOM     59  O   UNL     1       0.545  -8.316  24.924  0.00  0.00    -0.384 OA
ATOM     60  H   UNL     1       0.046  -8.487  24.090  0.00  0.00    +0.210 HD
ENDBRANCH  58  59
BRANCH  57  61
ATOM     61  O   UNL     1       0.541  -4.885  23.579  0.00  0.00    -0.386 OA
ATOM     62  H   UNL     1      -0.061  -4.630  24.304  0.00  0.00    +0.210 HD
ENDBRANCH  57  61
BRANCH  56  63
ATOM     63  O   UNL     1       1.940  -8.139  22.586  0.00  0.00    -0.386 OA
ATOM     64  H   UNL     1       2.381  -8.312  21.742  0.00  0.00    +0.210 HD
ENDBRANCH  56  63
BRANCH  55  65
ATOM     65  C   UNL     1       3.616  -4.951  23.594  0.00  0.00    +0.266 C 
BRANCH  65  66
ATOM     66  O   UNL     1       5.020  -4.728  23.642  0.00  0.00    -0.459 OA
BRANCH  66  67
ATOM     67  C   UNL     1       5.523  -4.397  22.422  0.00  0.00    +0.332 C 
ATOM     68  O   UNL     1       5.558  -5.088  21.418  0.00  0.00    -0.246 OA
BRANCH  67  69
ATOM     69  C   UNL     1       6.043  -3.040  22.520  0.00  0.00    +0.092 C 
ATOM     70  C   UNL     1       7.314  -2.826  22.161  0.00  0.00    +0.015 C 
BRANCH  70  71
ATOM     71  C   UNL     1       7.904  -1.497  22.189  0.00  0.00    -0.025 A 
ATOM     72  C   UNL     1       7.178  -0.385  22.629  0.00  0.00    +0.011 A 
ATOM     73  C   UNL     1       7.774   0.869  22.657  0.00  0.00    +0.046 A 
ATOM     74  C   UNL     1       9.084   1.019  22.221  0.00  0.00    +0.117 A 
ATOM     75  C   UNL     1       9.807  -0.064  21.735  0.00  0.00    +0.046 A 
ATOM     76  C   UNL     1       9.211  -1.322  21.711  0.00  0.00    +0.011 A 
BRANCH  74  77
ATOM     77  O   UNL     1       9.633   2.263  22.293  0.00  0.00    -0.507 OA
ATOM     78  H   UNL     1      10.485   2.191  22.754  0.00  0.00    +0.292 HD
ENDBRANCH  74  77
ENDBRANCH  70  71
ENDBRANCH  67  69
ENDBRANCH  66  67
ENDBRANCH  65  66
ENDBRANCH  55  65
ENDBRANCH  52  53
ENDBRANCH  45  52
ENDBRANCH   1  44
TORSDOF 26
ENDMDL
MODEL 3
REMARK VINA RESULT:      -7.1      2.040      9.685
REMARK  Name = 
REMARK  27 active torsions:
REMARK  status: ('A' for Active; 'I' for Inactive)
REMARK    1  A    between atoms: C_1  and  C_2
REMARK    2  A    between atoms: C_4  and  O_80
REMARK    3  A    between atoms: C_6  and  O_79
REMARK    4  A    between atoms: C_8  and  O_51
REMARK    5  A    between atoms: C_10  and  O_13
REMARK    6  A    between atoms: O_13  and  C_14
REMARK    7  A    between atoms: C_15  and  C_43
REMARK    8  A    between atoms: C_19  and  O_26
REMARK    9  A    between atoms: C_21  and  O_25
REMARK   10  A    between atoms: O_26  and  C_27
REMARK   11  A    between atoms: C_29  and  O_42
REMARK   12  A    between atoms: C_31  and  O_41
REMARK   13  A    between atoms: C_33  and  O_40
REMARK   14  A    between atoms: C_35  and  C_38
REMARK   15  A    between atoms: C_38  and  O_39
REMARK   16  A    between atoms: C_45  and  O_50
REMARK   17  A    between atoms: C_46  and  O_49
REMARK   18  A    between atoms: O_51  and  C_52
REMARK   19  A    between atoms: C_54  and  O_78
REMARK   20  A    between atoms: C_56  and  O_77
REMARK   21  A    between atoms: C_58  and  O_76
REMARK   22  A    between atoms: C_60  and  C_63
REMARK   23  A    between atoms: C_63  and  O_64
REMARK   24  A    between atoms: O_64  and  C_65
REMARK   25  A    between atoms: C_65  and  C_67
REMARK   26  A    between atoms: C_68  and  C_69
REMARK   27  A    between atoms: C_72  and  O_75
REMARK                            x       y       z     vdW  Elec       q    Type
REMARK                         _______ _______ _______ _____ _____    ______ ____
ROOT
ATOM      1  O   UNL     1       6.997   2.100  26.284  0.00  0.00    -0.453 OA
ENDROOT
BRANCH   1   2
ATOM      2  C   UNL     1       6.229   0.945  26.314  0.00  0.00    +0.214 A 
ATOM      3  C   UNL     1       6.823  -0.374  26.706  0.00  0.00    +0.238 A 
ATOM      4  O   UNL     1       7.945  -0.455  27.192  0.00  0.00    -0.283 OA
ATOM      5  C   UNL     1       6.005  -1.574  26.493  0.00  0.00    +0.109 A 
ATOM      6  C   UNL     1       4.670  -1.393  26.152  0.00  0.00    +0.147 A 
ATOM      7  C   UNL     1       3.838  -2.500  25.986  0.00  0.00    +0.093 A 
ATOM      8  C   UNL     1       4.345  -3.794  26.151  0.00  0.00    +0.131 A 
ATOM      9  C   UNL     1       5.682  -3.978  26.495  0.00  0.00    +0.092 A 
ATOM     10  O   UNL     1       4.098  -0.156  25.982  0.00  0.00    -0.451 OA
ATOM     11  C   UNL     1       6.514  -2.873  26.649  0.00  0.00    +0.135 A 
ATOM     12  C   UNL     1       4.912   0.967  26.023  0.00  0.00    +0.181 A 
BRANCH  12  13
ATOM     13  C   UNL     1       4.168   2.209  25.708  0.00  0.00    +0.025 A 
ATOM     14  C   UNL     1       3.432   2.867  26.706  0.00  0.00    +0.015 A 
ATOM     15  C   UNL     1       2.801   4.096  26.457  0.00  0.00    +0.050 A 
ATOM     16  C   UNL     1       2.913   4.676  25.205  0.00  0.00    +0.158 A 
ATOM     17  C   UNL     1       3.627   4.034  24.196  0.00  0.00    +0.159 A 
ATOM     18  C   UNL     1       4.248   2.801  24.431  0.00  0.00    +0.060 A 
BRANCH  17  19
ATOM     19  O   UNL     1       3.697   4.666  22.983  0.00  0.00    -0.503 OA
ATOM     20  H   UNL     1       4.566   4.485  22.589  0.00  0.00    +0.292 HD
ENDBRANCH  17  19
BRANCH  16  21
ATOM     21  O   UNL     1       2.336   5.891  24.973  0.00  0.00    -0.503 OA
ATOM     22  H   UNL     1       3.087   6.501  24.827  0.00  0.00    +0.292 HD
ENDBRANCH  16  21
ENDBRANCH  12  13
BRANCH  11  23
ATOM     23  O   UNL     1       7.831  -3.081  26.942  0.00  0.00    -0.506 OA
ATOM     24  H   UNL     1       7.951  -3.298  27.880  0.00  0.00    +0.292 HD
ENDBRANCH  11  23
BRANCH   8  25
ATOM     25  O   UNL     1       3.605  -4.945  26.038  0.00  0.00    -0.461 OA
BRANCH  25  26
ATOM     26  C   UNL     1       3.699  -5.579  24.756  0.00  0.00    +0.339 C 
ATOM     27  O   UNL     1       2.565  -5.285  23.937  0.00  0.00    -0.331 OA
ATOM     28  C   UNL     1       1.374  -6.051  24.150  0.00  0.00    +0.179 C 
ATOM     29  C   UNL     1       1.663  -7.560  24.112  0.00  0.00    +0.177 C 
ATOM     30  C   UNL     1       2.781  -7.981  25.074  0.00  0.00    +0.180 C 
ATOM     31  C   UNL     1       4.017  -7.088  24.896  0.00  0.00    +0.214 C 
BRANCH  31  32
ATOM     32  O   UNL     1       4.700  -7.517  23.695  0.00  0.00    -0.383 OA
ATOM     33  H   UNL     1       4.001  -7.676  23.024  0.00  0.00    +0.210 HD
ENDBRANCH  31  32
BRANCH  30  34
ATOM     34  O   UNL     1       2.355  -8.087  26.428  0.00  0.00    -0.386 OA
ATOM     35  H   UNL     1       2.938  -8.714  26.908  0.00  0.00    +0.210 HD
ENDBRANCH  30  34
BRANCH  29  36
ATOM     36  O   UNL     1       2.092  -7.866  22.765  0.00  0.00    -0.386 OA
ATOM     37  H   UNL     1       1.451  -8.498  22.389  0.00  0.00    +0.210 HD
ENDBRANCH  29  36
BRANCH  28  38
ATOM     38  C   UNL     1       0.549  -5.573  25.356  0.00  0.00    +0.190 C 
BRANCH  38  39
ATOM     39  O   UNL     1       0.602  -4.165  25.555  0.00  0.00    -0.392 OA
ATOM     40  H   UNL     1       1.291  -3.827  24.945  0.00  0.00    +0.210 HD
ENDBRANCH  38  39
ENDBRANCH  28  38
ENDBRANCH  25  26
ENDBRANCH   8  25
ENDBRANCH   1   2
BRANCH   1  44
ATOM     41  C   UNL     1       7.930   2.645  30.485  0.00  0.00    +0.041 C 
ATOM     42  C   UNL     1       6.518   2.661  29.877  0.00  0.00    +0.150 C 
ATOM     43  O   UNL     1       6.452   2.080  28.562  0.00  0.00    -0.334 OA
ATOM     44  C   UNL     1       7.187   2.777  27.542  0.00  0.00    +0.340 C 
ATOM     45  C   UNL     1       6.708   4.230  27.374  0.00  0.00    +0.221 C 
ATOM     46  C   UNL     1       6.560   4.889  28.775  0.00  0.00    +0.180 C 
ATOM     47  C   UNL     1       5.866   4.045  29.826  0.00  0.00    +0.174 C 
BRANCH  47  48
ATOM     48  O   UNL     1       4.467   3.965  29.536  0.00  0.00    -0.387 OA
ATOM     49  H   UNL     1       4.294   4.589  28.798  0.00  0.00    +0.210 HD
ENDBRANCH  47  48
BRANCH  46  50
ATOM     50  O   UNL     1       7.775   5.256  29.431  0.00  0.00    -0.386 OA
ATOM     51  H   UNL     1       8.243   4.478  29.766  0.00  0.00    +0.210 HD
ENDBRANCH  46  50
BRANCH  45  52
ATOM     52  O   UNL     1       7.414   5.032  26.356  0.00  0.00    -0.337 OA
BRANCH  52  53
ATOM     53  C   UNL     1       6.701   5.383  25.169  0.00  0.00    +0.282 C 
ATOM     54  O   UNL     1       6.984   4.470  24.118  0.00  0.00    -0.339 OA
ATOM     55  C   UNL     1       8.310   4.520  23.539  0.00  0.00    +0.190 C 
ATOM     56  C   UNL     1       8.580   5.900  22.957  0.00  0.00    +0.178 C 
ATOM     57  C   UNL     1       8.313   7.000  23.998  0.00  0.00    +0.179 C 
ATOM     58  C   UNL     1       6.926   6.825  24.647  0.00  0.00    +0.201 C 
BRANCH  58  59
ATOM     59  O   UNL     1       5.909   7.108  23.663  0.00  0.00    -0.384 OA
ATOM     60  H   UNL     1       5.056   6.809  24.057  0.00  0.00    +0.210 HD
ENDBRANCH  58  59
BRANCH  57  61
ATOM     61  O   UNL     1       9.356   7.061  24.968  0.00  0.00    -0.386 OA
ATOM     62  H   UNL     1      10.220   7.006  24.517  0.00  0.00    +0.210 HD
ENDBRANCH  57  61
BRANCH  56  63
ATOM     63  O   UNL     1       7.667   6.067  21.855  0.00  0.00    -0.386 OA
ATOM     64  H   UNL     1       7.393   6.996  21.846  0.00  0.00    +0.210 HD
ENDBRANCH  56  63
BRANCH  55  65
ATOM     65  C   UNL     1       9.438   4.032  24.445  0.00  0.00    +0.266 C 
BRANCH  65  66
ATOM     66  O   UNL     1       9.473   2.619  24.605  0.00  0.00    -0.459 OA
BRANCH  66  67
ATOM     67  C   UNL     1      10.024   2.000  23.526  0.00  0.00    +0.332 C 
ATOM     68  O   UNL     1      10.704   2.500  22.647  0.00  0.00    -0.246 OA
BRANCH  67  69
ATOM     69  C   UNL     1       9.642   0.595  23.589  0.00  0.00    +0.092 C 
ATOM     70  C   UNL     1       8.403   0.263  23.207  0.00  0.00    +0.015 C 
BRANCH  70  71
ATOM     71  C   UNL     1       7.949  -1.119  23.199  0.00  0.00    -0.025 A 
ATOM     72  C   UNL     1       8.836  -2.180  23.415  0.00  0.00    +0.011 A 
ATOM     73  C   UNL     1       8.369  -3.487  23.415  0.00  0.00    +0.046 A 
ATOM     74  C   UNL     1       7.025  -3.739  23.175  0.00  0.00    +0.117 A 
ATOM     75  C   UNL     1       6.136  -2.704  22.911  0.00  0.00    +0.046 A 
ATOM     76  C   UNL     1       6.603  -1.392  22.915  0.00  0.00    +0.011 A 
BRANCH  74  77
ATOM     77  O   UNL     1       6.611  -5.036  23.212  0.00  0.00    -0.507 OA
ATOM     78  H   UNL     1       7.127  -5.537  22.559  0.00  0.00    +0.292 HD
ENDBRANCH  74  77
ENDBRANCH  70  71
ENDBRANCH  67  69
ENDBRANCH  66  67
ENDBRANCH  65  66
ENDBRANCH  55  65
ENDBRANCH  52  53
ENDBRANCH  45  52
ENDBRANCH   1  44
TORSDOF 26
ENDMDL
MODEL 4
REMARK VINA RESULT:      -6.4      2.046      9.594
REMARK  Name = 
REMARK  27 active torsions:
REMARK  status: ('A' for Active; 'I' for Inactive)
REMARK    1  A    between atoms: C_1  and  C_2
REMARK    2  A    between atoms: C_4  and  O_80
REMARK    3  A    between atoms: C_6  and  O_79
REMARK    4  A    between atoms: C_8  and  O_51
REMARK    5  A    between atoms: C_10  and  O_13
REMARK    6  A    between atoms: O_13  and  C_14
REMARK    7  A    between atoms: C_15  and  C_43
REMARK    8  A    between atoms: C_19  and  O_26
REMARK    9  A    between atoms: C_21  and  O_25
REMARK   10  A    between atoms: O_26  and  C_27
REMARK   11  A    between atoms: C_29  and  O_42
REMARK   12  A    between atoms: C_31  and  O_41
REMARK   13  A    between atoms: C_33  and  O_40
REMARK   14  A    between atoms: C_35  and  C_38
REMARK   15  A    between atoms: C_38  and  O_39
REMARK   16  A    between atoms: C_45  and  O_50
REMARK   17  A    between atoms: C_46  and  O_49
REMARK   18  A    between atoms: O_51  and  C_52
REMARK   19  A    between atoms: C_54  and  O_78
REMARK   20  A    between atoms: C_56  and  O_77
REMARK   21  A    between atoms: C_58  and  O_76
REMARK   22  A    between atoms: C_60  and  C_63
REMARK   23  A    between atoms: C_63  and  O_64
REMARK   24  A    between atoms: O_64  and  C_65
REMARK   25  A    between atoms: C_65  and  C_67
REMARK   26  A    between atoms: C_68  and  C_69
REMARK   27  A    between atoms: C_72  and  O_75
REMARK                            x       y       z     vdW  Elec       q    Type
REMARK                         _______ _______ _______ _____ _____    ______ ____
ROOT
ATOM      1  O   UNL     1       7.573   1.354  26.196  0.00  0.00    -0.453 OA
ENDROOT
BRANCH   1   2
ATOM      2  C   UNL     1       6.909   0.161  25.951  0.00  0.00    +0.214 A 
ATOM      3  C   UNL     1       7.560  -1.162  26.228  0.00  0.00    +0.238 A 
ATOM      4  O   UNL     1       8.612  -1.243  26.849  0.00  0.00    -0.283 OA
ATOM      5  C   UNL     1       6.882  -2.366  25.732  0.00  0.00    +0.109 A 
ATOM      6  C   UNL     1       5.591  -2.222  25.238  0.00  0.00    +0.147 A 
ATOM      7  C   UNL     1       4.885  -3.342  24.799  0.00  0.00    +0.093 A 
ATOM      8  C   UNL     1       5.476  -4.610  24.845  0.00  0.00    +0.131 A 
ATOM      9  C   UNL     1       6.769  -4.757  25.342  0.00  0.00    +0.092 A 
ATOM     10  O   UNL     1       4.942  -1.014  25.170  0.00  0.00    -0.451 OA
ATOM     11  C   UNL     1       7.476  -3.637  25.769  0.00  0.00    +0.135 A 
ATOM     12  C   UNL     1       5.644   0.140  25.486  0.00  0.00    +0.181 A 
BRANCH  12  13
ATOM     13  C   UNL     1       4.842   1.365  25.252  0.00  0.00    +0.025 A 
ATOM     14  C   UNL     1       4.874   2.005  24.004  0.00  0.00    +0.015 A 
ATOM     15  C   UNL     1       4.050   3.107  23.727  0.00  0.00    +0.050 A 
ATOM     16  C   UNL     1       3.181   3.567  24.702  0.00  0.00    +0.158 A 
ATOM     17  C   UNL     1       3.143   2.955  25.952  0.00  0.00    +0.159 A 
ATOM     18  C   UNL     1       3.972   1.864  26.242  0.00  0.00    +0.060 A 
BRANCH  17  19
ATOM     19  O   UNL     1       2.260   3.463  26.868  0.00  0.00    -0.503 OA
ATOM     20  H   UNL     1       1.383   3.083  26.695  0.00  0.00    +0.292 HD
ENDBRANCH  17  19
BRANCH  16  21
ATOM     21  O   UNL     1       2.348   4.612  24.422  0.00  0.00    -0.503 OA
ATOM     22  H   UNL     1       1.926   4.374  23.572  0.00  0.00    +0.292 HD
ENDBRANCH  16  21
ENDBRANCH  12  13
BRANCH  11  23
ATOM     23  O   UNL     1       8.758  -3.800  26.209  0.00  0.00    -0.506 OA
ATOM     24  H   UNL     1       9.091  -2.988  26.623  0.00  0.00    +0.292 HD
ENDBRANCH  11  23
BRANCH   8  25
ATOM     25  O   UNL     1       4.858  -5.776  24.465  0.00  0.00    -0.461 OA
BRANCH  25  26
ATOM     26  C   UNL     1       4.519  -6.642  25.555  0.00  0.00    +0.339 C 
ATOM     27  O   UNL     1       3.925  -7.859  25.098  0.00  0.00    -0.331 OA
ATOM     28  C   UNL     1       2.531  -7.838  24.772  0.00  0.00    +0.179 C 
ATOM     29  C   UNL     1       1.694  -7.255  25.921  0.00  0.00    +0.177 C 
ATOM     30  C   UNL     1       2.184  -5.875  26.380  0.00  0.00    +0.180 C 
ATOM     31  C   UNL     1       3.698  -5.893  26.634  0.00  0.00    +0.214 C 
BRANCH  31  32
ATOM     32  O   UNL     1       3.922  -6.548  27.904  0.00  0.00    -0.383 OA
ATOM     33  H   UNL     1       4.342  -7.411  27.698  0.00  0.00    +0.210 HD
ENDBRANCH  31  32
BRANCH  30  34
ATOM     34  O   UNL     1       1.771  -4.814  25.527  0.00  0.00    -0.386 OA
ATOM     35  H   UNL     1       1.919  -3.954  25.976  0.00  0.00    +0.210 HD
ENDBRANCH  30  34
BRANCH  29  36
ATOM     36  O   UNL     1       1.824  -8.169  27.035  0.00  0.00    -0.386 OA
ATOM     37  H   UNL     1       0.926  -8.446  27.294  0.00  0.00    +0.210 HD
ENDBRANCH  29  36
BRANCH  28  38
ATOM     38  C   UNL     1       2.238  -7.246  23.383  0.00  0.00    +0.190 C 
BRANCH  38  39
ATOM     39  O   UNL     1       1.017  -7.708  22.817  0.00  0.00    -0.392 OA
ATOM     40  H   UNL     1       0.536  -8.167  23.538  0.00  0.00    +0.210 HD
ENDBRANCH  38  39
ENDBRANCH  28  38
ENDBRANCH  25  26
ENDBRANCH   8  25
ENDBRANCH   1   2
BRANCH   1  44
ATOM     41  C   UNL     1       8.222   1.324  30.485  0.00  0.00    +0.041 C 
ATOM     42  C   UNL     1       6.861   1.161  29.789  0.00  0.00    +0.150 C 
ATOM     43  O   UNL     1       6.965   0.820  28.394  0.00  0.00    -0.334 OA
ATOM     44  C   UNL     1       7.571   1.822  27.559  0.00  0.00    +0.340 C 
ATOM     45  C   UNL     1       6.801   3.154  27.600  0.00  0.00    +0.221 C 
ATOM     46  C   UNL     1       6.468   3.510  29.078  0.00  0.00    +0.180 C 
ATOM     47  C   UNL     1       5.933   2.370  29.922  0.00  0.00    +0.174 C 
BRANCH  47  48
ATOM     48  O   UNL     1       4.593   2.061  29.524  0.00  0.00    -0.387 OA
ATOM     49  H   UNL     1       3.998   2.473  30.188  0.00  0.00    +0.210 HD
ENDBRANCH  47  48
BRANCH  46  50
ATOM     50  O   UNL     1       7.554   3.994  29.870  0.00  0.00    -0.386 OA
ATOM     51  H   UNL     1       7.291   4.107  30.795  0.00  0.00    +0.210 HD
ENDBRANCH  46  50
BRANCH  45  52
ATOM     52  O   UNL     1       7.357   4.250  26.782  0.00  0.00    -0.337 OA
BRANCH  52  53
ATOM     53  C   UNL     1       6.455   4.996  25.965  0.00  0.00    +0.282 C 
ATOM     54  O   UNL     1       6.602   4.645  24.596  0.00  0.00    -0.339 OA
ATOM     55  C   UNL     1       7.819   5.066  23.933  0.00  0.00    +0.190 C 
ATOM     56  C   UNL     1       7.945   6.582  23.976  0.00  0.00    +0.178 C 
ATOM     57  C   UNL     1       7.805   7.108  25.415  0.00  0.00    +0.179 C 
ATOM     58  C   UNL     1       6.544   6.538  26.093  0.00  0.00    +0.201 C 
BRANCH  58  59
ATOM     59  O   UNL     1       5.376   7.107  25.465  0.00  0.00    -0.384 OA
ATOM     60  H   UNL     1       5.021   6.411  24.864  0.00  0.00    +0.210 HD
ENDBRANCH  58  59
BRANCH  57  61
ATOM     61  O   UNL     1       8.984   6.857  26.176  0.00  0.00    -0.386 OA
ATOM     62  H   UNL     1       8.743   6.729  27.113  0.00  0.00    +0.210 HD
ENDBRANCH  57  61
BRANCH  56  63
ATOM     63  O   UNL     1       6.865   7.108  23.179  0.00  0.00    -0.386 OA
ATOM     64  H   UNL     1       6.161   7.375  23.788  0.00  0.00    +0.210 HD
ENDBRANCH  56  63
BRANCH  55  65
ATOM     65  C   UNL     1       9.091   4.356  24.389  0.00  0.00    +0.266 C 
BRANCH  65  66
ATOM     66  O   UNL     1      10.234   4.667  23.600  0.00  0.00    -0.459 OA
BRANCH  66  67
ATOM     67  C   UNL     1      11.029   3.580  23.410  0.00  0.00    +0.332 C 
ATOM     68  O   UNL     1      12.243   3.521  23.496  0.00  0.00    -0.246 OA
BRANCH  67  69
ATOM     69  C   UNL     1      10.161   2.464  23.060  0.00  0.00    +0.092 C 
ATOM     70  C   UNL     1      10.590   1.225  23.330  0.00  0.00    +0.015 C 
BRANCH  70  71
ATOM     71  C   UNL     1       9.773   0.055  23.052  0.00  0.00    -0.025 A 
ATOM     72  C   UNL     1      10.287  -1.241  23.178  0.00  0.00    +0.011 A 
ATOM     73  C   UNL     1       9.477  -2.339  22.918  0.00  0.00    +0.046 A 
ATOM     74  C   UNL     1       8.165  -2.145  22.506  0.00  0.00    +0.117 A 
ATOM     75  C   UNL     1       7.650  -0.867  22.328  0.00  0.00    +0.046 A 
ATOM     76  C   UNL     1       8.460   0.234  22.593  0.00  0.00    +0.011 A 
BRANCH  74  77
ATOM     77  O   UNL     1       7.404  -3.254  22.290  0.00  0.00    -0.507 OA
ATOM     78  H   UNL     1       7.783  -3.738  21.539  0.00  0.00    +0.292 HD
ENDBRANCH  74  77
ENDBRANCH  70  71
ENDBRANCH  67  69
ENDBRANCH  66  67
ENDBRANCH  65  66
ENDBRANCH  55  65
ENDBRANCH  52  53
ENDBRANCH  45  52
ENDBRANCH   1  44
TORSDOF 26
ENDMDL
MODEL 5
REMARK VINA RESULT:      -6.0      1.880      4.062
REMARK  Name = 
REMARK  27 active torsions:
REMARK  status: ('A' for Active; 'I' for Inactive)
REMARK    1  A    between atoms: C_1  and  C_2
REMARK    2  A    between atoms: C_4  and  O_80
REMARK    3  A    between atoms: C_6  and  O_79
REMARK    4  A    between atoms: C_8  and  O_51
REMARK    5  A    between atoms: C_10  and  O_13
REMARK    6  A    between atoms: O_13  and  C_14
REMARK    7  A    between atoms: C_15  and  C_43
REMARK    8  A    between atoms: C_19  and  O_26
REMARK    9  A    between atoms: C_21  and  O_25
REMARK   10  A    between atoms: O_26  and  C_27
REMARK   11  A    between atoms: C_29  and  O_42
REMARK   12  A    between atoms: C_31  and  O_41
REMARK   13  A    between atoms: C_33  and  O_40
REMARK   14  A    between atoms: C_35  and  C_38
REMARK   15  A    between atoms: C_38  and  O_39
REMARK   16  A    between atoms: C_45  and  O_50
REMARK   17  A    between atoms: C_46  and  O_49
REMARK   18  A    between atoms: O_51  and  C_52
REMARK   19  A    between atoms: C_54  and  O_78
REMARK   20  A    between atoms: C_56  and  O_77
REMARK   21  A    between atoms: C_58  and  O_76
REMARK   22  A    between atoms: C_60  and  C_63
REMARK   23  A    between atoms: C_63  and  O_64
REMARK   24  A    between atoms: O_64  and  C_65
REMARK   25  A    between atoms: C_65  and  C_67
REMARK   26  A    between atoms: C_68  and  C_69
REMARK   27  A    between atoms: C_72  and  O_75
REMARK                            x       y       z     vdW  Elec       q    Type
REMARK                         _______ _______ _______ _____ _____    ______ ____
ROOT
ATOM      1  O   UNL     1       6.319  -4.454  26.171  0.00  0.00    -0.453 OA
ENDROOT
BRANCH   1   2
ATOM      2  C   UNL     1       6.462  -3.080  26.040  0.00  0.00    +0.214 A 
ATOM      3  C   UNL     1       7.731  -2.477  25.516  0.00  0.00    +0.238 A 
ATOM      4  O   UNL     1       8.609  -3.165  25.012  0.00  0.00    -0.283 OA
ATOM      5  C   UNL     1       7.882  -1.021  25.624  0.00  0.00    +0.109 A 
ATOM      6  C   UNL     1       6.765  -0.282  25.996  0.00  0.00    +0.147 A 
ATOM      7  C   UNL     1       6.842   1.109  26.066  0.00  0.00    +0.093 A 
ATOM      8  C   UNL     1       8.044   1.763  25.772  0.00  0.00    +0.131 A 
ATOM      9  C   UNL     1       9.164   1.026  25.396  0.00  0.00    +0.092 A 
ATOM     10  O   UNL     1       5.551  -0.851  26.291  0.00  0.00    -0.451 OA
ATOM     11  C   UNL     1       9.088  -0.363  25.338  0.00  0.00    +0.135 A 
ATOM     12  C   UNL     1       5.458  -2.234  26.347  0.00  0.00    +0.181 A 
BRANCH  12  13
ATOM     13  C   UNL     1       4.117  -2.688  26.788  0.00  0.00    +0.025 A 
ATOM     14  C   UNL     1       3.134  -3.015  25.842  0.00  0.00    +0.015 A 
ATOM     15  C   UNL     1       1.892  -3.540  26.233  0.00  0.00    +0.050 A 
ATOM     16  C   UNL     1       1.634  -3.748  27.577  0.00  0.00    +0.158 A 
ATOM     17  C   UNL     1       2.591  -3.417  28.533  0.00  0.00    +0.159 A 
ATOM     18  C   UNL     1       3.828  -2.880  28.154  0.00  0.00    +0.060 A 
BRANCH  17  19
ATOM     19  O   UNL     1       2.269  -3.650  29.844  0.00  0.00    -0.503 OA
ATOM     20  H   UNL     1       1.483  -4.220  29.873  0.00  0.00    +0.292 HD
ENDBRANCH  17  19
BRANCH  16  21
ATOM     21  O   UNL     1       0.443  -4.298  27.957  0.00  0.00    -0.503 OA
ATOM     22  H   UNL     1      -0.001  -4.536  27.118  0.00  0.00    +0.292 HD
ENDBRANCH  16  21
ENDBRANCH  12  13
BRANCH  11  23
ATOM     23  O   UNL     1      10.212  -1.067  25.012  0.00  0.00    -0.506 OA
ATOM     24  H   UNL     1       9.998  -1.992  24.811  0.00  0.00    +0.292 HD
ENDBRANCH  11  23
BRANCH   8  25
ATOM     25  O   UNL     1       8.216   3.126  25.784  0.00  0.00    -0.461 OA
BRANCH  25  26
ATOM     26  C   UNL     1       7.011   3.867  26.009  0.00  0.00    +0.339 C 
ATOM     27  O   UNL     1       6.506   4.433  24.798  0.00  0.00    -0.331 OA
ATOM     28  C   UNL     1       7.090   5.659  24.341  0.00  0.00    +0.179 C 
ATOM     29  C   UNL     1       7.096   6.725  25.448  0.00  0.00    +0.177 C 
ATOM     30  C   UNL     1       7.753   6.238  26.746  0.00  0.00    +0.180 C 
ATOM     31  C   UNL     1       7.179   4.878  27.169  0.00  0.00    +0.214 C 
BRANCH  31  32
ATOM     32  O   UNL     1       5.878   5.114  27.754  0.00  0.00    -0.383 OA
ATOM     33  H   UNL     1       5.368   5.628  27.091  0.00  0.00    +0.210 HD
ENDBRANCH  31  32
BRANCH  30  34
ATOM     34  O   UNL     1       9.175   6.259  26.705  0.00  0.00    -0.386 OA
ATOM     35  H   UNL     1       9.476   6.920  26.044  0.00  0.00    +0.210 HD
ENDBRANCH  30  34
BRANCH  29  36
ATOM     36  O   UNL     1       5.712   7.032  25.734  0.00  0.00    -0.386 OA
ATOM     37  H   UNL     1       5.348   6.291  26.253  0.00  0.00    +0.210 HD
ENDBRANCH  29  36
BRANCH  28  38
ATOM     38  C   UNL     1       8.432   5.460  23.616  0.00  0.00    +0.190 C 
BRANCH  38  39
ATOM     39  O   UNL     1       8.364   4.522  22.549  0.00  0.00    -0.392 OA
ATOM     40  H   UNL     1       9.096   4.747  21.937  0.00  0.00    +0.210 HD
ENDBRANCH  38  39
ENDBRANCH  28  38
ENDBRANCH  25  26
ENDBRANCH   8  25
ENDBRANCH   1   2
BRANCH   1  44
ATOM     41  C   UNL     1       5.229  -4.574  30.368  0.00  0.00    +0.041 C 
ATOM     42  C   UNL     1       6.246  -5.504  29.685  0.00  0.00    +0.150 C 
ATOM     43  O   UNL     1       6.707  -5.014  28.412  0.00  0.00    -0.334 OA
ATOM     44  C   UNL     1       5.703  -4.922  27.386  0.00  0.00    +0.340 C 
ATOM     45  C   UNL     1       5.050  -6.285  27.092  0.00  0.00    +0.221 C 
ATOM     46  C   UNL     1       4.690  -6.984  28.434  0.00  0.00    +0.180 C 
ATOM     47  C   UNL     1       5.764  -6.945  29.502  0.00  0.00    +0.174 C 
BRANCH  47  48
ATOM     48  O   UNL     1       6.836  -7.824  29.143  0.00  0.00    -0.387 OA
ATOM     49  H   UNL     1       6.426  -8.674  28.871  0.00  0.00    +0.210 HD
ENDBRANCH  47  48
BRANCH  46  50
ATOM     50  O   UNL     1       3.551  -6.471  29.126  0.00  0.00    -0.386 OA
ATOM     51  H   UNL     1       2.829  -7.116  29.142  0.00  0.00    +0.210 HD
ENDBRANCH  46  50
BRANCH  45  52
ATOM     52  O   UNL     1       3.994  -6.287  26.060  0.00  0.00    -0.337 OA
BRANCH  52  53
ATOM     53  C   UNL     1       3.723  -7.516  25.385  0.00  0.00    +0.282 C 
ATOM     54  O   UNL     1       4.137  -7.452  24.028  0.00  0.00    -0.339 OA
ATOM     55  C   UNL     1       3.370  -6.601  23.142  0.00  0.00    +0.190 C 
ATOM     56  C   UNL     1       1.919  -7.056  23.099  0.00  0.00    +0.178 C 
ATOM     57  C   UNL     1       1.333  -7.170  24.517  0.00  0.00    +0.179 C 
ATOM     58  C   UNL     1       2.252  -8.003  25.431  0.00  0.00    +0.201 C 
BRANCH  58  59
ATOM     59  O   UNL     1       2.223  -9.379  24.998  0.00  0.00    -0.384 OA
ATOM     60  H   UNL     1       2.527  -9.915  25.768  0.00  0.00    +0.210 HD
ENDBRANCH  58  59
BRANCH  57  61
ATOM     61  O   UNL     1       1.050  -5.885  25.066  0.00  0.00    -0.386 OA
ATOM     62  H   UNL     1       1.390  -5.194  24.466  0.00  0.00    +0.210 HD
ENDBRANCH  57  61
BRANCH  56  63
ATOM     63  O   UNL     1       1.915  -8.360  22.486  0.00  0.00    -0.386 OA
ATOM     64  H   UNL     1       1.385  -8.943  23.050  0.00  0.00    +0.210 HD
ENDBRANCH  56  63
BRANCH  55  65
ATOM     65  C   UNL     1       3.509  -5.102  23.394  0.00  0.00    +0.266 C 
BRANCH  65  66
ATOM     66  O   UNL     1       4.857  -4.668  23.539  0.00  0.00    -0.459 OA
BRANCH  66  67
ATOM     67  C   UNL     1       5.457  -4.465  22.335  0.00  0.00    +0.332 C 
ATOM     68  O   UNL     1       5.567  -5.256  21.415  0.00  0.00    -0.246 OA
BRANCH  67  69
ATOM     69  C   UNL     1       5.975  -3.103  22.333  0.00  0.00    +0.092 C 
ATOM     70  C   UNL     1       7.262  -2.920  22.015  0.00  0.00    +0.015 C 
BRANCH  70  71
ATOM     71  C   UNL     1       7.853  -1.593  21.949  0.00  0.00    -0.025 A 
ATOM     72  C   UNL     1       9.212  -1.413  21.670  0.00  0.00    +0.011 A 
ATOM     73  C   UNL     1       9.744  -0.132  21.600  0.00  0.00    +0.046 A 
ATOM     74  C   UNL     1       8.928   0.967  21.836  0.00  0.00    +0.117 A 
ATOM     75  C   UNL     1       7.586   0.808  22.163  0.00  0.00    +0.046 A 
ATOM     76  C   UNL     1       7.052  -0.476  22.228  0.00  0.00    +0.011 A 
BRANCH  74  77
ATOM     77  O   UNL     1       9.490   2.202  21.729  0.00  0.00    -0.507 OA
ATOM     78  H   UNL     1       8.826   2.806  21.359  0.00  0.00    +0.292 HD
ENDBRANCH  74  77
ENDBRANCH  70  71
ENDBRANCH  67  69
ENDBRANCH  66  67
ENDBRANCH  65  66
ENDBRANCH  55  65
ENDBRANCH  52  53
ENDBRANCH  45  52
ENDBRANCH   1  44
TORSDOF 26
ENDMDL
MODEL 6
REMARK VINA RESULT:      -6.0      1.748      2.708
REMARK  Name = 
REMARK  27 active torsions:
REMARK  status: ('A' for Active; 'I' for Inactive)
REMARK    1  A    between atoms: C_1  and  C_2
REMARK    2  A    between atoms: C_4  and  O_80
REMARK    3  A    between atoms: C_6  and  O_79
REMARK    4  A    between atoms: C_8  and  O_51
REMARK    5  A    between atoms: C_10  and  O_13
REMARK    6  A    between atoms: O_13  and  C_14
REMARK    7  A    between atoms: C_15  and  C_43
REMARK    8  A    between atoms: C_19  and  O_26
REMARK    9  A    between atoms: C_21  and  O_25
REMARK   10  A    between atoms: O_26  and  C_27
REMARK   11  A    between atoms: C_29  and  O_42
REMARK   12  A    between atoms: C_31  and  O_41
REMARK   13  A    between atoms: C_33  and  O_40
REMARK   14  A    between atoms: C_35  and  C_38
REMARK   15  A    between atoms: C_38  and  O_39
REMARK   16  A    between atoms: C_45  and  O_50
REMARK   17  A    between atoms: C_46  and  O_49
REMARK   18  A    between atoms: O_51  and  C_52
REMARK   19  A    between atoms: C_54  and  O_78
REMARK   20  A    between atoms: C_56  and  O_77
REMARK   21  A    between atoms: C_58  and  O_76
REMARK   22  A    between atoms: C_60  and  C_63
REMARK   23  A    between atoms: C_63  and  O_64
REMARK   24  A    between atoms: O_64  and  C_65
REMARK   25  A    between atoms: C_65  and  C_67
REMARK   26  A    between atoms: C_68  and  C_69
REMARK   27  A    between atoms: C_72  and  O_75
REMARK                            x       y       z     vdW  Elec       q    Type
REMARK                         _______ _______ _______ _____ _____    ______ ____
ROOT
ATOM      1  O   UNL     1       5.158  -4.265  28.132  0.00  0.00    -0.453 OA
ENDROOT
BRANCH   1   2
ATOM      2  C   UNL     1       5.329  -2.912  27.879  0.00  0.00    +0.214 A 
ATOM      3  C   UNL     1       4.402  -1.888  28.463  0.00  0.00    +0.238 A 
ATOM      4  O   UNL     1       3.584  -2.181  29.326  0.00  0.00    -0.283 OA
ATOM      5  C   UNL     1       4.515  -0.512  27.965  0.00  0.00    +0.109 A 
ATOM      6  C   UNL     1       5.604  -0.205  27.158  0.00  0.00    +0.147 A 
ATOM      7  C   UNL     1       5.784   1.101  26.699  0.00  0.00    +0.093 A 
ATOM      8  C   UNL     1       4.865   2.100  27.040  0.00  0.00    +0.131 A 
ATOM      9  C   UNL     1       3.774   1.795  27.850  0.00  0.00    +0.092 A 
ATOM     10  O   UNL     1       6.551  -1.128  26.789  0.00  0.00    -0.451 OA
ATOM     11  C   UNL     1       3.590   0.490  28.298  0.00  0.00    +0.135 A 
ATOM     12  C   UNL     1       6.352  -2.459  27.125  0.00  0.00    +0.181 A 
BRANCH  12  13
ATOM     13  C   UNL     1       7.399  -3.342  26.558  0.00  0.00    +0.025 A 
ATOM     14  C   UNL     1       7.427  -4.707  26.884  0.00  0.00    +0.015 A 
ATOM     15  C   UNL     1       8.346  -5.582  26.284  0.00  0.00    +0.050 A 
ATOM     16  C   UNL     1       9.238  -5.091  25.345  0.00  0.00    +0.158 A 
ATOM     17  C   UNL     1       9.237  -3.737  25.018  0.00  0.00    +0.159 A 
ATOM     18  C   UNL     1       8.332  -2.855  25.621  0.00  0.00    +0.060 A 
BRANCH  17  19
ATOM     19  O   UNL     1      10.146  -3.322  24.081  0.00  0.00    -0.503 OA
ATOM     20  H   UNL     1      10.605  -2.537  24.422  0.00  0.00    +0.292 HD
ENDBRANCH  17  19
BRANCH  16  21
ATOM     21  O   UNL     1      10.105  -5.947  24.729  0.00  0.00    -0.503 OA
ATOM     22  H   UNL     1       9.543  -6.492  24.142  0.00  0.00    +0.292 HD
ENDBRANCH  16  21
ENDBRANCH  12  13
BRANCH  11  23
ATOM     23  O   UNL     1       2.488   0.206  29.053  0.00  0.00    -0.506 OA
ATOM     24  H   UNL     1       2.361   0.871  29.749  0.00  0.00    +0.292 HD
ENDBRANCH  11  23
BRANCH   8  25
ATOM     25  O   UNL     1       4.966   3.417  26.664  0.00  0.00    -0.461 OA
BRANCH  25  26
ATOM     26  C   UNL     1       6.312   3.907  26.602  0.00  0.00    +0.339 C 
ATOM     27  O   UNL     1       6.418   5.225  27.145  0.00  0.00    -0.331 OA
ATOM     28  C   UNL     1       6.054   6.324  26.301  0.00  0.00    +0.179 C 
ATOM     29  C   UNL     1       6.783   6.260  24.950  0.00  0.00    +0.177 C 
ATOM     30  C   UNL     1       6.600   4.915  24.233  0.00  0.00    +0.180 C 
ATOM     31  C   UNL     1       6.905   3.747  25.181  0.00  0.00    +0.214 C 
BRANCH  31  32
ATOM     32  O   UNL     1       8.342   3.644  25.302  0.00  0.00    -0.383 OA
ATOM     33  H   UNL     1       8.578   4.074  26.153  0.00  0.00    +0.210 HD
ENDBRANCH  31  32
BRANCH  30  34
ATOM     34  O   UNL     1       5.346   4.790  23.573  0.00  0.00    -0.386 OA
ATOM     35  H   UNL     1       4.621   5.001  24.200  0.00  0.00    +0.210 HD
ENDBRANCH  30  34
BRANCH  29  36
ATOM     36  O   UNL     1       8.192   6.429  25.230  0.00  0.00    -0.386 OA
ATOM     37  H   UNL     1       8.332   6.212  26.170  0.00  0.00    +0.210 HD
ENDBRANCH  29  36
BRANCH  28  38
ATOM     38  C   UNL     1       4.535   6.549  26.215  0.00  0.00    +0.190 C 
BRANCH  38  39
ATOM     39  O   UNL     1       4.115   7.108  24.976  0.00  0.00    -0.392 OA
ATOM     40  H   UNL     1       3.615   7.921  25.196  0.00  0.00    +0.210 HD
ENDBRANCH  38  39
ENDBRANCH  28  38
ENDBRANCH  25  26
ENDBRANCH   8  25
ENDBRANCH   1   2
BRANCH   1  44
ATOM     41  C   UNL     1       1.239  -4.328  29.989  0.00  0.00    +0.041 C 
ATOM     42  C   UNL     1       2.381  -5.313  30.287  0.00  0.00    +0.150 C 
ATOM     43  O   UNL     1       3.670  -4.849  29.844  0.00  0.00    -0.334 OA
ATOM     44  C   UNL     1       3.815  -4.699  28.421  0.00  0.00    +0.340 C 
ATOM     45  C   UNL     1       3.573  -6.022  27.671  0.00  0.00    +0.221 C 
ATOM     46  C   UNL     1       2.289  -6.701  28.227  0.00  0.00    +0.180 C 
ATOM     47  C   UNL     1       2.161  -6.724  29.737  0.00  0.00    +0.174 C 
BRANCH  47  48
ATOM     48  O   UNL     1       3.092  -7.662  30.288  0.00  0.00    -0.387 OA
ATOM     49  H   UNL     1       3.278  -7.370  31.206  0.00  0.00    +0.210 HD
ENDBRANCH  47  48
BRANCH  46  50
ATOM     50  O   UNL     1       1.045  -6.124  27.824  0.00  0.00    -0.386 OA
ATOM     51  H   UNL     1       1.116  -5.163  27.738  0.00  0.00    +0.210 HD
ENDBRANCH  46  50
BRANCH  45  52
ATOM     52  O   UNL     1       3.687  -5.963  26.201  0.00  0.00    -0.337 OA
BRANCH  52  53
ATOM     53  C   UNL     1       3.577  -7.187  25.474  0.00  0.00    +0.282 C 
ATOM     54  O   UNL     1       4.118  -7.050  24.167  0.00  0.00    -0.339 OA
ATOM     55  C   UNL     1       3.382  -6.230  23.229  0.00  0.00    +0.190 C 
ATOM     56  C   UNL     1       1.980  -6.788  23.028  0.00  0.00    +0.178 C 
ATOM     57  C   UNL     1       1.267  -6.988  24.376  0.00  0.00    +0.179 C 
ATOM     58  C   UNL     1       2.150  -7.780  25.359  0.00  0.00    +0.201 C 
BRANCH  58  59
ATOM     59  O   UNL     1       2.267  -9.140  24.892  0.00  0.00    -0.384 OA
ATOM     60  H   UNL     1       3.206  -9.254  24.611  0.00  0.00    +0.210 HD
ENDBRANCH  58  59
BRANCH  57  61
ATOM     61  O   UNL     1       0.835  -5.744  24.924  0.00  0.00    -0.386 OA
ATOM     62  H   UNL     1      -0.141  -5.702  24.899  0.00  0.00    +0.210 HD
ENDBRANCH  57  61
BRANCH  56  63
ATOM     63  O   UNL     1       2.135  -8.069  22.387  0.00  0.00    -0.386 OA
ATOM     64  H   UNL     1       2.480  -8.684  23.051  0.00  0.00    +0.210 HD
ENDBRANCH  56  63
BRANCH  55  65
ATOM     65  C   UNL     1       3.382  -4.733  23.528  0.00  0.00    +0.266 C 
BRANCH  65  66
ATOM     66  O   UNL     1       4.585  -4.074  23.152  0.00  0.00    -0.459 OA
BRANCH  66  67
ATOM     67  C   UNL     1       4.808  -2.959  23.899  0.00  0.00    +0.332 C 
ATOM     68  O   UNL     1       4.201  -2.594  24.891  0.00  0.00    -0.246 OA
BRANCH  67  69
ATOM     69  C   UNL     1       5.920  -2.243  23.289  0.00  0.00    +0.092 C 
ATOM     70  C   UNL     1       6.022  -0.928  23.517  0.00  0.00    +0.015 C 
BRANCH  70  71
ATOM     71  C   UNL     1       7.121  -0.142  22.981  0.00  0.00    -0.025 A 
ATOM     72  C   UNL     1       8.422  -0.653  22.917  0.00  0.00    +0.011 A 
ATOM     73  C   UNL     1       9.448   0.118  22.388  0.00  0.00    +0.046 A 
ATOM     74  C   UNL     1       9.183   1.408  21.947  0.00  0.00    +0.117 A 
ATOM     75  C   UNL     1       7.909   1.953  22.047  0.00  0.00    +0.046 A 
ATOM     76  C   UNL     1       6.879   1.178  22.573  0.00  0.00    +0.011 A 
BRANCH  74  77
ATOM     77  O   UNL     1      10.217   2.114  21.412  0.00  0.00    -0.507 OA
ATOM     78  H   UNL     1      11.047   1.729  21.738  0.00  0.00    +0.292 HD
ENDBRANCH  74  77
ENDBRANCH  70  71
ENDBRANCH  67  69
ENDBRANCH  66  67
ENDBRANCH  65  66
ENDBRANCH  55  65
ENDBRANCH  52  53
ENDBRANCH  45  52
ENDBRANCH   1  44
TORSDOF 26
ENDMDL
MODEL 7
REMARK VINA RESULT:      -5.8      1.852      3.286
REMARK  Name = 
REMARK  27 active torsions:
REMARK  status: ('A' for Active; 'I' for Inactive)
REMARK    1  A    between atoms: C_1  and  C_2
REMARK    2  A    between atoms: C_4  and  O_80
REMARK    3  A    between atoms: C_6  and  O_79
REMARK    4  A    between atoms: C_8  and  O_51
REMARK    5  A    between atoms: C_10  and  O_13
REMARK    6  A    between atoms: O_13  and  C_14
REMARK    7  A    between atoms: C_15  and  C_43
REMARK    8  A    between atoms: C_19  and  O_26
REMARK    9  A    between atoms: C_21  and  O_25
REMARK   10  A    between atoms: O_26  and  C_27
REMARK   11  A    between atoms: C_29  and  O_42
REMARK   12  A    between atoms: C_31  and  O_41
REMARK   13  A    between atoms: C_33  and  O_40
REMARK   14  A    between atoms: C_35  and  C_38
REMARK   15  A    between atoms: C_38  and  O_39
REMARK   16  A    between atoms: C_45  and  O_50
REMARK   17  A    between atoms: C_46  and  O_49
REMARK   18  A    between atoms: O_51  and  C_52
REMARK   19  A    between atoms: C_54  and  O_78
REMARK   20  A    between atoms: C_56  and  O_77
REMARK   21  A    between atoms: C_58  and  O_76
REMARK   22  A    between atoms: C_60  and  C_63
REMARK   23  A    between atoms: C_63  and  O_64
REMARK   24  A    between atoms: O_64  and  C_65
REMARK   25  A    between atoms: C_65  and  C_67
REMARK   26  A    between atoms: C_68  and  C_69
REMARK   27  A    between atoms: C_72  and  O_75
REMARK                            x       y       z     vdW  Elec       q    Type
REMARK                         _______ _______ _______ _____ _____    ______ ____
ROOT
ATOM      1  O   UNL     1       4.108  -3.494  27.107  0.00  0.00    -0.453 OA
ENDROOT
BRANCH   1   2
ATOM      2  C   UNL     1       4.532  -2.177  27.213  0.00  0.00    +0.214 A 
ATOM      3  C   UNL     1       3.573  -1.076  27.556  0.00  0.00    +0.238 A 
ATOM      4  O   UNL     1       2.434  -1.313  27.937  0.00  0.00    -0.283 OA
ATOM      5  C   UNL     1       4.053   0.304  27.425  0.00  0.00    +0.109 A 
ATOM      6  C   UNL     1       5.413   0.497  27.207  0.00  0.00    +0.147 A 
ATOM      7  C   UNL     1       5.928   1.791  27.123  0.00  0.00    +0.093 A 
ATOM      8  C   UNL     1       5.079   2.896  27.248  0.00  0.00    +0.131 A 
ATOM      9  C   UNL     1       3.717   2.707  27.468  0.00  0.00    +0.092 A 
ATOM     10  O   UNL     1       6.309  -0.536  27.084  0.00  0.00    -0.451 OA
ATOM     11  C   UNL     1       3.203   1.415  27.540  0.00  0.00    +0.135 A 
ATOM     12  C   UNL     1       5.826  -1.837  27.045  0.00  0.00    +0.181 A 
BRANCH  12  13
ATOM     13  C   UNL     1       6.902  -2.825  26.793  0.00  0.00    +0.025 A 
ATOM     14  C   UNL     1       8.094  -2.430  26.167  0.00  0.00    +0.015 A 
ATOM     15  C   UNL     1       9.165  -3.324  26.006  0.00  0.00    +0.050 A 
ATOM     16  C   UNL     1       9.047  -4.618  26.483  0.00  0.00    +0.158 A 
ATOM     17  C   UNL     1       7.867  -5.035  27.094  0.00  0.00    +0.159 A 
ATOM     18  C   UNL     1       6.789  -4.154  27.247  0.00  0.00    +0.060 A 
BRANCH  17  19
ATOM     19  O   UNL     1       7.820  -6.329  27.542  0.00  0.00    -0.503 OA
ATOM     20  H   UNL     1       8.466  -6.431  28.261  0.00  0.00    +0.292 HD
ENDBRANCH  17  19
BRANCH  16  21
ATOM     21  O   UNL     1      10.102  -5.477  26.366  0.00  0.00    -0.503 OA
ATOM     22  H   UNL     1       9.704  -6.323  26.076  0.00  0.00    +0.292 HD
ENDBRANCH  16  21
ENDBRANCH  12  13
BRANCH  11  23
ATOM     23  O   UNL     1       1.858   1.254  27.711  0.00  0.00    -0.506 OA
ATOM     24  H   UNL     1       1.410   1.130  26.859  0.00  0.00    +0.292 HD
ENDBRANCH  11  23
BRANCH   8  25
ATOM     25  O   UNL     1       5.490   4.206  27.208  0.00  0.00    -0.461 OA
BRANCH  25  26
ATOM     26  C   UNL     1       6.912   4.373  27.160  0.00  0.00    +0.339 C 
ATOM     27  O   UNL     1       7.408   5.019  28.334  0.00  0.00    -0.331 OA
ATOM     28  C   UNL     1       7.313   6.447  28.399  0.00  0.00    +0.179 C 
ATOM     29  C   UNL     1       7.919   7.108  27.151  0.00  0.00    +0.177 C 
ATOM     30  C   UNL     1       7.332   6.564  25.841  0.00  0.00    +0.180 C 
ATOM     31  C   UNL     1       7.357   5.030  25.830  0.00  0.00    +0.214 C 
BRANCH  31  32
ATOM     32  O   UNL     1       8.715   4.614  25.555  0.00  0.00    -0.383 OA
ATOM     33  H   UNL     1       8.940   3.943  26.235  0.00  0.00    +0.210 HD
ENDBRANCH  31  32
BRANCH  30  34
ATOM     34  O   UNL     1       6.056   7.108  25.522  0.00  0.00    -0.386 OA
ATOM     35  H   UNL     1       6.167   7.876  24.921  0.00  0.00    +0.210 HD
ENDBRANCH  30  34
BRANCH  29  36
ATOM     36  O   UNL     1       9.333   6.806  27.167  0.00  0.00    -0.386 OA
ATOM     37  H   UNL     1       9.759   7.362  26.489  0.00  0.00    +0.210 HD
ENDBRANCH  29  36
BRANCH  28  38
ATOM     38  C   UNL     1       5.913   6.947  28.791  0.00  0.00    +0.190 C 
BRANCH  38  39
ATOM     39  O   UNL     1       5.182   6.019  29.584  0.00  0.00    -0.392 OA
ATOM     40  H   UNL     1       5.025   6.457  30.447  0.00  0.00    +0.210 HD
ENDBRANCH  38  39
ENDBRANCH  28  38
ENDBRANCH  25  26
ENDBRANCH   8  25
ENDBRANCH   1   2
BRANCH   1  44
ATOM     41  C   UNL     1       0.488  -3.409  24.719  0.00  0.00    +0.041 C 
ATOM     42  C   UNL     1       0.943  -4.581  25.605  0.00  0.00    +0.150 C 
ATOM     43  O   UNL     1       1.944  -4.214  26.573  0.00  0.00    -0.334 OA
ATOM     44  C   UNL     1       3.205  -3.791  26.025  0.00  0.00    +0.340 C 
ATOM     45  C   UNL     1       3.853  -4.883  25.155  0.00  0.00    +0.221 C 
ATOM     46  C   UNL     1       2.782  -5.483  24.198  0.00  0.00    +0.180 C 
ATOM     47  C   UNL     1       1.444  -5.802  24.832  0.00  0.00    +0.174 C 
BRANCH  47  48
ATOM     48  O   UNL     1       1.569  -6.952  25.675  0.00  0.00    -0.387 OA
ATOM     49  H   UNL     1       0.709  -7.425  25.640  0.00  0.00    +0.210 HD
ENDBRANCH  47  48
BRANCH  46  50
ATOM     50  O   UNL     1       2.408  -4.671  23.084  0.00  0.00    -0.386 OA
ATOM     51  H   UNL     1       2.652  -3.745  23.226  0.00  0.00    +0.210 HD
ENDBRANCH  46  50
BRANCH  45  52
ATOM     52  O   UNL     1       5.148  -4.535  24.536  0.00  0.00    -0.337 OA
BRANCH  52  53
ATOM     53  C   UNL     1       5.922  -5.592  23.969  0.00  0.00    +0.282 C 
ATOM     54  O   UNL     1       7.298  -5.242  23.917  0.00  0.00    -0.339 OA
ATOM     55  C   UNL     1       7.685  -4.220  22.967  0.00  0.00    +0.190 C 
ATOM     56  C   UNL     1       7.326  -4.653  21.552  0.00  0.00    +0.178 C 
ATOM     57  C   UNL     1       5.847  -5.064  21.459  0.00  0.00    +0.179 C 
ATOM     58  C   UNL     1       5.481  -6.074  22.564  0.00  0.00    +0.201 C 
BRANCH  58  59
ATOM     59  O   UNL     1       6.144  -7.327  22.292  0.00  0.00    -0.384 OA
ATOM     60  H   UNL     1       6.084  -7.854  23.123  0.00  0.00    +0.210 HD
ENDBRANCH  58  59
BRANCH  57  61
ATOM     61  O   UNL     1       4.990  -3.924  21.468  0.00  0.00    -0.386 OA
ATOM     62  H   UNL     1       5.401  -3.207  20.947  0.00  0.00    +0.210 HD
ENDBRANCH  57  61
BRANCH  56  63
ATOM     63  O   UNL     1       8.149  -5.797  21.251  0.00  0.00    -0.386 OA
ATOM     64  H   UNL     1       8.021  -6.440  21.964  0.00  0.00    +0.210 HD
ENDBRANCH  56  63
BRANCH  55  65
ATOM     65  C   UNL     1       7.201  -2.809  23.291  0.00  0.00    +0.266 C 
BRANCH  65  66
ATOM     66  O   UNL     1       7.503  -1.854  22.280  0.00  0.00    -0.459 OA
BRANCH  66  67
ATOM     67  C   UNL     1       8.609  -1.123  22.587  0.00  0.00    +0.332 C 
ATOM     68  O   UNL     1       9.702  -1.535  22.933  0.00  0.00    -0.246 OA
BRANCH  67  69
ATOM     69  C   UNL     1       8.253   0.282  22.442  0.00  0.00    +0.092 C 
ATOM     70  C   UNL     1       7.077   0.687  22.935  0.00  0.00    +0.015 C 
BRANCH  70  71
ATOM     71  C   UNL     1       6.658   2.079  22.870  0.00  0.00    -0.025 A 
ATOM     72  C   UNL     1       7.468   3.058  22.285  0.00  0.00    +0.011 A 
ATOM     73  C   UNL     1       7.034   4.376  22.226  0.00  0.00    +0.046 A 
ATOM     74  C   UNL     1       5.806   4.722  22.775  0.00  0.00    +0.117 A 
ATOM     75  C   UNL     1       5.008   3.774  23.404  0.00  0.00    +0.046 A 
ATOM     76  C   UNL     1       5.441   2.452  23.458  0.00  0.00    +0.011 A 
BRANCH  74  77
ATOM     77  O   UNL     1       5.414   6.021  22.668  0.00  0.00    -0.507 OA
ATOM     78  H   UNL     1       4.805   6.214  23.400  0.00  0.00    +0.292 HD
ENDBRANCH  74  77
ENDBRANCH  70  71
ENDBRANCH  67  69
ENDBRANCH  66  67
ENDBRANCH  65  66
ENDBRANCH  55  65
ENDBRANCH  52  53
ENDBRANCH  45  52
ENDBRANCH   1  44
TORSDOF 26
ENDMDL
MODEL 8
REMARK VINA RESULT:      -5.4      1.906      3.057
REMARK  Name = 
REMARK  27 active torsions:
REMARK  status: ('A' for Active; 'I' for Inactive)
REMARK    1  A    between atoms: C_1  and  C_2
REMARK    2  A    between atoms: C_4  and  O_80
REMARK    3  A    between atoms: C_6  and  O_79
REMARK    4  A    between atoms: C_8  and  O_51
REMARK    5  A    between atoms: C_10  and  O_13
REMARK    6  A    between atoms: O_13  and  C_14
REMARK    7  A    between atoms: C_15  and  C_43
REMARK    8  A    between atoms: C_19  and  O_26
REMARK    9  A    between atoms: C_21  and  O_25
REMARK   10  A    between atoms: O_26  and  C_27
REMARK   11  A    between atoms: C_29  and  O_42
REMARK   12  A    between atoms: C_31  and  O_41
REMARK   13  A    between atoms: C_33  and  O_40
REMARK   14  A    between atoms: C_35  and  C_38
REMARK   15  A    between atoms: C_38  and  O_39
REMARK   16  A    between atoms: C_45  and  O_50
REMARK   17  A    between atoms: C_46  and  O_49
REMARK   18  A    between atoms: O_51  and  C_52
REMARK   19  A    between atoms: C_54  and  O_78
REMARK   20  A    between atoms: C_56  and  O_77
REMARK   21  A    between atoms: C_58  and  O_76
REMARK   22  A    between atoms: C_60  and  C_63
REMARK   23  A    between atoms: C_63  and  O_64
REMARK   24  A    between atoms: O_64  and  C_65
REMARK   25  A    between atoms: C_65  and  C_67
REMARK   26  A    between atoms: C_68  and  C_69
REMARK   27  A    between atoms: C_72  and  O_75
REMARK                            x       y       z     vdW  Elec       q    Type
REMARK                         _______ _______ _______ _____ _____    ______ ____
ROOT
ATOM      1  O   UNL     1       3.912  -3.760  27.052  0.00  0.00    -0.453 OA
ENDROOT
BRANCH   1   2
ATOM      2  C   UNL     1       4.167  -2.399  27.136  0.00  0.00    +0.214 A 
ATOM      3  C   UNL     1       3.060  -1.415  27.372  0.00  0.00    +0.238 A 
ATOM      4  O   UNL     1       1.933  -1.778  27.686  0.00  0.00    -0.283 OA
ATOM      5  C   UNL     1       3.379   0.010  27.221  0.00  0.00    +0.109 A 
ATOM      6  C   UNL     1       4.717   0.361  27.086  0.00  0.00    +0.147 A 
ATOM      7  C   UNL     1       5.077   1.706  26.987  0.00  0.00    +0.093 A 
ATOM      8  C   UNL     1       4.095   2.702  27.014  0.00  0.00    +0.131 A 
ATOM      9  C   UNL     1       2.754   2.353  27.151  0.00  0.00    +0.092 A 
ATOM     10  O   UNL     1       5.737  -0.558  27.061  0.00  0.00    -0.451 OA
ATOM     11  C   UNL     1       2.395   1.011  27.238  0.00  0.00    +0.135 A 
ATOM     12  C   UNL     1       5.419  -1.908  27.040  0.00  0.00    +0.181 A 
BRANCH  12  13
ATOM     13  C   UNL     1       6.620  -2.764  26.897  0.00  0.00    +0.025 A 
ATOM     14  C   UNL     1       7.830  -2.216  26.442  0.00  0.00    +0.015 A 
ATOM     15  C   UNL     1       9.005  -2.983  26.392  0.00  0.00    +0.050 A 
ATOM     16  C   UNL     1       8.973  -4.303  26.809  0.00  0.00    +0.158 A 
ATOM     17  C   UNL     1       7.781  -4.870  27.251  0.00  0.00    +0.159 A 
ATOM     18  C   UNL     1       6.601  -4.117  27.291  0.00  0.00    +0.060 A 
BRANCH  17  19
ATOM     19  O   UNL     1       7.823  -6.180  27.649  0.00  0.00    -0.503 OA
ATOM     20  H   UNL     1       6.913  -6.496  27.772  0.00  0.00    +0.292 HD
ENDBRANCH  17  19
BRANCH  16  21
ATOM     21  O   UNL     1      10.124  -5.038  26.801  0.00  0.00    -0.503 OA
ATOM     22  H   UNL     1       9.834  -5.955  26.984  0.00  0.00    +0.292 HD
ENDBRANCH  16  21
ENDBRANCH  12  13
BRANCH  11  23
ATOM     23  O   UNL     1       1.070   0.691  27.325  0.00  0.00    -0.506 OA
ATOM     24  H   UNL     1       0.938  -0.108  27.860  0.00  0.00    +0.292 HD
ENDBRANCH  11  23
BRANCH   8  25
ATOM     25  O   UNL     1       4.346   4.050  26.952  0.00  0.00    -0.461 OA
BRANCH  25  26
ATOM     26  C   UNL     1       5.051   4.462  25.774  0.00  0.00    +0.339 C 
ATOM     27  O   UNL     1       5.414   5.843  25.831  0.00  0.00    -0.331 OA
ATOM     28  C   UNL     1       4.414   6.809  25.485  0.00  0.00    +0.179 C 
ATOM     29  C   UNL     1       3.781   6.497  24.121  0.00  0.00    +0.177 C 
ATOM     30  C   UNL     1       3.236   5.065  24.026  0.00  0.00    +0.180 C 
ATOM     31  C   UNL     1       4.291   4.050  24.490  0.00  0.00    +0.214 C 
BRANCH  31  32
ATOM     32  O   UNL     1       5.256   3.901  23.423  0.00  0.00    -0.383 OA
ATOM     33  H   UNL     1       4.737   3.818  22.593  0.00  0.00    +0.210 HD
ENDBRANCH  31  32
BRANCH  30  34
ATOM     34  O   UNL     1       1.975   4.895  24.661  0.00  0.00    -0.386 OA
ATOM     35  H   UNL     1       1.653   5.761  24.992  0.00  0.00    +0.210 HD
ENDBRANCH  30  34
BRANCH  29  36
ATOM     36  O   UNL     1       4.828   6.644  23.134  0.00  0.00    -0.386 OA
ATOM     37  H   UNL     1       4.402   6.850  22.282  0.00  0.00    +0.210 HD
ENDBRANCH  29  36
BRANCH  28  38
ATOM     38  C   UNL     1       3.417   7.087  26.622  0.00  0.00    +0.190 C 
BRANCH  38  39
ATOM     39  O   UNL     1       3.955   6.850  27.918  0.00  0.00    -0.392 OA
ATOM     40  H   UNL     1       3.291   7.183  28.557  0.00  0.00    +0.210 HD
ENDBRANCH  38  39
ENDBRANCH  28  38
ENDBRANCH  25  26
ENDBRANCH   8  25
ENDBRANCH   1   2
BRANCH   1  44
ATOM     41  C   UNL     1       0.446  -4.164  24.476  0.00  0.00    +0.041 C 
ATOM     42  C   UNL     1       0.974  -5.245  25.434  0.00  0.00    +0.150 C 
ATOM     43  O   UNL     1       1.873  -4.734  26.436  0.00  0.00    -0.334 OA
ATOM     44  C   UNL     1       3.110  -4.196  25.937  0.00  0.00    +0.340 C 
ATOM     45  C   UNL     1       3.921  -5.241  25.150  0.00  0.00    +0.221 C 
ATOM     46  C   UNL     1       2.977  -5.989  24.165  0.00  0.00    +0.180 C 
ATOM     47  C   UNL     1       1.647  -6.432  24.741  0.00  0.00    +0.174 C 
BRANCH  47  48
ATOM     48  O   UNL     1       1.848  -7.529  25.638  0.00  0.00    -0.387 OA
ATOM     49  H   UNL     1       2.378  -8.198  25.152  0.00  0.00    +0.210 HD
ENDBRANCH  47  48
BRANCH  46  50
ATOM     50  O   UNL     1       2.581  -5.266  22.999  0.00  0.00    -0.386 OA
ATOM     51  H   UNL     1       2.677  -4.311  23.128  0.00  0.00    +0.210 HD
ENDBRANCH  46  50
BRANCH  45  52
ATOM     52  O   UNL     1       5.203  -4.775  24.586  0.00  0.00    -0.337 OA
BRANCH  52  53
ATOM     53  C   UNL     1       6.062  -5.747  23.990  0.00  0.00    +0.282 C 
ATOM     54  O   UNL     1       7.408  -5.292  23.974  0.00  0.00    -0.339 OA
ATOM     55  C   UNL     1       7.729  -4.207  23.071  0.00  0.00    +0.190 C 
ATOM     56  C   UNL     1       7.423  -4.608  21.635  0.00  0.00    +0.178 C 
ATOM     57  C   UNL     1       5.981  -5.124  21.502  0.00  0.00    +0.179 C 
ATOM     58  C   UNL     1       5.678  -6.203  22.559  0.00  0.00    +0.201 C 
BRANCH  58  59
ATOM     59  O   UNL     1       6.437  -7.390  22.249  0.00  0.00    -0.384 OA
ATOM     60  H   UNL     1       7.381  -7.108  22.207  0.00  0.00    +0.210 HD
ENDBRANCH  58  59
BRANCH  57  61
ATOM     61  O   UNL     1       5.040  -4.053  21.542  0.00  0.00    -0.386 OA
ATOM     62  H   UNL     1       4.770  -3.895  22.466  0.00  0.00    +0.210 HD
ENDBRANCH  57  61
BRANCH  56  63
ATOM     63  O   UNL     1       8.334  -5.674  21.302  0.00  0.00    -0.386 OA
ATOM     64  H   UNL     1       7.888  -6.508  21.507  0.00  0.00    +0.210 HD
ENDBRANCH  56  63
BRANCH  55  65
ATOM     65  C   UNL     1       7.136  -2.850  23.443  0.00  0.00    +0.266 C 
BRANCH  65  66
ATOM     66  O   UNL     1       7.572  -1.786  22.605  0.00  0.00    -0.459 OA
BRANCH  66  67
ATOM     67  C   UNL     1       8.828  -1.372  22.924  0.00  0.00    +0.332 C 
ATOM     68  O   UNL     1       9.844  -2.043  22.973  0.00  0.00    -0.246 OA
BRANCH  67  69
ATOM     69  C   UNL     1       8.753   0.053  23.220  0.00  0.00    +0.092 C 
ATOM     70  C   UNL     1       9.869   0.781  23.095  0.00  0.00    +0.015 C 
BRANCH  70  71
ATOM     71  C   UNL     1       9.877   2.216  23.332  0.00  0.00    -0.025 A 
ATOM     72  C   UNL     1      11.075   2.931  23.438  0.00  0.00    +0.011 A 
ATOM     73  C   UNL     1      11.049   4.303  23.650  0.00  0.00    +0.046 A 
ATOM     74  C   UNL     1       9.832   4.957  23.784  0.00  0.00    +0.117 A 
ATOM     75  C   UNL     1       8.632   4.258  23.731  0.00  0.00    +0.046 A 
ATOM     76  C   UNL     1       8.657   2.883  23.513  0.00  0.00    +0.011 A 
BRANCH  74  77
ATOM     77  O   UNL     1       9.859   6.306  23.964  0.00  0.00    -0.507 OA
ATOM     78  H   UNL     1       8.944   6.632  23.950  0.00  0.00    +0.292 HD
ENDBRANCH  74  77
ENDBRANCH  70  71
ENDBRANCH  67  69
ENDBRANCH  66  67
ENDBRANCH  65  66
ENDBRANCH  55  65
ENDBRANCH  52  53
ENDBRANCH  45  52
ENDBRANCH   1  44
TORSDOF 26
ENDMDL
MODEL 9
REMARK VINA RESULT:      -5.3      2.513      9.239
REMARK  Name = 
REMARK  27 active torsions:
REMARK  status: ('A' for Active; 'I' for Inactive)
REMARK    1  A    between atoms: C_1  and  C_2
REMARK    2  A    between atoms: C_4  and  O_80
REMARK    3  A    between atoms: C_6  and  O_79
REMARK    4  A    between atoms: C_8  and  O_51
REMARK    5  A    between atoms: C_10  and  O_13
REMARK    6  A    between atoms: O_13  and  C_14
REMARK    7  A    between atoms: C_15  and  C_43
REMARK    8  A    between atoms: C_19  and  O_26
REMARK    9  A    between atoms: C_21  and  O_25
REMARK   10  A    between atoms: O_26  and  C_27
REMARK   11  A    between atoms: C_29  and  O_42
REMARK   12  A    between atoms: C_31  and  O_41
REMARK   13  A    between atoms: C_33  and  O_40
REMARK   14  A    between atoms: C_35  and  C_38
REMARK   15  A    between atoms: C_38  and  O_39
REMARK   16  A    between atoms: C_45  and  O_50
REMARK   17  A    between atoms: C_46  and  O_49
REMARK   18  A    between atoms: O_51  and  C_52
REMARK   19  A    between atoms: C_54  and  O_78
REMARK   20  A    between atoms: C_56  and  O_77
REMARK   21  A    between atoms: C_58  and  O_76
REMARK   22  A    between atoms: C_60  and  C_63
REMARK   23  A    between atoms: C_63  and  O_64
REMARK   24  A    between atoms: O_64  and  C_65
REMARK   25  A    between atoms: C_65  and  C_67
REMARK   26  A    between atoms: C_68  and  C_69
REMARK   27  A    between atoms: C_72  and  O_75
REMARK                            x       y       z     vdW  Elec       q    Type
REMARK                         _______ _______ _______ _____ _____    ______ ____
ROOT
ATOM      1  O   UNL     1       6.034   1.243  26.317  0.00  0.00    -0.453 OA
ENDROOT
BRANCH   1   2
ATOM      2  C   UNL     1       5.318   0.058  26.219  0.00  0.00    +0.214 A 
ATOM      3  C   UNL     1       3.938  -0.065  26.794  0.00  0.00    +0.238 A 
ATOM      4  O   UNL     1       3.321   0.912  27.199  0.00  0.00    -0.283 OA
ATOM      5  C   UNL     1       3.346  -1.407  26.848  0.00  0.00    +0.109 A 
ATOM      6  C   UNL     1       4.002  -2.430  26.172  0.00  0.00    +0.147 A 
ATOM      7  C   UNL     1       3.456  -3.714  26.152  0.00  0.00    +0.093 A 
ATOM      8  C   UNL     1       2.254  -3.978  26.819  0.00  0.00    +0.131 A 
ATOM      9  C   UNL     1       1.593  -2.955  27.494  0.00  0.00    +0.092 A 
ATOM     10  O   UNL     1       5.179  -2.246  25.489  0.00  0.00    -0.451 OA
ATOM     11  C   UNL     1       2.146  -1.677  27.523  0.00  0.00    +0.135 A 
ATOM     12  C   UNL     1       5.817  -1.017  25.577  0.00  0.00    +0.181 A 
BRANCH  12  13
ATOM     13  C   UNL     1       7.126  -1.016  24.882  0.00  0.00    +0.025 A 
ATOM     14  C   UNL     1       8.270  -0.521  25.528  0.00  0.00    +0.015 A 
ATOM     15  C   UNL     1       9.537  -0.599  24.929  0.00  0.00    +0.050 A 
ATOM     16  C   UNL     1       9.664  -1.183  23.680  0.00  0.00    +0.158 A 
ATOM     17  C   UNL     1       8.540  -1.668  23.016  0.00  0.00    +0.159 A 
ATOM     18  C   UNL     1       7.270  -1.582  23.600  0.00  0.00    +0.060 A 
BRANCH  17  19
ATOM     19  O   UNL     1       8.739  -2.233  21.785  0.00  0.00    -0.503 OA
ATOM     20  H   UNL     1       8.768  -1.526  21.120  0.00  0.00    +0.292 HD
ENDBRANCH  17  19
BRANCH  16  21
ATOM     21  O   UNL     1      10.901  -1.298  23.113  0.00  0.00    -0.503 OA
ATOM     22  H   UNL     1      11.081  -0.417  22.728  0.00  0.00    +0.292 HD
ENDBRANCH  16  21
ENDBRANCH  12  13
BRANCH  11  23
ATOM     23  O   UNL     1       1.503  -0.702  28.231  0.00  0.00    -0.506 OA
ATOM     24  H   UNL     1       0.754  -0.343  27.729  0.00  0.00    +0.292 HD
ENDBRANCH  11  23
BRANCH   8  25
ATOM     25  O   UNL     1       1.621  -5.196  26.836  0.00  0.00    -0.461 OA
BRANCH  25  26
ATOM     26  C   UNL     1       1.397  -5.758  25.537  0.00  0.00    +0.339 C 
ATOM     27  O   UNL     1       0.444  -6.824  25.580  0.00  0.00    -0.331 OA
ATOM     28  C   UNL     1       0.910  -8.117  25.983  0.00  0.00    +0.179 C 
ATOM     29  C   UNL     1       2.136  -8.552  25.165  0.00  0.00    +0.177 C 
ATOM     30  C   UNL     1       3.268  -7.517  25.185  0.00  0.00    +0.180 C 
ATOM     31  C   UNL     1       2.732  -6.119  24.842  0.00  0.00    +0.214 C 
BRANCH  31  32
ATOM     32  O   UNL     1       2.524  -6.068  23.412  0.00  0.00    -0.383 OA
ATOM     33  H   UNL     1       2.559  -6.997  23.095  0.00  0.00    +0.210 HD
ENDBRANCH  31  32
BRANCH  30  34
ATOM     34  O   UNL     1       4.042  -7.544  26.378  0.00  0.00    -0.386 OA
ATOM     35  H   UNL     1       3.445  -7.588  27.156  0.00  0.00    +0.210 HD
ENDBRANCH  30  34
BRANCH  29  36
ATOM     36  O   UNL     1       1.690  -8.703  23.797  0.00  0.00    -0.386 OA
ATOM     37  H   UNL     1       1.732  -7.824  23.377  0.00  0.00    +0.210 HD
ENDBRANCH  29  36
BRANCH  28  38
ATOM     38  C   UNL     1       1.052  -8.266  27.507  0.00  0.00    +0.190 C 
BRANCH  38  39
ATOM     39  O   UNL     1       1.246  -9.612  27.928  0.00  0.00    -0.392 OA
ATOM     40  H   UNL     1       2.213  -9.732  28.032  0.00  0.00    +0.210 HD
ENDBRANCH  38  39
ENDBRANCH  28  38
ENDBRANCH  25  26
ENDBRANCH   8  25
ENDBRANCH   1   2
BRANCH   1  44
ATOM     41  C   UNL     1       7.801   1.393  30.275  0.00  0.00    +0.041 C 
ATOM     42  C   UNL     1       6.360   0.960  29.960  0.00  0.00    +0.150 C 
ATOM     43  O   UNL     1       6.150   0.629  28.574  0.00  0.00    -0.334 OA
ATOM     44  C   UNL     1       6.308   1.718  27.649  0.00  0.00    +0.340 C 
ATOM     45  C   UNL     1       5.338   2.876  27.947  0.00  0.00    +0.221 C 
ATOM     46  C   UNL     1       5.352   3.179  29.473  0.00  0.00    +0.180 C 
ATOM     47  C   UNL     1       5.289   1.968  30.382  0.00  0.00    +0.174 C 
BRANCH  47  48
ATOM     48  O   UNL     1       3.976   1.400  30.341  0.00  0.00    -0.387 OA
ATOM     49  H   UNL     1       3.828   0.967  31.210  0.00  0.00    +0.210 HD
ENDBRANCH  47  48
BRANCH  46  50
ATOM     50  O   UNL     1       6.498   3.875  29.967  0.00  0.00    -0.386 OA
ATOM     51  H   UNL     1       7.272   3.717  29.408  0.00  0.00    +0.210 HD
ENDBRANCH  46  50
BRANCH  45  52
ATOM     52  O   UNL     1       5.436   4.048  27.055  0.00  0.00    -0.337 OA
BRANCH  52  53
ATOM     53  C   UNL     1       4.400   4.242  26.091  0.00  0.00    +0.282 C 
ATOM     54  O   UNL     1       4.777   5.219  25.131  0.00  0.00    -0.339 OA
ATOM     55  C   UNL     1       4.849   6.594  25.581  0.00  0.00    +0.190 C 
ATOM     56  C   UNL     1       3.495   7.048  26.107  0.00  0.00    +0.178 C 
ATOM     57  C   UNL     1       2.960   6.072  27.169  0.00  0.00    +0.179 C 
ATOM     58  C   UNL     1       3.009   4.618  26.660  0.00  0.00    +0.201 C 
BRANCH  58  59
ATOM     59  O   UNL     1       2.036   4.457  25.607  0.00  0.00    -0.384 OA
ATOM     60  H   UNL     1       1.556   3.618  25.803  0.00  0.00    +0.210 HD
ENDBRANCH  58  59
BRANCH  57  61
ATOM     61  O   UNL     1       3.643   6.230  28.411  0.00  0.00    -0.386 OA
ATOM     62  H   UNL     1       4.176   5.433  28.590  0.00  0.00    +0.210 HD
ENDBRANCH  57  61
BRANCH  56  63
ATOM     63  O   UNL     1       2.596   7.052  24.981  0.00  0.00    -0.386 OA
ATOM     64  H   UNL     1       1.773   6.630  25.267  0.00  0.00    +0.210 HD
ENDBRANCH  56  63
BRANCH  55  65
ATOM     65  C   UNL     1       5.991   6.908  26.544  0.00  0.00    +0.266 C 
BRANCH  65  66
ATOM     66  O   UNL     1       7.244   7.108  25.901  0.00  0.00    -0.459 OA
BRANCH  66  67
ATOM     67  C   UNL     1       8.151   6.156  26.250  0.00  0.00    +0.332 C 
ATOM     68  O   UNL     1       8.666   5.983  27.341  0.00  0.00    -0.246 OA
BRANCH  67  69
ATOM     69  C   UNL     1       8.423   5.359  25.061  0.00  0.00    +0.092 C 
ATOM     70  C   UNL     1       8.139   4.052  25.102  0.00  0.00    +0.015 C 
BRANCH  70  71
ATOM     71  C   UNL     1       8.342   3.188  23.950  0.00  0.00    -0.025 A 
ATOM     72  C   UNL     1       7.267   2.561  23.310  0.00  0.00    +0.011 A 
ATOM     73  C   UNL     1       7.492   1.754  22.203  0.00  0.00    +0.046 A 
ATOM     74  C   UNL     1       8.789   1.548  21.751  0.00  0.00    +0.117 A 
ATOM     75  C   UNL     1       9.874   2.122  22.402  0.00  0.00    +0.046 A 
ATOM     76  C   UNL     1       9.649   2.936  23.509  0.00  0.00    +0.011 A 
BRANCH  74  77
ATOM     77  O   UNL     1       8.954   0.770  20.647  0.00  0.00    -0.507 OA
ATOM     78  H   UNL     1       8.407   1.137  19.933  0.00  0.00    +0.292 HD
ENDBRANCH  74  77
ENDBRANCH  70  71
ENDBRANCH  67  69
ENDBRANCH  66  67
ENDBRANCH  65  66
ENDBRANCH  55  65
ENDBRANCH  52  53
ENDBRANCH  45  52
ENDBRANCH   1  44
TORSDOF 26
ENDMDL
