MODEL 1
REMARK VINA RESULT:      -6.9      0.000      0.000
REMARK  Name = 
REMARK  9 active torsions:
REMARK  status: ('A' for Active; 'I' for Inactive)
REMARK    1  A    between atoms: C_1  and  O_2
REMARK    2  A    between atoms: O_2  and  C_3
REMARK    3  A    between atoms: C_5  and  O_25
REMARK    4  A    between atoms: C_10  and  C_16
REMARK    5  A    between atoms: C_11  and  O_14
REMARK    6  A    between atoms: O_14  and  C_15
REMARK    7  A    between atoms: C_18  and  O_23
REMARK    8  A    between atoms: C_19  and  O_22
REMARK    9  A    between atoms: O_23  and  C_24
REMARK                            x       y       z     vdW  Elec       q    Type
REMARK                         _______ _______ _______ _____ _____    ______ ____
ROOT
ATOM      1  C   UNL     1       7.111   1.080  23.343  0.00  0.00    +0.127 A 
ATOM      2  C   UNL     1       6.447  -0.115  23.628  0.00  0.00    +0.092 A 
ATOM      3  C   UNL     1       7.157  -1.319  23.731  0.00  0.00    +0.147 A 
ATOM      4  O   UNL     1       6.420  -2.447  23.980  0.00  0.00    -0.451 OA
ATOM      5  C   UNL     1       7.082  -3.647  24.165  0.00  0.00    +0.181 A 
ATOM      6  C   UNL     1       8.414  -3.828  24.067  0.00  0.00    +0.211 A 
ATOM      7  C   UNL     1       9.240  -2.632  23.692  0.00  0.00    +0.238 A 
ATOM      8  O   UNL     1      10.445  -2.718  23.487  0.00  0.00    -0.283 OA
ATOM      9  C   UNL     1       8.539  -1.334  23.570  0.00  0.00    +0.109 A 
ATOM     10  C   UNL     1       9.203  -0.125  23.303  0.00  0.00    +0.135 A 
ATOM     11  C   UNL     1       8.496   1.073  23.191  0.00  0.00    +0.092 A 
ENDROOT
BRANCH   5  12
ATOM     12  C   UNL     1       6.162  -4.753  24.506  0.00  0.00    +0.025 A 
ATOM     13  C   UNL     1       5.358  -5.316  23.504  0.00  0.00    +0.015 A 
ATOM     14  C   UNL     1       4.539  -6.408  23.791  0.00  0.00    +0.050 A 
ATOM     15  C   UNL     1       4.530  -6.933  25.075  0.00  0.00    +0.158 A 
ATOM     16  C   UNL     1       5.300  -6.374  26.101  0.00  0.00    +0.162 A 
ATOM     17  C   UNL     1       6.115  -5.276  25.813  0.00  0.00    +0.061 A 
BRANCH  15  18
ATOM     18  O   UNL     1       3.749  -8.031  25.320  0.00  0.00    -0.503 OA
ATOM     19  H   UNL     1       4.235  -8.778  24.919  0.00  0.00    +0.292 HD
ENDBRANCH  15  18
BRANCH  16  20
ATOM     20  O   UNL     1       5.175  -7.007  27.312  0.00  0.00    -0.491 OA
ATOM     21  C   UNL     1       5.697  -6.336  28.451  0.00  0.00    +0.277 C 
ENDBRANCH  16  20
ENDBRANCH   5  12
BRANCH   1  23
ATOM     22  C   UNL     1       6.711   3.166  22.298  0.00  0.00    +0.277 C 
ATOM     23  O   UNL     1       6.325   2.197  23.271  0.00  0.00    -0.495 OA
ENDBRANCH   1  23
BRANCH   6  24
ATOM     24  O   UNL     1       8.965  -5.076  24.335  0.00  0.00    -0.488 OA
ATOM     25  C   UNL     1       9.722  -5.216  25.532  0.00  0.00    +0.277 C 
ENDBRANCH   6  24
BRANCH  10  26
ATOM     26  O   UNL     1      10.561  -0.088  23.154  0.00  0.00    -0.506 OA
ATOM     27  H   UNL     1      10.813   0.435  22.378  0.00  0.00    +0.292 HD
ENDBRANCH  10  26
TORSDOF 6
ENDMDL
MODEL 2
REMARK VINA RESULT:      -6.7      2.224      7.112
REMARK  Name = 
REMARK  9 active torsions:
REMARK  status: ('A' for Active; 'I' for Inactive)
REMARK    1  A    between atoms: C_1  and  O_2
REMARK    2  A    between atoms: O_2  and  C_3
REMARK    3  A    between atoms: C_5  and  O_25
REMARK    4  A    between atoms: C_10  and  C_16
REMARK    5  A    between atoms: C_11  and  O_14
REMARK    6  A    between atoms: O_14  and  C_15
REMARK    7  A    between atoms: C_18  and  O_23
REMARK    8  A    between atoms: C_19  and  O_22
REMARK    9  A    between atoms: O_23  and  C_24
REMARK                            x       y       z     vdW  Elec       q    Type
REMARK                         _______ _______ _______ _____ _____    ______ ____
ROOT
ATOM      1  C   UNL     1       5.317  -4.948  22.872  0.00  0.00    +0.127 A 
ATOM      2  C   UNL     1       5.353  -3.557  22.754  0.00  0.00    +0.092 A 
ATOM      3  C   UNL     1       6.526  -2.846  23.041  0.00  0.00    +0.147 A 
ATOM      4  O   UNL     1       6.460  -1.482  22.930  0.00  0.00    -0.451 OA
ATOM      5  C   UNL     1       7.611  -0.742  23.130  0.00  0.00    +0.181 A 
ATOM      6  C   UNL     1       8.811  -1.242  23.485  0.00  0.00    +0.211 A 
ATOM      7  C   UNL     1       8.891  -2.723  23.716  0.00  0.00    +0.238 A 
ATOM      8  O   UNL     1       9.913  -3.258  24.133  0.00  0.00    -0.283 OA
ATOM      9  C   UNL     1       7.678  -3.523  23.429  0.00  0.00    +0.109 A 
ATOM     10  C   UNL     1       7.642  -4.924  23.527  0.00  0.00    +0.135 A 
ATOM     11  C   UNL     1       6.471  -5.632  23.250  0.00  0.00    +0.092 A 
ENDROOT
BRANCH   5  12
ATOM     12  C   UNL     1       7.401   0.703  22.895  0.00  0.00    +0.025 A 
ATOM     13  C   UNL     1       8.090   1.341  21.854  0.00  0.00    +0.015 A 
ATOM     14  C   UNL     1       7.849   2.684  21.570  0.00  0.00    +0.050 A 
ATOM     15  C   UNL     1       6.919   3.384  22.326  0.00  0.00    +0.158 A 
ATOM     16  C   UNL     1       6.237   2.781  23.390  0.00  0.00    +0.162 A 
ATOM     17  C   UNL     1       6.485   1.436  23.675  0.00  0.00    +0.061 A 
BRANCH  15  18
ATOM     18  O   UNL     1       6.671   4.690  22.001  0.00  0.00    -0.503 OA
ATOM     19  H   UNL     1       6.820   4.740  21.036  0.00  0.00    +0.292 HD
ENDBRANCH  15  18
BRANCH  16  20
ATOM     20  O   UNL     1       5.356   3.609  24.039  0.00  0.00    -0.491 OA
ATOM     21  C   UNL     1       3.975   3.290  23.940  0.00  0.00    +0.277 C 
ENDBRANCH  16  20
ENDBRANCH   5  12
BRANCH   1  23
ATOM     22  C   UNL     1       3.041  -5.256  23.444  0.00  0.00    +0.277 C 
ATOM     23  O   UNL     1       4.125  -5.543  22.563  0.00  0.00    -0.495 OA
ENDBRANCH   1  23
BRANCH   6  24
ATOM     24  O   UNL     1       9.909  -0.397  23.597  0.00  0.00    -0.488 OA
ATOM     25  C   UNL     1      10.206   0.127  24.885  0.00  0.00    +0.277 C 
ENDBRANCH   6  24
BRANCH  10  26
ATOM     26  O   UNL     1       8.754  -5.632  23.886  0.00  0.00    -0.506 OA
ATOM     27  H   UNL     1       9.002  -6.266  23.196  0.00  0.00    +0.292 HD
ENDBRANCH  10  26
TORSDOF 6
ENDMDL
MODEL 3
REMARK VINA RESULT:      -6.7      1.773      7.108
REMARK  Name = 
REMARK  9 active torsions:
REMARK  status: ('A' for Active; 'I' for Inactive)
REMARK    1  A    between atoms: C_1  and  O_2
REMARK    2  A    between atoms: O_2  and  C_3
REMARK    3  A    between atoms: C_5  and  O_25
REMARK    4  A    between atoms: C_10  and  C_16
REMARK    5  A    between atoms: C_11  and  O_14
REMARK    6  A    between atoms: O_14  and  C_15
REMARK    7  A    between atoms: C_18  and  O_23
REMARK    8  A    between atoms: C_19  and  O_22
REMARK    9  A    between atoms: O_23  and  C_24
REMARK                            x       y       z     vdW  Elec       q    Type
REMARK                         _______ _______ _______ _____ _____    ______ ____
ROOT
ATOM      1  C   UNL     1       3.980  -5.810  23.393  0.00  0.00    +0.127 A 
ATOM      2  C   UNL     1       4.644  -4.650  22.988  0.00  0.00    +0.092 A 
ATOM      3  C   UNL     1       5.668  -4.103  23.773  0.00  0.00    +0.147 A 
ATOM      4  O   UNL     1       6.241  -2.946  23.315  0.00  0.00    -0.451 OA
ATOM      5  C   UNL     1       7.307  -2.409  24.014  0.00  0.00    +0.181 A 
ATOM      6  C   UNL     1       7.815  -2.898  25.163  0.00  0.00    +0.211 A 
ATOM      7  C   UNL     1       7.143  -4.107  25.746  0.00  0.00    +0.238 A 
ATOM      8  O   UNL     1       7.471  -4.568  26.833  0.00  0.00    -0.283 OA
ATOM      9  C   UNL     1       6.051  -4.724  24.957  0.00  0.00    +0.109 A 
ATOM     10  C   UNL     1       5.394  -5.902  25.349  0.00  0.00    +0.135 A 
ATOM     11  C   UNL     1       4.366  -6.442  24.573  0.00  0.00    +0.092 A 
ENDROOT
BRANCH   5  12
ATOM     12  C   UNL     1       7.869  -1.211  23.354  0.00  0.00    +0.025 A 
ATOM     13  C   UNL     1       8.942  -1.353  22.463  0.00  0.00    +0.015 A 
ATOM     14  C   UNL     1       9.437  -0.245  21.775  0.00  0.00    +0.050 A 
ATOM     15  C   UNL     1       8.855   0.998  21.979  0.00  0.00    +0.158 A 
ATOM     16  C   UNL     1       7.802   1.175  22.884  0.00  0.00    +0.162 A 
ATOM     17  C   UNL     1       7.312   0.064  23.576  0.00  0.00    +0.061 A 
BRANCH  15  18
ATOM     18  O   UNL     1       9.332   2.061  21.261  0.00  0.00    -0.503 OA
ATOM     19  H   UNL     1       8.534   2.512  20.920  0.00  0.00    +0.292 HD
ENDBRANCH  15  18
BRANCH  16  20
ATOM     20  O   UNL     1       7.342   2.465  22.973  0.00  0.00    -0.491 OA
ATOM     21  C   UNL     1       5.975   2.689  22.657  0.00  0.00    +0.277 C 
ENDBRANCH  16  20
ENDBRANCH   5  12
BRANCH   1  23
ATOM     22  C   UNL     1       1.664  -5.936  22.924  0.00  0.00    +0.277 C 
ATOM     23  O   UNL     1       3.001  -6.262  22.552  0.00  0.00    -0.495 OA
ENDBRANCH   1  23
BRANCH   6  24
ATOM     24  O   UNL     1       8.930  -2.300  25.738  0.00  0.00    -0.488 OA
ATOM     25  C   UNL     1       8.704  -1.319  26.743  0.00  0.00    +0.277 C 
ENDBRANCH   6  24
BRANCH  10  26
ATOM     26  O   UNL     1       5.747  -6.557  26.496  0.00  0.00    -0.506 OA
ATOM     27  H   UNL     1       6.542  -7.095  26.359  0.00  0.00    +0.292 HD
ENDBRANCH  10  26
TORSDOF 6
ENDMDL
MODEL 4
REMARK VINA RESULT:      -6.5      2.285      7.346
REMARK  Name = 
REMARK  9 active torsions:
REMARK  status: ('A' for Active; 'I' for Inactive)
REMARK    1  A    between atoms: C_1  and  O_2
REMARK    2  A    between atoms: O_2  and  C_3
REMARK    3  A    between atoms: C_5  and  O_25
REMARK    4  A    between atoms: C_10  and  C_16
REMARK    5  A    between atoms: C_11  and  O_14
REMARK    6  A    between atoms: O_14  and  C_15
REMARK    7  A    between atoms: C_18  and  O_23
REMARK    8  A    between atoms: C_19  and  O_22
REMARK    9  A    between atoms: O_23  and  C_24
REMARK                            x       y       z     vdW  Elec       q    Type
REMARK                         _______ _______ _______ _____ _____    ______ ____
ROOT
ATOM      1  C   UNL     1       6.089  -4.151  27.538  0.00  0.00    +0.127 A 
ATOM      2  C   UNL     1       6.284  -2.875  27.003  0.00  0.00    +0.092 A 
ATOM      3  C   UNL     1       7.339  -2.626  26.117  0.00  0.00    +0.147 A 
ATOM      4  O   UNL     1       7.474  -1.339  25.667  0.00  0.00    -0.451 OA
ATOM      5  C   UNL     1       8.454  -1.059  24.733  0.00  0.00    +0.181 A 
ATOM      6  C   UNL     1       9.348  -1.943  24.248  0.00  0.00    +0.211 A 
ATOM      7  C   UNL     1       9.294  -3.339  24.798  0.00  0.00    +0.238 A 
ATOM      8  O   UNL     1      10.123  -4.188  24.490  0.00  0.00    -0.283 OA
ATOM      9  C   UNL     1       8.197  -3.656  25.741  0.00  0.00    +0.109 A 
ATOM     10  C   UNL     1       7.985  -4.941  26.267  0.00  0.00    +0.135 A 
ATOM     11  C   UNL     1       6.938  -5.188  27.158  0.00  0.00    +0.092 A 
ENDROOT
BRANCH   5  12
ATOM     12  C   UNL     1       8.421   0.350  24.285  0.00  0.00    +0.025 A 
ATOM     13  C   UNL     1       9.428   1.231  24.706  0.00  0.00    +0.015 A 
ATOM     14  C   UNL     1       9.456   2.544  24.235  0.00  0.00    +0.050 A 
ATOM     15  C   UNL     1       8.480   2.968  23.344  0.00  0.00    +0.158 A 
ATOM     16  C   UNL     1       7.447   2.119  22.929  0.00  0.00    +0.162 A 
ATOM     17  C   UNL     1       7.419   0.806  23.408  0.00  0.00    +0.061 A 
BRANCH  15  18
ATOM     18  O   UNL     1       8.554   4.248  22.865  0.00  0.00    -0.503 OA
ATOM     19  H   UNL     1       9.005   4.167  22.002  0.00  0.00    +0.292 HD
ENDBRANCH  15  18
BRANCH  16  20
ATOM     20  O   UNL     1       6.562   2.692  22.051  0.00  0.00    -0.491 OA
ATOM     21  C   UNL     1       5.281   3.042  22.558  0.00  0.00    +0.277 C 
ENDBRANCH  16  20
ENDBRANCH   5  12
BRANCH   1  23
ATOM     22  C   UNL     1       5.190  -5.234  29.441  0.00  0.00    +0.277 C 
ATOM     23  O   UNL     1       5.027  -4.286  28.389  0.00  0.00    -0.495 OA
ENDBRANCH   1  23
BRANCH   6  24
ATOM     24  O   UNL     1      10.248  -1.551  23.263  0.00  0.00    -0.488 OA
ATOM     25  C   UNL     1       9.790  -1.555  21.917  0.00  0.00    +0.277 C 
ENDBRANCH   6  24
BRANCH  10  26
ATOM     26  O   UNL     1       8.790  -5.987  25.914  0.00  0.00    -0.506 OA
ATOM     27  H   UNL     1       8.596  -6.773  26.447  0.00  0.00    +0.292 HD
ENDBRANCH  10  26
TORSDOF 6
ENDMDL
MODEL 5
REMARK VINA RESULT:      -6.5      2.485      4.797
REMARK  Name = 
REMARK  9 active torsions:
REMARK  status: ('A' for Active; 'I' for Inactive)
REMARK    1  A    between atoms: C_1  and  O_2
REMARK    2  A    between atoms: O_2  and  C_3
REMARK    3  A    between atoms: C_5  and  O_25
REMARK    4  A    between atoms: C_10  and  C_16
REMARK    5  A    between atoms: C_11  and  O_14
REMARK    6  A    between atoms: O_14  and  C_15
REMARK    7  A    between atoms: C_18  and  O_23
REMARK    8  A    between atoms: C_19  and  O_22
REMARK    9  A    between atoms: O_23  and  C_24
REMARK                            x       y       z     vdW  Elec       q    Type
REMARK                         _______ _______ _______ _____ _____    ______ ____
ROOT
ATOM      1  C   UNL     1      10.608   3.344  23.582  0.00  0.00    +0.127 A 
ATOM      2  C   UNL     1      10.541   1.995  23.939  0.00  0.00    +0.092 A 
ATOM      3  C   UNL     1       9.303   1.374  24.151  0.00  0.00    +0.147 A 
ATOM      4  O   UNL     1       9.333   0.057  24.530  0.00  0.00    -0.451 OA
ATOM      5  C   UNL     1       8.137  -0.621  24.677  0.00  0.00    +0.181 A 
ATOM      6  C   UNL     1       6.910  -0.082  24.532  0.00  0.00    +0.211 A 
ATOM      7  C   UNL     1       6.841   1.384  24.217  0.00  0.00    +0.238 A 
ATOM      8  O   UNL     1       5.773   1.983  24.159  0.00  0.00    -0.283 OA
ATOM      9  C   UNL     1       8.122   2.090  23.986  0.00  0.00    +0.109 A 
ATOM     10  C   UNL     1       8.195   3.441  23.607  0.00  0.00    +0.135 A 
ATOM     11  C   UNL     1       9.428   4.064  23.406  0.00  0.00    +0.092 A 
ENDROOT
BRANCH   5  12
ATOM     12  C   UNL     1       8.334  -2.048  25.008  0.00  0.00    +0.025 A 
ATOM     13  C   UNL     1       8.478  -2.432  26.349  0.00  0.00    +0.015 A 
ATOM     14  C   UNL     1       8.590  -3.781  26.686  0.00  0.00    +0.050 A 
ATOM     15  C   UNL     1       8.555  -4.739  25.682  0.00  0.00    +0.158 A 
ATOM     16  C   UNL     1       8.440  -4.383  24.333  0.00  0.00    +0.162 A 
ATOM     17  C   UNL     1       8.335  -3.030  23.999  0.00  0.00    +0.061 A 
BRANCH  15  18
ATOM     18  O   UNL     1       8.625  -6.057  26.043  0.00  0.00    -0.503 OA
ATOM     19  H   UNL     1       9.453  -6.132  26.557  0.00  0.00    +0.292 HD
ENDBRANCH  15  18
BRANCH  16  20
ATOM     20  O   UNL     1       8.425  -5.446  23.467  0.00  0.00    -0.491 OA
ATOM     21  C   UNL     1       7.297  -5.568  22.610  0.00  0.00    +0.277 C 
ENDBRANCH  16  20
ENDBRANCH   5  12
BRANCH   1  23
ATOM     22  C   UNL     1      11.971   5.271  23.417  0.00  0.00    +0.277 C 
ATOM     23  O   UNL     1      11.865   3.850  23.395  0.00  0.00    -0.495 OA
ENDBRANCH   1  23
BRANCH   6  24
ATOM     24  O   UNL     1       5.782  -0.886  24.648  0.00  0.00    -0.488 OA
ATOM     25  C   UNL     1       5.114  -0.904  25.904  0.00  0.00    +0.277 C 
ENDBRANCH   6  24
BRANCH  10  26
ATOM     26  O   UNL     1       7.061   4.180  23.416  0.00  0.00    -0.506 OA
ATOM     27  H   UNL     1       6.337   3.629  23.083  0.00  0.00    +0.292 HD
ENDBRANCH  10  26
TORSDOF 6
ENDMDL
MODEL 6
REMARK VINA RESULT:      -6.5      2.002      6.878
REMARK  Name = 
REMARK  9 active torsions:
REMARK  status: ('A' for Active; 'I' for Inactive)
REMARK    1  A    between atoms: C_1  and  O_2
REMARK    2  A    between atoms: O_2  and  C_3
REMARK    3  A    between atoms: C_5  and  O_25
REMARK    4  A    between atoms: C_10  and  C_16
REMARK    5  A    between atoms: C_11  and  O_14
REMARK    6  A    between atoms: O_14  and  C_15
REMARK    7  A    between atoms: C_18  and  O_23
REMARK    8  A    between atoms: C_19  and  O_22
REMARK    9  A    between atoms: O_23  and  C_24
REMARK                            x       y       z     vdW  Elec       q    Type
REMARK                         _______ _______ _______ _____ _____    ______ ____
ROOT
ATOM      1  C   UNL     1       2.945  -5.896  24.990  0.00  0.00    +0.127 A 
ATOM      2  C   UNL     1       3.819  -4.962  24.428  0.00  0.00    +0.092 A 
ATOM      3  C   UNL     1       5.116  -4.803  24.935  0.00  0.00    +0.147 A 
ATOM      4  O   UNL     1       5.893  -3.842  24.344  0.00  0.00    -0.451 OA
ATOM      5  C   UNL     1       7.204  -3.699  24.759  0.00  0.00    +0.181 A 
ATOM      6  C   UNL     1       7.791  -4.396  25.752  0.00  0.00    +0.211 A 
ATOM      7  C   UNL     1       6.936  -5.385  26.489  0.00  0.00    +0.238 A 
ATOM      8  O   UNL     1       7.352  -5.997  27.466  0.00  0.00    -0.283 OA
ATOM      9  C   UNL     1       5.555  -5.591  25.994  0.00  0.00    +0.109 A 
ATOM     10  C   UNL     1       4.678  -6.542  26.543  0.00  0.00    +0.135 A 
ATOM     11  C   UNL     1       3.383  -6.694  26.044  0.00  0.00    +0.092 A 
ENDROOT
BRANCH   5  12
ATOM     12  C   UNL     1       7.937  -2.682  23.974  0.00  0.00    +0.025 A 
ATOM     13  C   UNL     1       8.119  -2.871  22.597  0.00  0.00    +0.015 A 
ATOM     14  C   UNL     1       8.741  -1.889  21.828  0.00  0.00    +0.050 A 
ATOM     15  C   UNL     1       9.176  -0.720  22.438  0.00  0.00    +0.158 A 
ATOM     16  C   UNL     1       9.033  -0.516  23.815  0.00  0.00    +0.162 A 
ATOM     17  C   UNL     1       8.414  -1.505  24.584  0.00  0.00    +0.061 A 
BRANCH  15  18
ATOM     18  O   UNL     1       9.746   0.245  21.654  0.00  0.00    -0.503 OA
ATOM     19  H   UNL     1       8.993   0.763  21.305  0.00  0.00    +0.292 HD
ENDBRANCH  15  18
BRANCH  16  20
ATOM     20  O   UNL     1       9.518   0.687  24.262  0.00  0.00    -0.491 OA
ATOM     21  C   UNL     1      10.837   0.698  24.792  0.00  0.00    +0.277 C 
ENDBRANCH  16  20
ENDBRANCH   5  12
BRANCH   1  23
ATOM     22  C   UNL     1       1.665  -5.800  23.002  0.00  0.00    +0.277 C 
ATOM     23  O   UNL     1       1.706  -5.974  24.416  0.00  0.00    -0.495 OA
ENDBRANCH   1  23
BRANCH   6  24
ATOM     24  O   UNL     1       9.139  -4.200  26.034  0.00  0.00    -0.488 OA
ATOM     25  C   UNL     1      10.064  -5.139  25.500  0.00  0.00    +0.277 C 
ENDBRANCH   6  24
BRANCH  10  26
ATOM     26  O   UNL     1       5.071  -7.350  27.572  0.00  0.00    -0.506 OA
ATOM     27  H   UNL     1       4.581  -7.146  28.383  0.00  0.00    +0.292 HD
ENDBRANCH  10  26
TORSDOF 6
ENDMDL
MODEL 7
REMARK VINA RESULT:      -6.4      2.507      3.626
REMARK  Name = 
REMARK  9 active torsions:
REMARK  status: ('A' for Active; 'I' for Inactive)
REMARK    1  A    between atoms: C_1  and  O_2
REMARK    2  A    between atoms: O_2  and  C_3
REMARK    3  A    between atoms: C_5  and  O_25
REMARK    4  A    between atoms: C_10  and  C_16
REMARK    5  A    between atoms: C_11  and  O_14
REMARK    6  A    between atoms: O_14  and  C_15
REMARK    7  A    between atoms: C_18  and  O_23
REMARK    8  A    between atoms: C_19  and  O_22
REMARK    9  A    between atoms: O_23  and  C_24
REMARK                            x       y       z     vdW  Elec       q    Type
REMARK                         _______ _______ _______ _____ _____    ______ ____
ROOT
ATOM      1  C   UNL     1       7.463   3.854  22.644  0.00  0.00    +0.127 A 
ATOM      2  C   UNL     1       6.830   2.609  22.629  0.00  0.00    +0.092 A 
ATOM      3  C   UNL     1       7.534   1.446  22.965  0.00  0.00    +0.147 A 
ATOM      4  O   UNL     1       6.842   0.266  22.891  0.00  0.00    -0.451 OA
ATOM      5  C   UNL     1       7.472  -0.901  23.286  0.00  0.00    +0.181 A 
ATOM      6  C   UNL     1       8.752  -0.998  23.696  0.00  0.00    +0.211 A 
ATOM      7  C   UNL     1       9.569   0.262  23.689  0.00  0.00    +0.238 A 
ATOM      8  O   UNL     1      10.766   0.257  23.954  0.00  0.00    -0.283 OA
ATOM      9  C   UNL     1       8.872   1.521  23.340  0.00  0.00    +0.109 A 
ATOM     10  C   UNL     1       9.499   2.778  23.372  0.00  0.00    +0.135 A 
ATOM     11  C   UNL     1       8.800   3.937  23.028  0.00  0.00    +0.092 A 
ENDROOT
BRANCH   5  12
ATOM     12  C   UNL     1       6.574  -2.074  23.228  0.00  0.00    +0.025 A 
ATOM     13  C   UNL     1       5.597  -2.245  24.218  0.00  0.00    +0.015 A 
ATOM     14  C   UNL     1       4.693  -3.305  24.139  0.00  0.00    +0.050 A 
ATOM     15  C   UNL     1       4.770  -4.186  23.070  0.00  0.00    +0.158 A 
ATOM     16  C   UNL     1       5.753  -4.057  22.082  0.00  0.00    +0.162 A 
ATOM     17  C   UNL     1       6.660  -2.997  22.168  0.00  0.00    +0.061 A 
BRANCH  15  18
ATOM     18  O   UNL     1       3.845  -5.193  22.994  0.00  0.00    -0.503 OA
ATOM     19  H   UNL     1       3.204  -4.894  22.320  0.00  0.00    +0.292 HD
ENDBRANCH  15  18
BRANCH  16  20
ATOM     20  O   UNL     1       5.695  -5.010  21.097  0.00  0.00    -0.491 OA
ATOM     21  C   UNL     1       6.698  -6.017  21.110  0.00  0.00    +0.277 C 
ENDBRANCH  16  20
ENDBRANCH   5  12
BRANCH   1  23
ATOM     22  C   UNL     1       7.376   6.148  22.068  0.00  0.00    +0.277 C 
ATOM     23  O   UNL     1       6.683   4.925  22.304  0.00  0.00    -0.495 OA
ENDBRANCH   1  23
BRANCH   6  24
ATOM     24  O   UNL     1       9.252  -2.223  24.125  0.00  0.00    -0.488 OA
ATOM     25  C   UNL     1       9.068  -2.564  25.494  0.00  0.00    +0.277 C 
ENDBRANCH   6  24
BRANCH  10  26
ATOM     26  O   UNL     1      10.806   2.903  23.750  0.00  0.00    -0.506 OA
ATOM     27  H   UNL     1      11.164   3.765  23.489  0.00  0.00    +0.292 HD
ENDBRANCH  10  26
TORSDOF 6
ENDMDL
MODEL 8
REMARK VINA RESULT:      -6.4      2.309      7.616
REMARK  Name = 
REMARK  9 active torsions:
REMARK  status: ('A' for Active; 'I' for Inactive)
REMARK    1  A    between atoms: C_1  and  O_2
REMARK    2  A    between atoms: O_2  and  C_3
REMARK    3  A    between atoms: C_5  and  O_25
REMARK    4  A    between atoms: C_10  and  C_16
REMARK    5  A    between atoms: C_11  and  O_14
REMARK    6  A    between atoms: O_14  and  C_15
REMARK    7  A    between atoms: C_18  and  O_23
REMARK    8  A    between atoms: C_19  and  O_22
REMARK    9  A    between atoms: O_23  and  C_24
REMARK                            x       y       z     vdW  Elec       q    Type
REMARK                         _______ _______ _______ _____ _____    ______ ____
ROOT
ATOM      1  C   UNL     1       7.129  -5.171  22.680  0.00  0.00    +0.127 A 
ATOM      2  C   UNL     1       7.666  -3.882  22.621  0.00  0.00    +0.092 A 
ATOM      3  C   UNL     1       7.645  -3.048  23.746  0.00  0.00    +0.147 A 
ATOM      4  O   UNL     1       8.164  -1.790  23.587  0.00  0.00    -0.451 OA
ATOM      5  C   UNL     1       8.235  -0.955  24.688  0.00  0.00    +0.181 A 
ATOM      6  C   UNL     1       7.782  -1.250  25.923  0.00  0.00    +0.211 A 
ATOM      7  C   UNL     1       7.114  -2.582  26.106  0.00  0.00    +0.238 A 
ATOM      8  O   UNL     1       6.587  -2.901  27.165  0.00  0.00    -0.283 OA
ATOM      9  C   UNL     1       7.107  -3.503  24.946  0.00  0.00    +0.109 A 
ATOM     10  C   UNL     1       6.587  -4.806  25.005  0.00  0.00    +0.135 A 
ATOM     11  C   UNL     1       6.598  -5.635  23.881  0.00  0.00    +0.092 A 
ENDROOT
BRANCH   5  12
ATOM     12  C   UNL     1       8.891   0.333  24.379  0.00  0.00    +0.025 A 
ATOM     13  C   UNL     1      10.291   0.418  24.399  0.00  0.00    +0.015 A 
ATOM     14  C   UNL     1      10.929   1.603  24.038  0.00  0.00    +0.050 A 
ATOM     15  C   UNL     1      10.166   2.698  23.655  0.00  0.00    +0.158 A 
ATOM     16  C   UNL     1       8.767   2.651  23.652  0.00  0.00    +0.162 A 
ATOM     17  C   UNL     1       8.131   1.463  24.021  0.00  0.00    +0.061 A 
BRANCH  15  18
ATOM     18  O   UNL     1      10.818   3.837  23.266  0.00  0.00    -0.503 OA
ATOM     19  H   UNL     1      10.255   4.220  22.565  0.00  0.00    +0.292 HD
ENDBRANCH  15  18
BRANCH  16  20
ATOM     20  O   UNL     1       8.163   3.816  23.253  0.00  0.00    -0.491 OA
ATOM     21  C   UNL     1       7.257   3.735  22.161  0.00  0.00    +0.277 C 
ENDBRANCH  16  20
ENDBRANCH   5  12
BRANCH   1  23
ATOM     22  C   UNL     1       6.076  -5.816  20.661  0.00  0.00    +0.277 C 
ATOM     23  O   UNL     1       7.205  -5.903  21.527  0.00  0.00    -0.495 OA
ENDBRANCH   1  23
BRANCH   6  24
ATOM     24  O   UNL     1       7.968  -0.346  26.963  0.00  0.00    -0.488 OA
ATOM     25  C   UNL     1       6.840   0.414  27.381  0.00  0.00    +0.277 C 
ENDBRANCH   6  24
BRANCH  10  26
ATOM     26  O   UNL     1       6.064  -5.302  26.166  0.00  0.00    -0.506 OA
ATOM     27  H   UNL     1       6.197  -4.685  26.901  0.00  0.00    +0.292 HD
ENDBRANCH  10  26
TORSDOF 6
ENDMDL
MODEL 9
REMARK VINA RESULT:      -6.3      2.024      2.583
REMARK  Name = 
REMARK  9 active torsions:
REMARK  status: ('A' for Active; 'I' for Inactive)
REMARK    1  A    between atoms: C_1  and  O_2
REMARK    2  A    between atoms: O_2  and  C_3
REMARK    3  A    between atoms: C_5  and  O_25
REMARK    4  A    between atoms: C_10  and  C_16
REMARK    5  A    between atoms: C_11  and  O_14
REMARK    6  A    between atoms: O_14  and  C_15
REMARK    7  A    between atoms: C_18  and  O_23
REMARK    8  A    between atoms: C_19  and  O_22
REMARK    9  A    between atoms: O_23  and  C_24
REMARK                            x       y       z     vdW  Elec       q    Type
REMARK                         _______ _______ _______ _____ _____    ______ ____
ROOT
ATOM      1  C   UNL     1       7.546   2.963  22.371  0.00  0.00    +0.127 A 
ATOM      2  C   UNL     1       6.916   1.720  22.273  0.00  0.00    +0.092 A 
ATOM      3  C   UNL     1       7.536   0.565  22.768  0.00  0.00    +0.147 A 
ATOM      4  O   UNL     1       6.859  -0.615  22.599  0.00  0.00    -0.451 OA
ATOM      5  C   UNL     1       7.394  -1.771  23.137  0.00  0.00    +0.181 A 
ATOM      6  C   UNL     1       8.574  -1.861  23.783  0.00  0.00    +0.211 A 
ATOM      7  C   UNL     1       9.388  -0.604  23.894  0.00  0.00    +0.238 A 
ATOM      8  O   UNL     1      10.514  -0.604  24.379  0.00  0.00    -0.283 OA
ATOM      9  C   UNL     1       8.780   0.646  23.384  0.00  0.00    +0.109 A 
ATOM     10  C   UNL     1       9.400   1.902  23.498  0.00  0.00    +0.135 A 
ATOM     11  C   UNL     1       8.788   3.052  22.996  0.00  0.00    +0.092 A 
ENDROOT
BRANCH   5  12
ATOM     12  C   UNL     1       6.513  -2.943  22.945  0.00  0.00    +0.025 A 
ATOM     13  C   UNL     1       6.842  -3.902  21.976  0.00  0.00    +0.015 A 
ATOM     14  C   UNL     1       6.064  -5.051  21.831  0.00  0.00    +0.050 A 
ATOM     15  C   UNL     1       4.964  -5.237  22.657  0.00  0.00    +0.158 A 
ATOM     16  C   UNL     1       4.596  -4.284  23.613  0.00  0.00    +0.162 A 
ATOM     17  C   UNL     1       5.374  -3.131  23.752  0.00  0.00    +0.061 A 
BRANCH  15  18
ATOM     18  O   UNL     1       4.243  -6.392  22.522  0.00  0.00    -0.503 OA
ATOM     19  H   UNL     1       3.608  -6.379  23.266  0.00  0.00    +0.292 HD
ENDBRANCH  15  18
BRANCH  16  20
ATOM     20  O   UNL     1       3.484  -4.616  24.345  0.00  0.00    -0.491 OA
ATOM     21  C   UNL     1       3.672  -4.872  25.730  0.00  0.00    +0.277 C 
ENDBRANCH  16  20
ENDBRANCH   5  12
BRANCH   1  23
ATOM     22  C   UNL     1       7.243   5.310  22.342  0.00  0.00    +0.277 C 
ATOM     23  O   UNL     1       6.853   4.026  21.861  0.00  0.00    -0.495 OA
ENDBRANCH   1  23
BRANCH   6  24
ATOM     24  O   UNL     1       8.974  -3.074  24.332  0.00  0.00    -0.488 OA
ATOM     25  C   UNL     1       8.701  -3.292  25.711  0.00  0.00    +0.277 C 
ENDBRANCH   6  24
BRANCH  10  26
ATOM     26  O   UNL     1      10.614   2.033  24.111  0.00  0.00    -0.506 OA
ATOM     27  H   UNL     1      10.516   2.388  25.008  0.00  0.00    +0.292 HD
ENDBRANCH  10  26
TORSDOF 6
ENDMDL
