MODEL 1
REMARK VINA RESULT:      -6.6      0.000      0.000
REMARK  Name = 
REMARK  23 active torsions:
REMARK  status: ('A' for Active; 'I' for Inactive)
REMARK    1  A    between atoms: C_1  and  C_2
REMARK    2  A    between atoms: C_3  and  O_63
REMARK    3  A    between atoms: C_5  and  O_62
REMARK    4  A    between atoms: C_6  and  O_47
REMARK    5  A    between atoms: C_8  and  O_11
REMARK    6  A    between atoms: O_11  and  C_12
REMARK    7  A    between atoms: C_13  and  C_39
REMARK    8  A    between atoms: C_17  and  O_24
REMARK    9  A    between atoms: C_19  and  O_23
REMARK   10  A    between atoms: O_24  and  C_25
REMARK   11  A    between atoms: C_27  and  O_38
REMARK   12  A    between atoms: C_28  and  O_37
REMARK   13  A    between atoms: C_30  and  O_36
REMARK   14  A    between atoms: C_32  and  C_34
REMARK   15  A    between atoms: C_34  and  O_35
REMARK   16  A    between atoms: C_41  and  O_46
REMARK   17  A    between atoms: C_42  and  O_45
REMARK   18  A    between atoms: O_47  and  C_48
REMARK   19  A    between atoms: C_50  and  O_61
REMARK   20  A    between atoms: C_51  and  O_60
REMARK   21  A    between atoms: C_53  and  O_59
REMARK   22  A    between atoms: C_55  and  C_57
REMARK   23  A    between atoms: C_57  and  O_58
REMARK                            x       y       z     vdW  Elec       q    Type
REMARK                         _______ _______ _______ _____ _____    ______ ____
ROOT
ATOM      1  C   UNL     1       5.374   1.731  26.114  0.00  0.00    +0.214 A 
ATOM      2  C   UNL     1       4.672   1.129  27.328  0.00  0.00    +0.238 A 
ATOM      3  O   UNL     1       4.248   1.833  28.238  0.00  0.00    -0.283 OA
ATOM      4  C   UNL     1       4.619  -0.348  27.451  0.00  0.00    +0.109 A 
ATOM      5  C   UNL     1       5.457  -1.059  26.615  0.00  0.00    +0.147 A 
ATOM      6  C   UNL     1       5.471  -2.463  26.621  0.00  0.00    +0.093 A 
ATOM      7  C   UNL     1       4.614  -3.180  27.455  0.00  0.00    +0.131 A 
ATOM      8  C   UNL     1       3.835  -2.474  28.369  0.00  0.00    +0.092 A 
ATOM      9  O   UNL     1       6.342  -0.464  25.776  0.00  0.00    -0.451 OA
ATOM     10  C   UNL     1       3.835  -1.068  28.365  0.00  0.00    +0.135 A 
ATOM     11  C   UNL     1       6.277   0.905  25.497  0.00  0.00    +0.181 A 
ENDROOT
BRANCH  11  12
ATOM     12  C   UNL     1       7.401   1.196  24.508  0.00  0.00    +0.025 A 
ATOM     13  C   UNL     1       7.202   0.780  23.157  0.00  0.00    +0.015 A 
ATOM     14  C   UNL     1       8.138   0.989  22.131  0.00  0.00    +0.050 A 
ATOM     15  C   UNL     1       9.311   1.650  22.423  0.00  0.00    +0.158 A 
ATOM     16  C   UNL     1       9.526   2.122  23.712  0.00  0.00    +0.159 A 
ATOM     17  C   UNL     1       8.584   1.911  24.745  0.00  0.00    +0.060 A 
BRANCH  16  18
ATOM     18  O   UNL     1      10.687   2.827  23.906  0.00  0.00    -0.503 OA
ATOM     19  H   UNL     1      11.276   2.665  23.152  0.00  0.00    +0.292 HD
ENDBRANCH  16  18
BRANCH  15  20
ATOM     20  O   UNL     1      10.221   1.859  21.427  0.00  0.00    -0.503 OA
ATOM     21  H   UNL     1      10.593   2.747  21.605  0.00  0.00    +0.292 HD
ENDBRANCH  15  20
ENDBRANCH  11  12
BRANCH  10  22
ATOM     22  O   UNL     1       3.022  -0.433  29.265  0.00  0.00    -0.506 OA
ATOM     23  H   UNL     1       2.153  -0.841  29.291  0.00  0.00    +0.292 HD
ENDBRANCH  10  22
BRANCH   7  24
ATOM     24  O   UNL     1       4.440  -4.549  27.434  0.00  0.00    -0.461 OA
BRANCH  24  25
ATOM     25  C   UNL     1       5.232  -5.238  26.440  0.00  0.00    +0.339 C 
ATOM     26  O   UNL     1       4.783  -4.939  25.115  0.00  0.00    -0.331 OA
ATOM     27  C   UNL     1       3.476  -5.464  24.814  0.00  0.00    +0.179 C 
ATOM     28  C   UNL     1       3.508  -7.001  24.870  0.00  0.00    +0.177 C 
ATOM     29  C   UNL     1       3.939  -7.445  26.276  0.00  0.00    +0.180 C 
ATOM     30  C   UNL     1       5.257  -6.769  26.678  0.00  0.00    +0.214 C 
BRANCH  30  31
ATOM     31  O   UNL     1       5.597  -7.101  28.028  0.00  0.00    -0.383 OA
ATOM     32  H   UNL     1       5.644  -8.075  28.079  0.00  0.00    +0.210 HD
ENDBRANCH  30  31
BRANCH  29  33
ATOM     33  O   UNL     1       2.918  -7.180  27.248  0.00  0.00    -0.386 OA
ATOM     34  H   UNL     1       3.256  -6.533  27.891  0.00  0.00    +0.210 HD
ENDBRANCH  29  33
BRANCH  28  35
ATOM     35  O   UNL     1       4.436  -7.493  23.895  0.00  0.00    -0.386 OA
ATOM     36  H   UNL     1       4.553  -8.450  24.024  0.00  0.00    +0.210 HD
ENDBRANCH  28  35
BRANCH  27  37
ATOM     37  C   UNL     1       3.052  -4.944  23.432  0.00  0.00    +0.190 C 
BRANCH  37  38
ATOM     38  O   UNL     1       4.157  -4.908  22.524  0.00  0.00    -0.392 OA
ATOM     39  H   UNL     1       4.270  -3.998  22.206  0.00  0.00    +0.210 HD
ENDBRANCH  37  38
ENDBRANCH  27  37
ENDBRANCH  24  25
ENDBRANCH   7  24
BRANCH   1  40
ATOM     40  O   UNL     1       5.189   3.080  25.789  0.00  0.00    -0.453 OA
BRANCH  40  44
ATOM     41  C   UNL     1       1.060   3.241  24.056  0.00  0.00    +0.041 C 
ATOM     42  C   UNL     1       2.379   3.458  23.301  0.00  0.00    +0.150 C 
ATOM     43  O   UNL     1       3.550   2.926  23.979  0.00  0.00    -0.334 OA
ATOM     44  C   UNL     1       3.939   3.589  25.196  0.00  0.00    +0.340 C 
ATOM     45  C   UNL     1       4.079   5.131  24.952  0.00  0.00    +0.221 C 
ATOM     46  C   UNL     1       2.848   5.722  24.237  0.00  0.00    +0.180 C 
ATOM     47  C   UNL     1       2.555   4.944  22.948  0.00  0.00    +0.174 C 
BRANCH  47  48
ATOM     48  O   UNL     1       3.619   5.107  21.996  0.00  0.00    -0.387 OA
ATOM     49  H   UNL     1       4.339   5.594  22.446  0.00  0.00    +0.210 HD
ENDBRANCH  47  48
BRANCH  46  50
ATOM     50  O   UNL     1       3.083   7.108  23.921  0.00  0.00    -0.386 OA
ATOM     51  H   UNL     1       2.195   7.471  23.713  0.00  0.00    +0.210 HD
ENDBRANCH  46  50
BRANCH  45  52
ATOM     52  O   UNL     1       5.175   5.548  24.100  0.00  0.00    -0.337 OA
BRANCH  52  53
ATOM     53  C   UNL     1       6.321   4.704  24.120  0.00  0.00    +0.282 C 
ATOM     54  O   UNL     1       7.388   5.217  24.906  0.00  0.00    -0.341 OA
ATOM     55  C   UNL     1       7.880   6.473  24.401  0.00  0.00    +0.178 C 
ATOM     56  C   UNL     1       8.486   6.342  22.986  0.00  0.00    +0.177 C 
ATOM     57  C   UNL     1       7.509   5.609  22.041  0.00  0.00    +0.179 C 
ATOM     58  C   UNL     1       6.842   4.391  22.703  0.00  0.00    +0.201 C 
BRANCH  58  59
ATOM     59  O   UNL     1       5.811   3.876  21.848  0.00  0.00    -0.384 OA
ATOM     60  H   UNL     1       6.081   2.954  21.652  0.00  0.00    +0.210 HD
ENDBRANCH  58  59
BRANCH  57  61
ATOM     61  O   UNL     1       6.489   6.495  21.555  0.00  0.00    -0.386 OA
ATOM     62  H   UNL     1       6.460   6.399  20.585  0.00  0.00    +0.210 HD
ENDBRANCH  57  61
BRANCH  56  63
ATOM     63  O   UNL     1       9.725   5.643  22.950  0.00  0.00    -0.386 OA
ATOM     64  H   UNL     1       9.736   5.090  22.152  0.00  0.00    +0.210 HD
ENDBRANCH  56  63
BRANCH  55  65
ATOM     65  C   UNL     1       8.728   7.108  25.514  0.00  0.00    +0.190 C 
BRANCH  65  66
ATOM     66  O   UNL     1      10.129   6.915  25.380  0.00  0.00    -0.392 OA
ATOM     67  H   UNL     1      10.554   7.784  25.487  0.00  0.00    +0.210 HD
ENDBRANCH  65  66
ENDBRANCH  55  65
ENDBRANCH  52  53
ENDBRANCH  45  52
ENDBRANCH  40  44
ENDBRANCH   1  40
TORSDOF 22
ENDMDL
MODEL 2
REMARK VINA RESULT:      -6.4      1.823      2.374
REMARK  Name = 
REMARK  23 active torsions:
REMARK  status: ('A' for Active; 'I' for Inactive)
REMARK    1  A    between atoms: C_1  and  C_2
REMARK    2  A    between atoms: C_3  and  O_63
REMARK    3  A    between atoms: C_5  and  O_62
REMARK    4  A    between atoms: C_6  and  O_47
REMARK    5  A    between atoms: C_8  and  O_11
REMARK    6  A    between atoms: O_11  and  C_12
REMARK    7  A    between atoms: C_13  and  C_39
REMARK    8  A    between atoms: C_17  and  O_24
REMARK    9  A    between atoms: C_19  and  O_23
REMARK   10  A    between atoms: O_24  and  C_25
REMARK   11  A    between atoms: C_27  and  O_38
REMARK   12  A    between atoms: C_28  and  O_37
REMARK   13  A    between atoms: C_30  and  O_36
REMARK   14  A    between atoms: C_32  and  C_34
REMARK   15  A    between atoms: C_34  and  O_35
REMARK   16  A    between atoms: C_41  and  O_46
REMARK   17  A    between atoms: C_42  and  O_45
REMARK   18  A    between atoms: O_47  and  C_48
REMARK   19  A    between atoms: C_50  and  O_61
REMARK   20  A    between atoms: C_51  and  O_60
REMARK   21  A    between atoms: C_53  and  O_59
REMARK   22  A    between atoms: C_55  and  C_57
REMARK   23  A    between atoms: C_57  and  O_58
REMARK                            x       y       z     vdW  Elec       q    Type
REMARK                         _______ _______ _______ _____ _____    ______ ____
ROOT
ATOM      1  C   UNL     1       5.704   0.519  25.891  0.00  0.00    +0.214 A 
ATOM      2  C   UNL     1       4.822   0.119  27.069  0.00  0.00    +0.238 A 
ATOM      3  O   UNL     1       4.734   0.820  28.072  0.00  0.00    -0.283 OA
ATOM      4  C   UNL     1       4.158  -1.206  27.034  0.00  0.00    +0.109 A 
ATOM      5  C   UNL     1       4.618  -2.093  26.083  0.00  0.00    +0.147 A 
ATOM      6  C   UNL     1       4.045  -3.366  25.936  0.00  0.00    +0.093 A 
ATOM      7  C   UNL     1       2.972  -3.760  26.734  0.00  0.00    +0.131 A 
ATOM      8  C   UNL     1       2.563  -2.911  27.760  0.00  0.00    +0.092 A 
ATOM      9  O   UNL     1       5.667  -1.820  25.265  0.00  0.00    -0.451 OA
ATOM     10  C   UNL     1       3.149  -1.642  27.908  0.00  0.00    +0.135 A 
ATOM     11  C   UNL     1       6.178  -0.525  25.139  0.00  0.00    +0.181 A 
ENDROOT
BRANCH  11  12
ATOM     12  C   UNL     1       7.315  -0.608  24.127  0.00  0.00    +0.025 A 
ATOM     13  C   UNL     1       8.092  -1.805  24.118  0.00  0.00    +0.015 A 
ATOM     14  C   UNL     1       9.162  -2.034  23.237  0.00  0.00    +0.050 A 
ATOM     15  C   UNL     1       9.479  -1.067  22.308  0.00  0.00    +0.158 A 
ATOM     16  C   UNL     1       8.716   0.092  22.242  0.00  0.00    +0.159 A 
ATOM     17  C   UNL     1       7.640   0.323  23.130  0.00  0.00    +0.060 A 
BRANCH  16  18
ATOM     18  O   UNL     1       9.054   0.975  21.248  0.00  0.00    -0.503 OA
ATOM     19  H   UNL     1       8.240   1.305  20.836  0.00  0.00    +0.292 HD
ENDBRANCH  16  18
BRANCH  15  20
ATOM     20  O   UNL     1      10.515  -1.289  21.448  0.00  0.00    -0.503 OA
ATOM     21  H   UNL     1      10.879  -2.161  21.709  0.00  0.00    +0.292 HD
ENDBRANCH  15  20
ENDBRANCH  11  12
BRANCH  10  22
ATOM     22  O   UNL     1       2.680  -0.842  28.915  0.00  0.00    -0.506 OA
ATOM     23  H   UNL     1       3.027   0.049  28.837  0.00  0.00    +0.292 HD
ENDBRANCH  10  22
BRANCH   7  24
ATOM     24  O   UNL     1       2.242  -4.920  26.575  0.00  0.00    -0.461 OA
BRANCH  24  25
ATOM     25  C   UNL     1       3.027  -6.073  26.190  0.00  0.00    +0.339 C 
ATOM     26  O   UNL     1       2.724  -6.488  24.854  0.00  0.00    -0.331 OA
ATOM     27  C   UNL     1       1.393  -7.017  24.699  0.00  0.00    +0.179 C 
ATOM     28  C   UNL     1       1.241  -8.295  25.542  0.00  0.00    +0.177 C 
ATOM     29  C   UNL     1       1.502  -7.960  27.018  0.00  0.00    +0.180 C 
ATOM     30  C   UNL     1       2.853  -7.250  27.182  0.00  0.00    +0.214 C 
BRANCH  30  31
ATOM     31  O   UNL     1       3.041  -6.843  28.542  0.00  0.00    -0.383 OA
ATOM     32  H   UNL     1       3.731  -7.422  28.920  0.00  0.00    +0.210 HD
ENDBRANCH  30  31
BRANCH  29  33
ATOM     33  O   UNL     1       0.444  -7.167  27.573  0.00  0.00    -0.386 OA
ATOM     34  H   UNL     1      -0.066  -7.714  28.196  0.00  0.00    +0.210 HD
ENDBRANCH  29  33
BRANCH  28  35
ATOM     35  O   UNL     1       2.181  -9.277  25.089  0.00  0.00    -0.386 OA
ATOM     36  H   UNL     1       2.460  -9.054  24.183  0.00  0.00    +0.210 HD
ENDBRANCH  28  35
BRANCH  27  37
ATOM     37  C   UNL     1       1.147  -7.276  23.205  0.00  0.00    +0.190 C 
BRANCH  37  38
ATOM     38  O   UNL     1       2.364  -7.583  22.518  0.00  0.00    -0.392 OA
ATOM     39  H   UNL     1       2.179  -7.646  21.568  0.00  0.00    +0.210 HD
ENDBRANCH  37  38
ENDBRANCH  27  37
ENDBRANCH  24  25
ENDBRANCH   7  24
BRANCH   1  40
ATOM     40  O   UNL     1       6.098   1.853  25.724  0.00  0.00    -0.453 OA
BRANCH  40  44
ATOM     41  C   UNL     1       2.558   3.816  23.802  0.00  0.00    +0.041 C 
ATOM     42  C   UNL     1       3.884   3.450  23.120  0.00  0.00    +0.150 C 
ATOM     43  O   UNL     1       4.666   2.453  23.832  0.00  0.00    -0.334 OA
ATOM     44  C   UNL     1       5.230   2.862  25.092  0.00  0.00    +0.340 C 
ATOM     45  C   UNL     1       6.037   4.195  24.917  0.00  0.00    +0.221 C 
ATOM     46  C   UNL     1       5.228   5.272  24.168  0.00  0.00    +0.180 C 
ATOM     47  C   UNL     1       4.706   4.718  22.836  0.00  0.00    +0.174 C 
BRANCH  47  48
ATOM     48  O   UNL     1       5.791   4.417  21.943  0.00  0.00    -0.387 OA
ATOM     49  H   UNL     1       5.571   4.812  21.075  0.00  0.00    +0.210 HD
ENDBRANCH  47  48
BRANCH  46  50
ATOM     50  O   UNL     1       6.059   6.423  23.919  0.00  0.00    -0.386 OA
ATOM     51  H   UNL     1       6.227   6.405  22.952  0.00  0.00    +0.210 HD
ENDBRANCH  46  50
BRANCH  45  52
ATOM     52  O   UNL     1       7.255   4.107  24.135  0.00  0.00    -0.337 OA
BRANCH  52  53
ATOM     53  C   UNL     1       8.454   3.956  24.887  0.00  0.00    +0.282 C 
ATOM     54  O   UNL     1       8.480   4.736  26.074  0.00  0.00    -0.341 OA
ATOM     55  C   UNL     1       8.407   6.148  25.799  0.00  0.00    +0.178 C 
ATOM     56  C   UNL     1       9.623   6.654  24.993  0.00  0.00    +0.177 C 
ATOM     57  C   UNL     1       9.858   5.769  23.749  0.00  0.00    +0.179 C 
ATOM     58  C   UNL     1       9.712   4.268  24.051  0.00  0.00    +0.201 C 
BRANCH  58  59
ATOM     59  O   UNL     1       9.748   3.520  22.827  0.00  0.00    -0.384 OA
ATOM     60  H   UNL     1      10.675   3.588  22.516  0.00  0.00    +0.210 HD
ENDBRANCH  58  59
BRANCH  57  61
ATOM     61  O   UNL     1       8.965   6.122  22.681  0.00  0.00    -0.386 OA
ATOM     62  H   UNL     1       8.254   6.666  23.067  0.00  0.00    +0.210 HD
ENDBRANCH  57  61
BRANCH  56  63
ATOM     63  O   UNL     1      10.837   6.684  25.735  0.00  0.00    -0.386 OA
ATOM     64  H   UNL     1      10.699   7.244  26.515  0.00  0.00    +0.210 HD
ENDBRANCH  56  63
BRANCH  55  65
ATOM     65  C   UNL     1       8.050   6.849  27.120  0.00  0.00    +0.190 C 
BRANCH  65  66
ATOM     66  O   UNL     1       9.066   6.807  28.111  0.00  0.00    -0.392 OA
ATOM     67  H   UNL     1       8.757   7.336  28.866  0.00  0.00    +0.210 HD
ENDBRANCH  65  66
ENDBRANCH  55  65
ENDBRANCH  52  53
ENDBRANCH  45  52
ENDBRANCH  40  44
ENDBRANCH   1  40
TORSDOF 22
ENDMDL
MODEL 3
REMARK VINA RESULT:      -6.4      1.789      2.224
REMARK  Name = 
REMARK  23 active torsions:
REMARK  status: ('A' for Active; 'I' for Inactive)
REMARK    1  A    between atoms: C_1  and  C_2
REMARK    2  A    between atoms: C_3  and  O_63
REMARK    3  A    between atoms: C_5  and  O_62
REMARK    4  A    between atoms: C_6  and  O_47
REMARK    5  A    between atoms: C_8  and  O_11
REMARK    6  A    between atoms: O_11  and  C_12
REMARK    7  A    between atoms: C_13  and  C_39
REMARK    8  A    between atoms: C_17  and  O_24
REMARK    9  A    between atoms: C_19  and  O_23
REMARK   10  A    between atoms: O_24  and  C_25
REMARK   11  A    between atoms: C_27  and  O_38
REMARK   12  A    between atoms: C_28  and  O_37
REMARK   13  A    between atoms: C_30  and  O_36
REMARK   14  A    between atoms: C_32  and  C_34
REMARK   15  A    between atoms: C_34  and  O_35
REMARK   16  A    between atoms: C_41  and  O_46
REMARK   17  A    between atoms: C_42  and  O_45
REMARK   18  A    between atoms: O_47  and  C_48
REMARK   19  A    between atoms: C_50  and  O_61
REMARK   20  A    between atoms: C_51  and  O_60
REMARK   21  A    between atoms: C_53  and  O_59
REMARK   22  A    between atoms: C_55  and  C_57
REMARK   23  A    between atoms: C_57  and  O_58
REMARK                            x       y       z     vdW  Elec       q    Type
REMARK                         _______ _______ _______ _____ _____    ______ ____
ROOT
ATOM      1  C   UNL     1       5.423   1.366  25.455  0.00  0.00    +0.214 A 
ATOM      2  C   UNL     1       4.711   1.324  26.804  0.00  0.00    +0.238 A 
ATOM      3  O   UNL     1       4.540   2.338  27.471  0.00  0.00    -0.283 OA
ATOM      4  C   UNL     1       4.331   0.003  27.358  0.00  0.00    +0.109 A 
ATOM      5  C   UNL     1       4.906  -1.099  26.758  0.00  0.00    +0.147 A 
ATOM      6  C   UNL     1       4.597  -2.402  27.178  0.00  0.00    +0.093 A 
ATOM      7  C   UNL     1       3.675  -2.621  28.200  0.00  0.00    +0.131 A 
ATOM      8  C   UNL     1       3.161  -1.516  28.877  0.00  0.00    +0.092 A 
ATOM      9  O   UNL     1       5.828  -1.002  25.766  0.00  0.00    -0.451 OA
ATOM     10  C   UNL     1       3.484  -0.213  28.457  0.00  0.00    +0.135 A 
ATOM     11  C   UNL     1       6.055   0.204  25.096  0.00  0.00    +0.181 A 
ENDROOT
BRANCH  11  12
ATOM     12  C   UNL     1       7.125  -0.082  24.048  0.00  0.00    +0.025 A 
ATOM     13  C   UNL     1       7.759  -1.360  24.097  0.00  0.00    +0.015 A 
ATOM     14  C   UNL     1       8.751  -1.774  23.193  0.00  0.00    +0.050 A 
ATOM     15  C   UNL     1       9.131  -0.918  22.182  0.00  0.00    +0.158 A 
ATOM     16  C   UNL     1       8.503   0.315  22.060  0.00  0.00    +0.159 A 
ATOM     17  C   UNL     1       7.506   0.732  22.971  0.00  0.00    +0.060 A 
BRANCH  16  18
ATOM     18  O   UNL     1       8.891   1.080  20.990  0.00  0.00    -0.503 OA
ATOM     19  H   UNL     1       9.698   1.564  21.231  0.00  0.00    +0.292 HD
ENDBRANCH  16  18
BRANCH  15  20
ATOM     20  O   UNL     1      10.091  -1.320  21.300  0.00  0.00    -0.503 OA
ATOM     21  H   UNL     1      10.645  -0.526  21.149  0.00  0.00    +0.292 HD
ENDBRANCH  15  20
ENDBRANCH  11  12
BRANCH  10  22
ATOM     22  O   UNL     1       2.920   0.829  29.142  0.00  0.00    -0.506 OA
ATOM     23  H   UNL     1       2.912   0.656  30.086  0.00  0.00    +0.292 HD
ENDBRANCH  10  22
BRANCH   7  24
ATOM     24  O   UNL     1       3.189  -3.853  28.588  0.00  0.00    -0.461 OA
BRANCH  24  25
ATOM     25  C   UNL     1       4.117  -4.646  29.363  0.00  0.00    +0.339 C 
ATOM     26  O   UNL     1       5.345  -4.852  28.657  0.00  0.00    -0.331 OA
ATOM     27  C   UNL     1       5.208  -5.683  27.488  0.00  0.00    +0.179 C 
ATOM     28  C   UNL     1       4.763  -7.095  27.905  0.00  0.00    +0.177 C 
ATOM     29  C   UNL     1       3.418  -7.003  28.642  0.00  0.00    +0.180 C 
ATOM     30  C   UNL     1       3.501  -5.999  29.798  0.00  0.00    +0.214 C 
BRANCH  30  31
ATOM     31  O   UNL     1       2.218  -5.837  30.412  0.00  0.00    -0.383 OA
ATOM     32  H   UNL     1       1.667  -6.591  30.126  0.00  0.00    +0.210 HD
ENDBRANCH  30  31
BRANCH  29  33
ATOM     33  O   UNL     1       2.351  -6.658  27.748  0.00  0.00    -0.386 OA
ATOM     34  H   UNL     1       1.890  -7.472  27.479  0.00  0.00    +0.210 HD
ENDBRANCH  29  33
BRANCH  28  35
ATOM     35  O   UNL     1       5.754  -7.672  28.764  0.00  0.00    -0.386 OA
ATOM     36  H   UNL     1       6.600  -7.211  28.624  0.00  0.00    +0.210 HD
ENDBRANCH  28  35
BRANCH  27  37
ATOM     37  C   UNL     1       6.552  -5.695  26.744  0.00  0.00    +0.190 C 
BRANCH  37  38
ATOM     38  O   UNL     1       7.655  -5.747  27.654  0.00  0.00    -0.392 OA
ATOM     39  H   UNL     1       8.439  -5.379  27.216  0.00  0.00    +0.210 HD
ENDBRANCH  37  38
ENDBRANCH  27  37
ENDBRANCH  24  25
ENDBRANCH   7  24
BRANCH   1  40
ATOM     40  O   UNL     1       5.527   2.571  24.749  0.00  0.00    -0.453 OA
BRANCH  40  44
ATOM     41  C   UNL     1       1.675   3.418  22.622  0.00  0.00    +0.041 C 
ATOM     42  C   UNL     1       3.075   3.887  22.202  0.00  0.00    +0.150 C 
ATOM     43  O   UNL     1       4.162   3.126  22.795  0.00  0.00    -0.334 OA
ATOM     44  C   UNL     1       4.350   3.279  24.214  0.00  0.00    +0.340 C 
ATOM     45  C   UNL     1       4.454   4.798  24.586  0.00  0.00    +0.221 C 
ATOM     46  C   UNL     1       3.309   5.628  23.973  0.00  0.00    +0.180 C 
ATOM     47  C   UNL     1       3.232   5.395  22.459  0.00  0.00    +0.174 C 
BRANCH  47  48
ATOM     48  O   UNL     1       4.410   5.891  21.801  0.00  0.00    -0.387 OA
ATOM     49  H   UNL     1       4.249   5.835  20.837  0.00  0.00    +0.210 HD
ENDBRANCH  47  48
BRANCH  46  50
ATOM     50  O   UNL     1       3.525   7.029  24.235  0.00  0.00    -0.386 OA
ATOM     51  H   UNL     1       3.269   7.149  25.175  0.00  0.00    +0.210 HD
ENDBRANCH  46  50
BRANCH  45  52
ATOM     52  O   UNL     1       5.639   5.492  24.120  0.00  0.00    -0.337 OA
BRANCH  52  53
ATOM     53  C   UNL     1       6.852   4.753  24.200  0.00  0.00    +0.282 C 
ATOM     54  O   UNL     1       7.737   5.227  25.205  0.00  0.00    -0.341 OA
ATOM     55  C   UNL     1       8.161   6.582  24.962  0.00  0.00    +0.178 C 
ATOM     56  C   UNL     1       8.972   6.719  23.654  0.00  0.00    +0.177 C 
ATOM     57  C   UNL     1       8.221   6.060  22.477  0.00  0.00    +0.179 C 
ATOM     58  C   UNL     1       7.598   4.704  22.852  0.00  0.00    +0.201 C 
BRANCH  58  59
ATOM     59  O   UNL     1       6.758   4.243  21.784  0.00  0.00    -0.384 OA
ATOM     60  H   UNL     1       6.668   5.011  21.182  0.00  0.00    +0.210 HD
ENDBRANCH  58  59
BRANCH  57  61
ATOM     61  O   UNL     1       7.192   6.922  21.966  0.00  0.00    -0.386 OA
ATOM     62  H   UNL     1       6.976   7.563  22.668  0.00  0.00    +0.210 HD
ENDBRANCH  57  61
BRANCH  56  63
ATOM     63  O   UNL     1      10.269   6.139  23.715  0.00  0.00    -0.386 OA
ATOM     64  H   UNL     1      10.530   5.888  22.814  0.00  0.00    +0.210 HD
ENDBRANCH  56  63
BRANCH  55  65
ATOM     65  C   UNL     1       8.772   7.107  26.271  0.00  0.00    +0.190 C 
BRANCH  65  66
ATOM     66  O   UNL     1      10.121   6.722  26.497  0.00  0.00    -0.392 OA
ATOM     67  H   UNL     1      10.126   6.113  27.255  0.00  0.00    +0.210 HD
ENDBRANCH  65  66
ENDBRANCH  55  65
ENDBRANCH  52  53
ENDBRANCH  45  52
ENDBRANCH  40  44
ENDBRANCH   1  40
TORSDOF 22
ENDMDL
MODEL 4
REMARK VINA RESULT:      -6.3      2.460     10.910
REMARK  Name = 
REMARK  23 active torsions:
REMARK  status: ('A' for Active; 'I' for Inactive)
REMARK    1  A    between atoms: C_1  and  C_2
REMARK    2  A    between atoms: C_3  and  O_63
REMARK    3  A    between atoms: C_5  and  O_62
REMARK    4  A    between atoms: C_6  and  O_47
REMARK    5  A    between atoms: C_8  and  O_11
REMARK    6  A    between atoms: O_11  and  C_12
REMARK    7  A    between atoms: C_13  and  C_39
REMARK    8  A    between atoms: C_17  and  O_24
REMARK    9  A    between atoms: C_19  and  O_23
REMARK   10  A    between atoms: O_24  and  C_25
REMARK   11  A    between atoms: C_27  and  O_38
REMARK   12  A    between atoms: C_28  and  O_37
REMARK   13  A    between atoms: C_30  and  O_36
REMARK   14  A    between atoms: C_32  and  C_34
REMARK   15  A    between atoms: C_34  and  O_35
REMARK   16  A    between atoms: C_41  and  O_46
REMARK   17  A    between atoms: C_42  and  O_45
REMARK   18  A    between atoms: O_47  and  C_48
REMARK   19  A    between atoms: C_50  and  O_61
REMARK   20  A    between atoms: C_51  and  O_60
REMARK   21  A    between atoms: C_53  and  O_59
REMARK   22  A    between atoms: C_55  and  C_57
REMARK   23  A    between atoms: C_57  and  O_58
REMARK                            x       y       z     vdW  Elec       q    Type
REMARK                         _______ _______ _______ _____ _____    ______ ____
ROOT
ATOM      1  C   UNL     1       3.994  -2.213  25.922  0.00  0.00    +0.214 A 
ATOM      2  C   UNL     1       3.458  -0.862  26.388  0.00  0.00    +0.238 A 
ATOM      3  O   UNL     1       2.302  -0.730  26.774  0.00  0.00    -0.283 OA
ATOM      4  C   UNL     1       4.332   0.327  26.249  0.00  0.00    +0.109 A 
ATOM      5  C   UNL     1       5.444   0.177  25.446  0.00  0.00    +0.147 A 
ATOM      6  C   UNL     1       6.359   1.225  25.265  0.00  0.00    +0.093 A 
ATOM      7  C   UNL     1       6.183   2.445  25.917  0.00  0.00    +0.131 A 
ATOM      8  C   UNL     1       5.016   2.640  26.653  0.00  0.00    +0.092 A 
ATOM      9  O   UNL     1       5.704  -0.960  24.751  0.00  0.00    -0.451 OA
ATOM     10  C   UNL     1       4.098   1.588  26.820  0.00  0.00    +0.135 A 
ATOM     11  C   UNL     1       5.017  -2.149  25.012  0.00  0.00    +0.181 A 
ENDROOT
BRANCH  11  12
ATOM     12  C   UNL     1       5.595  -3.196  24.066  0.00  0.00    +0.025 A 
ATOM     13  C   UNL     1       6.404  -4.221  24.644  0.00  0.00    +0.015 A 
ATOM     14  C   UNL     1       6.993  -5.259  23.905  0.00  0.00    +0.050 A 
ATOM     15  C   UNL     1       6.770  -5.321  22.546  0.00  0.00    +0.158 A 
ATOM     16  C   UNL     1       5.944  -4.377  21.947  0.00  0.00    +0.159 A 
ATOM     17  C   UNL     1       5.352  -3.331  22.691  0.00  0.00    +0.060 A 
BRANCH  16  18
ATOM     18  O   UNL     1       5.719  -4.546  20.604  0.00  0.00    -0.503 OA
ATOM     19  H   UNL     1       5.915  -3.711  20.150  0.00  0.00    +0.292 HD
ENDBRANCH  16  18
BRANCH  15  20
ATOM     20  O   UNL     1       7.337  -6.332  21.826  0.00  0.00    -0.503 OA
ATOM     21  H   UNL     1       7.219  -6.073  20.888  0.00  0.00    +0.292 HD
ENDBRANCH  15  20
ENDBRANCH  11  12
BRANCH  10  22
ATOM     22  O   UNL     1       2.988   1.834  27.582  0.00  0.00    -0.506 OA
ATOM     23  H   UNL     1       2.366   2.394  27.113  0.00  0.00    +0.292 HD
ENDBRANCH  10  22
BRANCH   7  24
ATOM     24  O   UNL     1       7.092   3.483  25.929  0.00  0.00    -0.461 OA
BRANCH  24  25
ATOM     25  C   UNL     1       7.138   4.253  24.705  0.00  0.00    +0.339 C 
ATOM     26  O   UNL     1       8.185   3.798  23.842  0.00  0.00    -0.331 OA
ATOM     27  C   UNL     1       9.508   4.048  24.354  0.00  0.00    +0.179 C 
ATOM     28  C   UNL     1       9.740   5.564  24.476  0.00  0.00    +0.177 C 
ATOM     29  C   UNL     1       8.691   6.161  25.425  0.00  0.00    +0.180 C 
ATOM     30  C   UNL     1       7.275   5.771  24.981  0.00  0.00    +0.214 C 
BRANCH  30  31
ATOM     31  O   UNL     1       6.308   6.238  25.929  0.00  0.00    -0.383 OA
ATOM     32  H   UNL     1       6.773   6.849  26.532  0.00  0.00    +0.210 HD
ENDBRANCH  30  31
BRANCH  29  33
ATOM     33  O   UNL     1       8.922   5.763  26.783  0.00  0.00    -0.386 OA
ATOM     34  H   UNL     1       8.433   4.939  26.957  0.00  0.00    +0.210 HD
ENDBRANCH  29  33
BRANCH  28  35
ATOM     35  O   UNL     1       9.629   6.167  23.180  0.00  0.00    -0.386 OA
ATOM     36  H   UNL     1      10.109   5.619  22.534  0.00  0.00    +0.210 HD
ENDBRANCH  28  35
BRANCH  27  37
ATOM     37  C   UNL     1      10.524   3.379  23.416  0.00  0.00    +0.190 C 
BRANCH  37  38
ATOM     38  O   UNL     1      11.579   4.279  23.061  0.00  0.00    -0.392 OA
ATOM     39  H   UNL     1      12.399   3.982  23.486  0.00  0.00    +0.210 HD
ENDBRANCH  37  38
ENDBRANCH  27  37
ENDBRANCH  24  25
ENDBRANCH   7  24
BRANCH   1  40
ATOM     40  O   UNL     1       3.352  -3.397  26.305  0.00  0.00    -0.453 OA
BRANCH  40  44
ATOM     41  C   UNL     1       5.660  -4.792  29.884  0.00  0.00    +0.041 C 
ATOM     42  C   UNL     1       5.620  -5.461  28.503  0.00  0.00    +0.150 C 
ATOM     43  O   UNL     1       5.169  -4.589  27.430  0.00  0.00    -0.334 OA
ATOM     44  C   UNL     1       3.786  -4.193  27.468  0.00  0.00    +0.340 C 
ATOM     45  C   UNL     1       2.864  -5.454  27.597  0.00  0.00    +0.221 C 
ATOM     46  C   UNL     1       3.318  -6.394  28.732  0.00  0.00    +0.180 C 
ATOM     47  C   UNL     1       4.798  -6.759  28.562  0.00  0.00    +0.174 C 
BRANCH  47  48
ATOM     48  O   UNL     1       5.005  -7.533  27.369  0.00  0.00    -0.387 OA
ATOM     49  H   UNL     1       5.152  -8.460  27.646  0.00  0.00    +0.210 HD
ENDBRANCH  47  48
BRANCH  46  50
ATOM     50  O   UNL     1       2.521  -7.595  28.721  0.00  0.00    -0.386 OA
ATOM     51  H   UNL     1       2.651  -7.989  29.611  0.00  0.00    +0.210 HD
ENDBRANCH  46  50
BRANCH  45  52
ATOM     52  O   UNL     1       2.822  -6.337  26.447  0.00  0.00    -0.337 OA
BRANCH  52  53
ATOM     53  C   UNL     1       1.592  -6.350  25.731  0.00  0.00    +0.282 C 
ATOM     54  O   UNL     1       0.797  -7.498  25.993  0.00  0.00    -0.341 OA
ATOM     55  C   UNL     1       1.454  -8.717  25.595  0.00  0.00    +0.178 C 
ATOM     56  C   UNL     1       1.710  -8.777  24.073  0.00  0.00    +0.177 C 
ATOM     57  C   UNL     1       2.401  -7.486  23.585  0.00  0.00    +0.179 C 
ATOM     58  C   UNL     1       1.799  -6.216  24.210  0.00  0.00    +0.201 C 
BRANCH  58  59
ATOM     59  O   UNL     1       2.605  -5.078  23.871  0.00  0.00    -0.384 OA
ATOM     60  H   UNL     1       3.517  -5.327  24.131  0.00  0.00    +0.210 HD
ENDBRANCH  58  59
BRANCH  57  61
ATOM     61  O   UNL     1       3.812  -7.516  23.854  0.00  0.00    -0.386 OA
ATOM     62  H   UNL     1       4.085  -6.605  24.070  0.00  0.00    +0.210 HD
ENDBRANCH  57  61
BRANCH  56  63
ATOM     63  O   UNL     1       0.531  -8.953  23.296  0.00  0.00    -0.386 OA
ATOM     64  H   UNL     1       0.494  -9.879  23.008  0.00  0.00    +0.210 HD
ENDBRANCH  56  63
BRANCH  55  65
ATOM     65  C   UNL     1       0.703  -9.877  26.267  0.00  0.00    +0.190 C 
BRANCH  65  66
ATOM     66  O   UNL     1       0.876  -9.964  27.674  0.00  0.00    -0.392 OA
ATOM     67  H   UNL     1       0.196 -10.572  28.013  0.00  0.00    +0.210 HD
ENDBRANCH  65  66
ENDBRANCH  55  65
ENDBRANCH  52  53
ENDBRANCH  45  52
ENDBRANCH  40  44
ENDBRANCH   1  40
TORSDOF 22
ENDMDL
MODEL 5
REMARK VINA RESULT:      -6.3      1.628      2.624
REMARK  Name = 
REMARK  23 active torsions:
REMARK  status: ('A' for Active; 'I' for Inactive)
REMARK    1  A    between atoms: C_1  and  C_2
REMARK    2  A    between atoms: C_3  and  O_63
REMARK    3  A    between atoms: C_5  and  O_62
REMARK    4  A    between atoms: C_6  and  O_47
REMARK    5  A    between atoms: C_8  and  O_11
REMARK    6  A    between atoms: O_11  and  C_12
REMARK    7  A    between atoms: C_13  and  C_39
REMARK    8  A    between atoms: C_17  and  O_24
REMARK    9  A    between atoms: C_19  and  O_23
REMARK   10  A    between atoms: O_24  and  C_25
REMARK   11  A    between atoms: C_27  and  O_38
REMARK   12  A    between atoms: C_28  and  O_37
REMARK   13  A    between atoms: C_30  and  O_36
REMARK   14  A    between atoms: C_32  and  C_34
REMARK   15  A    between atoms: C_34  and  O_35
REMARK   16  A    between atoms: C_41  and  O_46
REMARK   17  A    between atoms: C_42  and  O_45
REMARK   18  A    between atoms: O_47  and  C_48
REMARK   19  A    between atoms: C_50  and  O_61
REMARK   20  A    between atoms: C_51  and  O_60
REMARK   21  A    between atoms: C_53  and  O_59
REMARK   22  A    between atoms: C_55  and  C_57
REMARK   23  A    between atoms: C_57  and  O_58
REMARK                            x       y       z     vdW  Elec       q    Type
REMARK                         _______ _______ _______ _____ _____    ______ ____
ROOT
ATOM      1  C   UNL     1       5.785   1.125  26.203  0.00  0.00    +0.214 A 
ATOM      2  C   UNL     1       5.030   0.286  27.229  0.00  0.00    +0.238 A 
ATOM      3  O   UNL     1       4.755   0.726  28.340  0.00  0.00    -0.283 OA
ATOM      4  C   UNL     1       4.735  -1.130  26.901  0.00  0.00    +0.109 A 
ATOM      5  C   UNL     1       5.418  -1.662  25.826  0.00  0.00    +0.147 A 
ATOM      6  C   UNL     1       5.198  -2.982  25.404  0.00  0.00    +0.093 A 
ATOM      7  C   UNL     1       4.259  -3.788  26.047  0.00  0.00    +0.131 A 
ATOM      8  C   UNL     1       3.635  -3.294  27.191  0.00  0.00    +0.092 A 
ATOM      9  O   UNL     1       6.365  -0.973  25.139  0.00  0.00    -0.451 OA
ATOM     10  C   UNL     1       3.869  -1.974  27.614  0.00  0.00    +0.135 A 
ATOM     11  C   UNL     1       6.520   0.408  25.294  0.00  0.00    +0.181 A 
ENDROOT
BRANCH  11  12
ATOM     12  C   UNL     1       7.647   0.822  24.354  0.00  0.00    +0.025 A 
ATOM     13  C   UNL     1       7.276   1.272  23.051  0.00  0.00    +0.015 A 
ATOM     14  C   UNL     1       8.197   1.698  22.081  0.00  0.00    +0.050 A 
ATOM     15  C   UNL     1       9.539   1.709  22.395  0.00  0.00    +0.158 A 
ATOM     16  C   UNL     1       9.944   1.332  23.669  0.00  0.00    +0.159 A 
ATOM     17  C   UNL     1       9.017   0.902  24.645  0.00  0.00    +0.060 A 
BRANCH  16  18
ATOM     18  O   UNL     1      11.289   1.433  23.923  0.00  0.00    -0.503 OA
ATOM     19  H   UNL     1      11.535   0.751  24.567  0.00  0.00    +0.292 HD
ENDBRANCH  16  18
BRANCH  15  20
ATOM     20  O   UNL     1      10.435   2.127  21.455  0.00  0.00    -0.503 OA
ATOM     21  H   UNL     1      11.134   1.440  21.448  0.00  0.00    +0.292 HD
ENDBRANCH  15  20
ENDBRANCH  11  12
BRANCH  10  22
ATOM     22  O   UNL     1       3.199  -1.539  28.725  0.00  0.00    -0.506 OA
ATOM     23  H   UNL     1       3.036  -0.594  28.680  0.00  0.00    +0.292 HD
ENDBRANCH  10  22
BRANCH   7  24
ATOM     24  O   UNL     1       3.859  -5.040  25.625  0.00  0.00    -0.461 OA
BRANCH  24  25
ATOM     25  C   UNL     1       2.569  -5.068  24.973  0.00  0.00    +0.339 C 
ATOM     26  O   UNL     1       1.605  -5.784  25.752  0.00  0.00    -0.331 OA
ATOM     27  C   UNL     1       1.875  -7.195  25.853  0.00  0.00    +0.179 C 
ATOM     28  C   UNL     1       1.798  -7.840  24.458  0.00  0.00    +0.177 C 
ATOM     29  C   UNL     1       2.831  -7.175  23.536  0.00  0.00    +0.180 C 
ATOM     30  C   UNL     1       2.657  -5.650  23.540  0.00  0.00    +0.214 C 
BRANCH  30  31
ATOM     31  O   UNL     1       3.689  -5.029  22.766  0.00  0.00    -0.383 OA
ATOM     32  H   UNL     1       4.036  -4.286  23.297  0.00  0.00    +0.210 HD
ENDBRANCH  30  31
BRANCH  29  33
ATOM     33  O   UNL     1       4.170  -7.532  23.903  0.00  0.00    -0.386 OA
ATOM     34  H   UNL     1       4.764  -7.332  23.158  0.00  0.00    +0.210 HD
ENDBRANCH  29  33
BRANCH  28  35
ATOM     35  O   UNL     1       0.479  -7.662  23.926  0.00  0.00    -0.386 OA
ATOM     36  H   UNL     1       0.444  -8.045  23.032  0.00  0.00    +0.210 HD
ENDBRANCH  28  35
BRANCH  27  37
ATOM     37  C   UNL     1       0.866  -7.812  26.833  0.00  0.00    +0.190 C 
BRANCH  37  38
ATOM     38  O   UNL     1       0.543  -9.159  26.473  0.00  0.00    -0.392 OA
ATOM     39  H   UNL     1      -0.379  -9.190  26.174  0.00  0.00    +0.210 HD
ENDBRANCH  37  38
ENDBRANCH  27  37
ENDBRANCH  24  25
ENDBRANCH   7  24
BRANCH   1  40
ATOM     40  O   UNL     1       5.819   2.520  26.318  0.00  0.00    -0.453 OA
BRANCH  40  44
ATOM     41  C   UNL     1       2.262   4.060  24.069  0.00  0.00    +0.041 C 
ATOM     42  C   UNL     1       3.624   3.673  23.475  0.00  0.00    +0.150 C 
ATOM     43  O   UNL     1       4.424   2.810  24.328  0.00  0.00    -0.334 OA
ATOM     44  C   UNL     1       4.928   3.401  25.540  0.00  0.00    +0.340 C 
ATOM     45  C   UNL     1       5.683   4.737  25.219  0.00  0.00    +0.221 C 
ATOM     46  C   UNL     1       4.853   5.673  24.318  0.00  0.00    +0.180 C 
ATOM     47  C   UNL     1       4.399   4.932  23.054  0.00  0.00    +0.174 C 
BRANCH  47  48
ATOM     48  O   UNL     1       5.525   4.572  22.236  0.00  0.00    -0.387 OA
ATOM     49  H   UNL     1       5.282   4.765  21.307  0.00  0.00    +0.210 HD
ENDBRANCH  47  48
BRANCH  46  50
ATOM     50  O   UNL     1       5.642   6.821  23.947  0.00  0.00    -0.386 OA
ATOM     51  H   UNL     1       5.046   7.588  24.087  0.00  0.00    +0.210 HD
ENDBRANCH  46  50
BRANCH  45  52
ATOM     52  O   UNL     1       6.929   4.608  24.488  0.00  0.00    -0.337 OA
BRANCH  52  53
ATOM     53  C   UNL     1       8.084   4.375  25.285  0.00  0.00    +0.282 C 
ATOM     54  O   UNL     1       7.935   4.792  26.635  0.00  0.00    -0.341 OA
ATOM     55  C   UNL     1       7.707   6.211  26.744  0.00  0.00    +0.178 C 
ATOM     56  C   UNL     1       8.904   7.040  26.226  0.00  0.00    +0.177 C 
ATOM     57  C   UNL     1       9.328   6.563  24.820  0.00  0.00    +0.179 C 
ATOM     58  C   UNL     1       9.347   5.031  24.691  0.00  0.00    +0.201 C 
BRANCH  58  59
ATOM     59  O   UNL     1       9.556   4.660  23.320  0.00  0.00    -0.384 OA
ATOM     60  H   UNL     1       8.902   3.950  23.147  0.00  0.00    +0.210 HD
ENDBRANCH  58  59
BRANCH  57  61
ATOM     61  O   UNL     1       8.472   7.108  23.803  0.00  0.00    -0.386 OA
ATOM     62  H   UNL     1       8.822   7.987  23.571  0.00  0.00    +0.210 HD
ENDBRANCH  57  61
BRANCH  56  63
ATOM     63  O   UNL     1      10.052   6.982  27.064  0.00  0.00    -0.386 OA
ATOM     64  H   UNL     1      10.611   7.750  26.862  0.00  0.00    +0.210 HD
ENDBRANCH  56  63
BRANCH  55  65
ATOM     65  C   UNL     1       7.180   6.477  28.162  0.00  0.00    +0.190 C 
BRANCH  65  66
ATOM     66  O   UNL     1       7.963   5.915  29.206  0.00  0.00    -0.392 OA
ATOM     67  H   UNL     1       7.367   5.390  29.766  0.00  0.00    +0.210 HD
ENDBRANCH  65  66
ENDBRANCH  55  65
ENDBRANCH  52  53
ENDBRANCH  45  52
ENDBRANCH  40  44
ENDBRANCH   1  40
TORSDOF 22
ENDMDL
MODEL 6
REMARK VINA RESULT:      -6.1      2.229      5.718
REMARK  Name = 
REMARK  23 active torsions:
REMARK  status: ('A' for Active; 'I' for Inactive)
REMARK    1  A    between atoms: C_1  and  C_2
REMARK    2  A    between atoms: C_3  and  O_63
REMARK    3  A    between atoms: C_5  and  O_62
REMARK    4  A    between atoms: C_6  and  O_47
REMARK    5  A    between atoms: C_8  and  O_11
REMARK    6  A    between atoms: O_11  and  C_12
REMARK    7  A    between atoms: C_13  and  C_39
REMARK    8  A    between atoms: C_17  and  O_24
REMARK    9  A    between atoms: C_19  and  O_23
REMARK   10  A    between atoms: O_24  and  C_25
REMARK   11  A    between atoms: C_27  and  O_38
REMARK   12  A    between atoms: C_28  and  O_37
REMARK   13  A    between atoms: C_30  and  O_36
REMARK   14  A    between atoms: C_32  and  C_34
REMARK   15  A    between atoms: C_34  and  O_35
REMARK   16  A    between atoms: C_41  and  O_46
REMARK   17  A    between atoms: C_42  and  O_45
REMARK   18  A    between atoms: O_47  and  C_48
REMARK   19  A    between atoms: C_50  and  O_61
REMARK   20  A    between atoms: C_51  and  O_60
REMARK   21  A    between atoms: C_53  and  O_59
REMARK   22  A    between atoms: C_55  and  C_57
REMARK   23  A    between atoms: C_57  and  O_58
REMARK                            x       y       z     vdW  Elec       q    Type
REMARK                         _______ _______ _______ _____ _____    ______ ____
ROOT
ATOM      1  C   UNL     1       8.131   1.720  24.622  0.00  0.00    +0.214 A 
ATOM      2  C   UNL     1       8.878   0.389  24.615  0.00  0.00    +0.238 A 
ATOM      3  O   UNL     1      10.092   0.335  24.777  0.00  0.00    -0.283 OA
ATOM      4  C   UNL     1       8.120  -0.842  24.285  0.00  0.00    +0.109 A 
ATOM      5  C   UNL     1       6.872  -0.658  23.726  0.00  0.00    +0.147 A 
ATOM      6  C   UNL     1       6.052  -1.749  23.400  0.00  0.00    +0.093 A 
ATOM      7  C   UNL     1       6.467  -3.055  23.659  0.00  0.00    +0.131 A 
ATOM      8  C   UNL     1       7.762  -3.256  24.134  0.00  0.00    +0.092 A 
ATOM      9  O   UNL     1       6.375   0.567  23.416  0.00  0.00    -0.451 OA
ATOM     10  C   UNL     1       8.582  -2.157  24.447  0.00  0.00    +0.135 A 
ATOM     11  C   UNL     1       6.972   1.739  23.890  0.00  0.00    +0.181 A 
ENDROOT
BRANCH  11  12
ATOM     12  C   UNL     1       6.128   2.894  23.363  0.00  0.00    +0.025 A 
ATOM     13  C   UNL     1       4.727   2.854  23.633  0.00  0.00    +0.015 A 
ATOM     14  C   UNL     1       3.825   3.850  23.225  0.00  0.00    +0.050 A 
ATOM     15  C   UNL     1       4.306   4.946  22.542  0.00  0.00    +0.158 A 
ATOM     16  C   UNL     1       5.671   5.057  22.304  0.00  0.00    +0.159 A 
ATOM     17  C   UNL     1       6.578   4.054  22.714  0.00  0.00    +0.060 A 
BRANCH  16  18
ATOM     18  O   UNL     1       6.077   6.208  21.678  0.00  0.00    -0.503 OA
ATOM     19  H   UNL     1       6.994   6.093  21.383  0.00  0.00    +0.292 HD
ENDBRANCH  16  18
BRANCH  15  20
ATOM     20  O   UNL     1       3.432   5.918  22.149  0.00  0.00    -0.503 OA
ATOM     21  H   UNL     1       2.751   5.947  22.852  0.00  0.00    +0.292 HD
ENDBRANCH  15  20
ENDBRANCH  11  12
BRANCH  10  22
ATOM     22  O   UNL     1       9.831  -2.422  24.941  0.00  0.00    -0.506 OA
ATOM     23  H   UNL     1      10.025  -1.868  25.700  0.00  0.00    +0.292 HD
ENDBRANCH  10  22
BRANCH   7  24
ATOM     24  O   UNL     1       5.687  -4.184  23.519  0.00  0.00    -0.461 OA
BRANCH  24  25
ATOM     25  C   UNL     1       4.597  -4.281  24.465  0.00  0.00    +0.339 C 
ATOM     26  O   UNL     1       5.080  -4.391  25.807  0.00  0.00    -0.331 OA
ATOM     27  C   UNL     1       5.766  -5.628  26.076  0.00  0.00    +0.179 C 
ATOM     28  C   UNL     1       4.791  -6.808  25.920  0.00  0.00    +0.177 C 
ATOM     29  C   UNL     1       4.237  -6.818  24.487  0.00  0.00    +0.180 C 
ATOM     30  C   UNL     1       3.640  -5.451  24.128  0.00  0.00    +0.214 C 
BRANCH  30  31
ATOM     31  O   UNL     1       3.224  -5.434  22.758  0.00  0.00    -0.383 OA
ATOM     32  H   UNL     1       2.553  -4.729  22.673  0.00  0.00    +0.210 HD
ENDBRANCH  30  31
BRANCH  29  33
ATOM     33  O   UNL     1       5.242  -7.197  23.537  0.00  0.00    -0.386 OA
ATOM     34  H   UNL     1       4.811  -7.409  22.691  0.00  0.00    +0.210 HD
ENDBRANCH  29  33
BRANCH  28  35
ATOM     35  O   UNL     1       3.719  -6.665  26.860  0.00  0.00    -0.386 OA
ATOM     36  H   UNL     1       2.871  -6.736  26.386  0.00  0.00    +0.210 HD
ENDBRANCH  28  35
BRANCH  27  37
ATOM     37  C   UNL     1       6.363  -5.553  27.490  0.00  0.00    +0.190 C 
BRANCH  37  38
ATOM     38  O   UNL     1       7.729  -5.979  27.505  0.00  0.00    -0.392 OA
ATOM     39  H   UNL     1       8.092  -5.832  28.393  0.00  0.00    +0.210 HD
ENDBRANCH  37  38
ENDBRANCH  27  37
ENDBRANCH  24  25
ENDBRANCH   7  24
BRANCH   1  40
ATOM     40  O   UNL     1       8.706   2.849  25.217  0.00  0.00    -0.453 OA
BRANCH  40  44
ATOM     41  C   UNL     1       7.328   7.108  25.002  0.00  0.00    +0.041 C 
ATOM     42  C   UNL     1       8.051   6.438  26.179  0.00  0.00    +0.150 C 
ATOM     43  O   UNL     1       8.760   5.218  25.828  0.00  0.00    -0.334 OA
ATOM     44  C   UNL     1       7.946   4.089  25.462  0.00  0.00    +0.340 C 
ATOM     45  C   UNL     1       6.867   3.818  26.567  0.00  0.00    +0.221 C 
ATOM     46  C   UNL     1       6.096   5.095  26.954  0.00  0.00    +0.180 C 
ATOM     47  C   UNL     1       7.074   6.211  27.345  0.00  0.00    +0.174 C 
BRANCH  47  48
ATOM     48  O   UNL     1       7.797   5.867  28.539  0.00  0.00    -0.387 OA
ATOM     49  H   UNL     1       8.564   6.473  28.598  0.00  0.00    +0.210 HD
ENDBRANCH  47  48
BRANCH  46  50
ATOM     50  O   UNL     1       5.214   4.819  28.060  0.00  0.00    -0.386 OA
ATOM     51  H   UNL     1       4.744   3.996  27.804  0.00  0.00    +0.210 HD
ENDBRANCH  46  50
BRANCH  45  52
ATOM     52  O   UNL     1       7.363   3.342  27.844  0.00  0.00    -0.337 OA
BRANCH  52  53
ATOM     53  C   UNL     1       7.365   1.929  28.011  0.00  0.00    +0.282 C 
ATOM     54  O   UNL     1       6.294   1.279  27.343  0.00  0.00    -0.341 OA
ATOM     55  C   UNL     1       5.008   1.694  27.843  0.00  0.00    +0.178 C 
ATOM     56  C   UNL     1       4.805   1.321  29.328  0.00  0.00    +0.177 C 
ATOM     57  C   UNL     1       6.007   1.790  30.176  0.00  0.00    +0.179 C 
ATOM     58  C   UNL     1       7.359   1.516  29.496  0.00  0.00    +0.201 C 
BRANCH  58  59
ATOM     59  O   UNL     1       8.414   2.146  30.238  0.00  0.00    -0.384 OA
ATOM     60  H   UNL     1       9.227   1.978  29.716  0.00  0.00    +0.210 HD
ENDBRANCH  58  59
BRANCH  57  61
ATOM     61  O   UNL     1       5.914   3.190  30.484  0.00  0.00    -0.386 OA
ATOM     62  H   UNL     1       5.095   3.319  30.998  0.00  0.00    +0.210 HD
ENDBRANCH  57  61
BRANCH  56  63
ATOM     63  O   UNL     1       4.638  -0.074  29.555  0.00  0.00    -0.386 OA
ATOM     64  H   UNL     1       3.897  -0.192  30.170  0.00  0.00    +0.210 HD
ENDBRANCH  56  63
BRANCH  55  65
ATOM     65  C   UNL     1       3.956   1.247  26.816  0.00  0.00    +0.190 C 
BRANCH  65  66
ATOM     66  O   UNL     1       4.391   0.233  25.920  0.00  0.00    -0.392 OA
ATOM     67  H   UNL     1       3.654  -0.392  25.809  0.00  0.00    +0.210 HD
ENDBRANCH  65  66
ENDBRANCH  55  65
ENDBRANCH  52  53
ENDBRANCH  45  52
ENDBRANCH  40  44
ENDBRANCH   1  40
TORSDOF 22
ENDMDL
MODEL 7
REMARK VINA RESULT:      -6.1      1.634      2.249
REMARK  Name = 
REMARK  23 active torsions:
REMARK  status: ('A' for Active; 'I' for Inactive)
REMARK    1  A    between atoms: C_1  and  C_2
REMARK    2  A    between atoms: C_3  and  O_63
REMARK    3  A    between atoms: C_5  and  O_62
REMARK    4  A    between atoms: C_6  and  O_47
REMARK    5  A    between atoms: C_8  and  O_11
REMARK    6  A    between atoms: O_11  and  C_12
REMARK    7  A    between atoms: C_13  and  C_39
REMARK    8  A    between atoms: C_17  and  O_24
REMARK    9  A    between atoms: C_19  and  O_23
REMARK   10  A    between atoms: O_24  and  C_25
REMARK   11  A    between atoms: C_27  and  O_38
REMARK   12  A    between atoms: C_28  and  O_37
REMARK   13  A    between atoms: C_30  and  O_36
REMARK   14  A    between atoms: C_32  and  C_34
REMARK   15  A    between atoms: C_34  and  O_35
REMARK   16  A    between atoms: C_41  and  O_46
REMARK   17  A    between atoms: C_42  and  O_45
REMARK   18  A    between atoms: O_47  and  C_48
REMARK   19  A    between atoms: C_50  and  O_61
REMARK   20  A    between atoms: C_51  and  O_60
REMARK   21  A    between atoms: C_53  and  O_59
REMARK   22  A    between atoms: C_55  and  C_57
REMARK   23  A    between atoms: C_57  and  O_58
REMARK                            x       y       z     vdW  Elec       q    Type
REMARK                         _______ _______ _______ _____ _____    ______ ____
ROOT
ATOM      1  C   UNL     1       6.212   1.022  26.342  0.00  0.00    +0.214 A 
ATOM      2  C   UNL     1       5.668   0.076  27.409  0.00  0.00    +0.238 A 
ATOM      3  O   UNL     1       5.530   0.434  28.573  0.00  0.00    -0.283 OA
ATOM      4  C   UNL     1       5.419  -1.337  27.036  0.00  0.00    +0.109 A 
ATOM      5  C   UNL     1       5.971  -1.759  25.843  0.00  0.00    +0.147 A 
ATOM      6  C   UNL     1       5.776  -3.067  25.373  0.00  0.00    +0.093 A 
ATOM      7  C   UNL     1       4.993  -3.972  26.089  0.00  0.00    +0.131 A 
ATOM      8  C   UNL     1       4.512  -3.587  27.339  0.00  0.00    +0.092 A 
ATOM      9  O   UNL     1       6.762  -0.968  25.075  0.00  0.00    -0.451 OA
ATOM     10  C   UNL     1       4.721  -2.279  27.808  0.00  0.00    +0.135 A 
ATOM     11  C   UNL     1       6.851   0.410  25.295  0.00  0.00    +0.181 A 
ENDROOT
BRANCH  11  12
ATOM     12  C   UNL     1       7.801   0.955  24.234  0.00  0.00    +0.025 A 
ATOM     13  C   UNL     1       9.026   1.528  24.689  0.00  0.00    +0.015 A 
ATOM     14  C   UNL     1      10.005   2.058  23.833  0.00  0.00    +0.050 A 
ATOM     15  C   UNL     1       9.797   2.010  22.472  0.00  0.00    +0.158 A 
ATOM     16  C   UNL     1       8.645   1.411  21.978  0.00  0.00    +0.159 A 
ATOM     17  C   UNL     1       7.659   0.879  22.840  0.00  0.00    +0.060 A 
BRANCH  16  18
ATOM     18  O   UNL     1       8.544   1.344  20.612  0.00  0.00    -0.503 OA
ATOM     19  H   UNL     1       7.612   1.453  20.364  0.00  0.00    +0.292 HD
ENDBRANCH  16  18
BRANCH  15  20
ATOM     20  O   UNL     1      10.749   2.520  21.638  0.00  0.00    -0.503 OA
ATOM     21  H   UNL     1      11.480   2.800  22.228  0.00  0.00    +0.292 HD
ENDBRANCH  15  20
ENDBRANCH  11  12
BRANCH  10  22
ATOM     22  O   UNL     1       4.194  -1.954  29.029  0.00  0.00    -0.506 OA
ATOM     23  H   UNL     1       4.888  -1.822  29.679  0.00  0.00    +0.292 HD
ENDBRANCH  10  22
BRANCH   7  24
ATOM     24  O   UNL     1       4.616  -5.224  25.649  0.00  0.00    -0.461 OA
BRANCH  24  25
ATOM     25  C   UNL     1       3.788  -5.219  24.462  0.00  0.00    +0.339 C 
ATOM     26  O   UNL     1       2.537  -4.566  24.702  0.00  0.00    -0.331 OA
ATOM     27  C   UNL     1       1.678  -5.278  25.613  0.00  0.00    +0.179 C 
ATOM     28  C   UNL     1       1.293  -6.639  25.008  0.00  0.00    +0.177 C 
ATOM     29  C   UNL     1       2.568  -7.454  24.747  0.00  0.00    +0.180 C 
ATOM     30  C   UNL     1       3.564  -6.646  23.905  0.00  0.00    +0.214 C 
BRANCH  30  31
ATOM     31  O   UNL     1       4.792  -7.368  23.757  0.00  0.00    -0.383 OA
ATOM     32  H   UNL     1       5.331  -6.883  23.103  0.00  0.00    +0.210 HD
ENDBRANCH  30  31
BRANCH  29  33
ATOM     33  O   UNL     1       3.175  -7.888  25.972  0.00  0.00    -0.386 OA
ATOM     34  H   UNL     1       2.570  -7.692  26.709  0.00  0.00    +0.210 HD
ENDBRANCH  29  33
BRANCH  28  35
ATOM     35  O   UNL     1       0.585  -6.428  23.780  0.00  0.00    -0.386 OA
ATOM     36  H   UNL     1       0.346  -5.487  23.709  0.00  0.00    +0.210 HD
ENDBRANCH  28  35
BRANCH  27  37
ATOM     37  C   UNL     1       0.449  -4.403  25.902  0.00  0.00    +0.190 C 
BRANCH  37  38
ATOM     38  O   UNL     1       0.659  -3.564  27.041  0.00  0.00    -0.392 OA
ATOM     39  H   UNL     1       1.614  -3.451  27.175  0.00  0.00    +0.210 HD
ENDBRANCH  37  38
ENDBRANCH  27  37
ENDBRANCH  24  25
ENDBRANCH   7  24
BRANCH   1  40
ATOM     40  O   UNL     1       6.174   2.407  26.541  0.00  0.00    -0.453 OA
BRANCH  40  44
ATOM     41  C   UNL     1       1.802   3.380  26.673  0.00  0.00    +0.041 C 
ATOM     42  C   UNL     1       2.796   3.780  25.574  0.00  0.00    +0.150 C 
ATOM     43  O   UNL     1       4.012   2.984  25.550  0.00  0.00    -0.334 OA
ATOM     44  C   UNL     1       4.909   3.156  26.662  0.00  0.00    +0.340 C 
ATOM     45  C   UNL     1       5.232   4.676  26.869  0.00  0.00    +0.221 C 
ATOM     46  C   UNL     1       3.958   5.543  26.902  0.00  0.00    +0.180 C 
ATOM     47  C   UNL     1       3.104   5.285  25.654  0.00  0.00    +0.174 C 
BRANCH  47  48
ATOM     48  O   UNL     1       3.786   5.717  24.465  0.00  0.00    -0.387 OA
ATOM     49  H   UNL     1       4.284   6.527  24.695  0.00  0.00    +0.210 HD
ENDBRANCH  47  48
BRANCH  46  50
ATOM     50  O   UNL     1       4.316   6.938  26.961  0.00  0.00    -0.386 OA
ATOM     51  H   UNL     1       3.471   7.405  27.134  0.00  0.00    +0.210 HD
ENDBRANCH  46  50
BRANCH  45  52
ATOM     52  O   UNL     1       6.024   5.309  25.832  0.00  0.00    -0.337 OA
BRANCH  52  53
ATOM     53  C   UNL     1       7.083   4.519  25.304  0.00  0.00    +0.282 C 
ATOM     54  O   UNL     1       8.374   4.976  25.686  0.00  0.00    -0.341 OA
ATOM     55  C   UNL     1       8.646   6.306  25.203  0.00  0.00    +0.178 C 
ATOM     56  C   UNL     1       8.664   6.379  23.660  0.00  0.00    +0.177 C 
ATOM     57  C   UNL     1       7.395   5.728  23.069  0.00  0.00    +0.179 C 
ATOM     58  C   UNL     1       7.022   4.409  23.767  0.00  0.00    +0.201 C 
BRANCH  58  59
ATOM     59  O   UNL     1       5.738   3.962  23.308  0.00  0.00    -0.384 OA
ATOM     60  H   UNL     1       5.758   4.090  22.336  0.00  0.00    +0.210 HD
ENDBRANCH  58  59
BRANCH  57  61
ATOM     61  O   UNL     1       6.273   6.623  23.129  0.00  0.00    -0.386 OA
ATOM     62  H   UNL     1       6.229   6.972  24.038  0.00  0.00    +0.210 HD
ENDBRANCH  57  61
BRANCH  56  63
ATOM     63  O   UNL     1       9.789   5.744  23.065  0.00  0.00    -0.386 OA
ATOM     64  H   UNL     1      10.089   6.295  22.324  0.00  0.00    +0.210 HD
ENDBRANCH  56  63
BRANCH  55  65
ATOM     65  C   UNL     1       9.860   6.832  25.984  0.00  0.00    +0.190 C 
BRANCH  65  66
ATOM     66  O   UNL     1       9.717   6.804  27.398  0.00  0.00    -0.392 OA
ATOM     67  H   UNL     1       8.831   7.146  27.607  0.00  0.00    +0.210 HD
ENDBRANCH  65  66
ENDBRANCH  55  65
ENDBRANCH  52  53
ENDBRANCH  45  52
ENDBRANCH  40  44
ENDBRANCH   1  40
TORSDOF 22
ENDMDL
MODEL 8
REMARK VINA RESULT:      -5.9      2.781      8.407
REMARK  Name = 
REMARK  23 active torsions:
REMARK  status: ('A' for Active; 'I' for Inactive)
REMARK    1  A    between atoms: C_1  and  C_2
REMARK    2  A    between atoms: C_3  and  O_63
REMARK    3  A    between atoms: C_5  and  O_62
REMARK    4  A    between atoms: C_6  and  O_47
REMARK    5  A    between atoms: C_8  and  O_11
REMARK    6  A    between atoms: O_11  and  C_12
REMARK    7  A    between atoms: C_13  and  C_39
REMARK    8  A    between atoms: C_17  and  O_24
REMARK    9  A    between atoms: C_19  and  O_23
REMARK   10  A    between atoms: O_24  and  C_25
REMARK   11  A    between atoms: C_27  and  O_38
REMARK   12  A    between atoms: C_28  and  O_37
REMARK   13  A    between atoms: C_30  and  O_36
REMARK   14  A    between atoms: C_32  and  C_34
REMARK   15  A    between atoms: C_34  and  O_35
REMARK   16  A    between atoms: C_41  and  O_46
REMARK   17  A    between atoms: C_42  and  O_45
REMARK   18  A    between atoms: O_47  and  C_48
REMARK   19  A    between atoms: C_50  and  O_61
REMARK   20  A    between atoms: C_51  and  O_60
REMARK   21  A    between atoms: C_53  and  O_59
REMARK   22  A    between atoms: C_55  and  C_57
REMARK   23  A    between atoms: C_57  and  O_58
REMARK                            x       y       z     vdW  Elec       q    Type
REMARK                         _______ _______ _______ _____ _____    ______ ____
ROOT
ATOM      1  C   UNL     1       6.481  -2.066  26.721  0.00  0.00    +0.214 A 
ATOM      2  C   UNL     1       6.995  -0.695  27.149  0.00  0.00    +0.238 A 
ATOM      3  O   UNL     1       8.181  -0.396  27.054  0.00  0.00    -0.283 OA
ATOM      4  C   UNL     1       6.048   0.240  27.803  0.00  0.00    +0.109 A 
ATOM      5  C   UNL     1       4.857  -0.304  28.238  0.00  0.00    +0.147 A 
ATOM      6  C   UNL     1       3.871   0.491  28.843  0.00  0.00    +0.093 A 
ATOM      7  C   UNL     1       4.059   1.864  28.998  0.00  0.00    +0.131 A 
ATOM      8  C   UNL     1       5.295   2.406  28.651  0.00  0.00    +0.092 A 
ATOM      9  O   UNL     1       4.576  -1.629  28.152  0.00  0.00    -0.451 OA
ATOM     10  C   UNL     1       6.282   1.601  28.055  0.00  0.00    +0.135 A 
ATOM     11  C   UNL     1       5.352  -2.492  27.373  0.00  0.00    +0.181 A 
ENDROOT
BRANCH  11  12
ATOM     12  C   UNL     1       4.722  -3.874  27.503  0.00  0.00    +0.025 A 
ATOM     13  C   UNL     1       3.404  -4.040  26.980  0.00  0.00    +0.015 A 
ATOM     14  C   UNL     1       2.699  -5.254  27.014  0.00  0.00    +0.050 A 
ATOM     15  C   UNL     1       3.307  -6.364  27.560  0.00  0.00    +0.158 A 
ATOM     16  C   UNL     1       4.610  -6.264  28.032  0.00  0.00    +0.159 A 
ATOM     17  C   UNL     1       5.319  -5.042  27.999  0.00  0.00    +0.060 A 
BRANCH  16  18
ATOM     18  O   UNL     1       5.166  -7.428  28.499  0.00  0.00    -0.503 OA
ATOM     19  H   UNL     1       6.122  -7.403  28.331  0.00  0.00    +0.292 HD
ENDBRANCH  16  18
BRANCH  15  20
ATOM     20  O   UNL     1       2.625  -7.545  27.590  0.00  0.00    -0.503 OA
ATOM     21  H   UNL     1       1.980  -7.485  26.855  0.00  0.00    +0.292 HD
ENDBRANCH  15  20
ENDBRANCH  11  12
BRANCH  10  22
ATOM     22  O   UNL     1       7.461   2.202  27.706  0.00  0.00    -0.506 OA
ATOM     23  H   UNL     1       7.542   2.274  26.753  0.00  0.00    +0.292 HD
ENDBRANCH  10  22
BRANCH   7  24
ATOM     24  O   UNL     1       3.104   2.756  29.440  0.00  0.00    -0.461 OA
BRANCH  24  25
ATOM     25  C   UNL     1       1.854   2.703  28.714  0.00  0.00    +0.339 C 
ATOM     26  O   UNL     1       2.073   2.638  27.301  0.00  0.00    -0.331 OA
ATOM     27  C   UNL     1       2.644   3.840  26.747  0.00  0.00    +0.179 C 
ATOM     28  C   UNL     1       1.664   5.012  26.931  0.00  0.00    +0.177 C 
ATOM     29  C   UNL     1       1.386   5.207  28.429  0.00  0.00    +0.180 C 
ATOM     30  C   UNL     1       0.926   3.892  29.070  0.00  0.00    +0.214 C 
BRANCH  30  31
ATOM     31  O   UNL     1       0.773   4.053  30.485  0.00  0.00    -0.383 OA
ATOM     32  H   UNL     1       0.187   3.334  30.792  0.00  0.00    +0.210 HD
ENDBRANCH  30  31
BRANCH  29  33
ATOM     33  O   UNL     1       2.533   5.730  29.113  0.00  0.00    -0.386 OA
ATOM     34  H   UNL     1       2.618   5.280  29.972  0.00  0.00    +0.210 HD
ENDBRANCH  29  33
BRANCH  28  35
ATOM     35  O   UNL     1       0.443   4.723  26.239  0.00  0.00    -0.386 OA
ATOM     36  H   UNL     1       0.538   4.987  25.307  0.00  0.00    +0.210 HD
ENDBRANCH  28  35
BRANCH  27  37
ATOM     37  C   UNL     1       2.970   3.584  25.268  0.00  0.00    +0.190 C 
BRANCH  37  38
ATOM     38  O   UNL     1       2.022   2.695  24.669  0.00  0.00    -0.392 OA
ATOM     39  H   UNL     1       1.746   2.040  25.330  0.00  0.00    +0.210 HD
ENDBRANCH  37  38
ENDBRANCH  27  37
ENDBRANCH  24  25
ENDBRANCH   7  24
BRANCH   1  40
ATOM     40  O   UNL     1       7.227  -2.856  25.838  0.00  0.00    -0.453 OA
BRANCH  40  44
ATOM     41  C   UNL     1       5.647  -6.362  23.538  0.00  0.00    +0.041 C 
ATOM     42  C   UNL     1       6.886  -5.524  23.193  0.00  0.00    +0.150 C 
ATOM     43  O   UNL     1       7.416  -4.756  24.307  0.00  0.00    -0.334 OA
ATOM     44  C   UNL     1       6.601  -3.668  24.779  0.00  0.00    +0.340 C 
ATOM     45  C   UNL     1       6.202  -2.732  23.586  0.00  0.00    +0.221 C 
ATOM     46  C   UNL     1       5.632  -3.522  22.391  0.00  0.00    +0.180 C 
ATOM     47  C   UNL     1       6.605  -4.632  21.972  0.00  0.00    +0.174 C 
BRANCH  47  48
ATOM     48  O   UNL     1       7.832  -4.079  21.468  0.00  0.00    -0.387 OA
ATOM     49  H   UNL     1       8.163  -3.448  22.139  0.00  0.00    +0.210 HD
ENDBRANCH  47  48
BRANCH  46  50
ATOM     50  O   UNL     1       5.408  -2.634  21.279  0.00  0.00    -0.386 OA
ATOM     51  H   UNL     1       6.010  -2.958  20.575  0.00  0.00    +0.210 HD
ENDBRANCH  46  50
BRANCH  45  52
ATOM     52  O   UNL     1       7.279  -1.971  22.982  0.00  0.00    -0.337 OA
BRANCH  52  53
ATOM     53  C   UNL     1       7.967  -1.085  23.858  0.00  0.00    +0.282 C 
ATOM     54  O   UNL     1       7.693   0.286  23.606  0.00  0.00    -0.341 OA
ATOM     55  C   UNL     1       8.112   0.691  22.288  0.00  0.00    +0.178 C 
ATOM     56  C   UNL     1       9.640   0.572  22.094  0.00  0.00    +0.177 C 
ATOM     57  C   UNL     1      10.137  -0.825  22.525  0.00  0.00    +0.179 C 
ATOM     58  C   UNL     1       9.492  -1.307  23.836  0.00  0.00    +0.201 C 
BRANCH  58  59
ATOM     59  O   UNL     1       9.843  -2.678  24.074  0.00  0.00    -0.384 OA
ATOM     60  H   UNL     1      10.746  -2.646  24.455  0.00  0.00    +0.210 HD
ENDBRANCH  58  59
BRANCH  57  61
ATOM     61  O   UNL     1       9.900  -1.802  21.499  0.00  0.00    -0.386 OA
ATOM     62  H   UNL     1       9.014  -2.178  21.657  0.00  0.00    +0.210 HD
ENDBRANCH  57  61
BRANCH  56  63
ATOM     63  O   UNL     1      10.391   1.538  22.820  0.00  0.00    -0.386 OA
ATOM     64  H   UNL     1      11.116   1.078  23.274  0.00  0.00    +0.210 HD
ENDBRANCH  56  63
BRANCH  55  65
ATOM     65  C   UNL     1       7.429   2.035  21.988  0.00  0.00    +0.190 C 
BRANCH  65  66
ATOM     66  O   UNL     1       8.305   3.153  21.945  0.00  0.00    -0.392 OA
ATOM     67  H   UNL     1       9.046   2.965  22.547  0.00  0.00    +0.210 HD
ENDBRANCH  65  66
ENDBRANCH  55  65
ENDBRANCH  52  53
ENDBRANCH  45  52
ENDBRANCH  40  44
ENDBRANCH   1  40
TORSDOF 22
ENDMDL
MODEL 9
REMARK VINA RESULT:      -5.9      2.220     10.076
REMARK  Name = 
REMARK  23 active torsions:
REMARK  status: ('A' for Active; 'I' for Inactive)
REMARK    1  A    between atoms: C_1  and  C_2
REMARK    2  A    between atoms: C_3  and  O_63
REMARK    3  A    between atoms: C_5  and  O_62
REMARK    4  A    between atoms: C_6  and  O_47
REMARK    5  A    between atoms: C_8  and  O_11
REMARK    6  A    between atoms: O_11  and  C_12
REMARK    7  A    between atoms: C_13  and  C_39
REMARK    8  A    between atoms: C_17  and  O_24
REMARK    9  A    between atoms: C_19  and  O_23
REMARK   10  A    between atoms: O_24  and  C_25
REMARK   11  A    between atoms: C_27  and  O_38
REMARK   12  A    between atoms: C_28  and  O_37
REMARK   13  A    between atoms: C_30  and  O_36
REMARK   14  A    between atoms: C_32  and  C_34
REMARK   15  A    between atoms: C_34  and  O_35
REMARK   16  A    between atoms: C_41  and  O_46
REMARK   17  A    between atoms: C_42  and  O_45
REMARK   18  A    between atoms: O_47  and  C_48
REMARK   19  A    between atoms: C_50  and  O_61
REMARK   20  A    between atoms: C_51  and  O_60
REMARK   21  A    between atoms: C_53  and  O_59
REMARK   22  A    between atoms: C_55  and  C_57
REMARK   23  A    between atoms: C_57  and  O_58
REMARK                            x       y       z     vdW  Elec       q    Type
REMARK                         _______ _______ _______ _____ _____    ______ ____
ROOT
ATOM      1  C   UNL     1       5.788  -1.440  26.770  0.00  0.00    +0.214 A 
ATOM      2  C   UNL     1       5.413  -0.100  27.395  0.00  0.00    +0.238 A 
ATOM      3  O   UNL     1       4.475   0.002  28.177  0.00  0.00    -0.283 OA
ATOM      4  C   UNL     1       6.133   1.114  26.942  0.00  0.00    +0.109 A 
ATOM      5  C   UNL     1       6.879   0.986  25.788  0.00  0.00    +0.147 A 
ATOM      6  C   UNL     1       7.628   2.060  25.282  0.00  0.00    +0.093 A 
ATOM      7  C   UNL     1       7.660   3.283  25.950  0.00  0.00    +0.131 A 
ATOM      8  C   UNL     1       6.837   3.453  27.061  0.00  0.00    +0.092 A 
ATOM      9  O   UNL     1       6.907  -0.153  25.050  0.00  0.00    -0.451 OA
ATOM     10  C   UNL     1       6.081   2.376  27.556  0.00  0.00    +0.135 A 
ATOM     11  C   UNL     1       6.405  -1.359  25.548  0.00  0.00    +0.181 A 
ENDROOT
BRANCH  11  12
ATOM     12  C   UNL     1       6.632  -2.402  24.459  0.00  0.00    +0.025 A 
ATOM     13  C   UNL     1       7.542  -3.462  24.753  0.00  0.00    +0.015 A 
ATOM     14  C   UNL     1       7.843  -4.502  23.858  0.00  0.00    +0.050 A 
ATOM     15  C   UNL     1       7.218  -4.527  22.630  0.00  0.00    +0.158 A 
ATOM     16  C   UNL     1       6.283  -3.546  22.320  0.00  0.00    +0.159 A 
ATOM     17  C   UNL     1       5.981  -2.500  23.221  0.00  0.00    +0.060 A 
BRANCH  16  18
ATOM     18  O   UNL     1       5.658  -3.679  21.107  0.00  0.00    -0.503 OA
ATOM     19  H   UNL     1       4.718  -3.866  21.262  0.00  0.00    +0.292 HD
ENDBRANCH  16  18
BRANCH  15  20
ATOM     20  O   UNL     1       7.505  -5.539  21.761  0.00  0.00    -0.503 OA
ATOM     21  H   UNL     1       7.661  -5.097  20.900  0.00  0.00    +0.292 HD
ENDBRANCH  15  20
ENDBRANCH  11  12
BRANCH  10  22
ATOM     22  O   UNL     1       5.318   2.598  28.671  0.00  0.00    -0.506 OA
ATOM     23  H   UNL     1       4.576   3.172  28.470  0.00  0.00    +0.292 HD
ENDBRANCH  10  22
BRANCH   7  24
ATOM     24  O   UNL     1       8.474   4.349  25.625  0.00  0.00    -0.461 OA
BRANCH  24  25
ATOM     25  C   UNL     1       7.765   5.538  25.206  0.00  0.00    +0.339 C 
ATOM     26  O   UNL     1       6.797   5.240  24.195  0.00  0.00    -0.331 OA
ATOM     27  C   UNL     1       7.376   4.828  22.942  0.00  0.00    +0.179 C 
ATOM     28  C   UNL     1       8.207   5.981  22.351  0.00  0.00    +0.177 C 
ATOM     29  C   UNL     1       9.318   6.362  23.340  0.00  0.00    +0.180 C 
ATOM     30  C   UNL     1       8.731   6.651  24.728  0.00  0.00    +0.214 C 
BRANCH  30  31
ATOM     31  O   UNL     1       9.780   6.898  25.671  0.00  0.00    -0.383 OA
ATOM     32  H   UNL     1      10.432   6.178  25.569  0.00  0.00    +0.210 HD
ENDBRANCH  30  31
BRANCH  29  33
ATOM     33  O   UNL     1      10.324   5.343  23.419  0.00  0.00    -0.386 OA
ATOM     34  H   UNL     1      10.426   4.934  22.541  0.00  0.00    +0.210 HD
ENDBRANCH  29  33
BRANCH  28  35
ATOM     35  O   UNL     1       7.354   7.108  22.114  0.00  0.00    -0.386 OA
ATOM     36  H   UNL     1       6.701   7.168  22.834  0.00  0.00    +0.210 HD
ENDBRANCH  28  35
BRANCH  27  37
ATOM     37  C   UNL     1       6.240   4.392  22.004  0.00  0.00    +0.190 C 
BRANCH  37  38
ATOM     38  O   UNL     1       5.019   5.073  22.308  0.00  0.00    -0.392 OA
ATOM     39  H   UNL     1       4.994   5.907  21.814  0.00  0.00    +0.210 HD
ENDBRANCH  37  38
ENDBRANCH  27  37
ENDBRANCH  24  25
ENDBRANCH   7  24
BRANCH   1  40
ATOM     40  O   UNL     1       5.373  -2.638  27.364  0.00  0.00    -0.453 OA
BRANCH  40  44
ATOM     41  C   UNL     1       2.160  -2.498  30.485  0.00  0.00    +0.041 C 
ATOM     42  C   UNL     1       2.846  -3.755  29.933  0.00  0.00    +0.150 C 
ATOM     43  O   UNL     1       4.120  -3.503  29.280  0.00  0.00    -0.334 OA
ATOM     44  C   UNL     1       4.069  -2.777  28.038  0.00  0.00    +0.340 C 
ATOM     45  C   UNL     1       3.055  -3.457  27.055  0.00  0.00    +0.221 C 
ATOM     46  C   UNL     1       1.692  -3.733  27.721  0.00  0.00    +0.180 C 
ATOM     47  C   UNL     1       1.883  -4.530  29.018  0.00  0.00    +0.174 C 
BRANCH  47  48
ATOM     48  O   UNL     1       2.406  -5.841  28.743  0.00  0.00    -0.387 OA
ATOM     49  H   UNL     1       1.661  -6.388  28.418  0.00  0.00    +0.210 HD
ENDBRANCH  47  48
BRANCH  46  50
ATOM     50  O   UNL     1       0.847  -4.474  26.820  0.00  0.00    -0.386 OA
ATOM     51  H   UNL     1      -0.045  -4.079  26.932  0.00  0.00    +0.210 HD
ENDBRANCH  46  50
BRANCH  45  52
ATOM     52  O   UNL     1       3.433  -4.762  26.547  0.00  0.00    -0.337 OA
BRANCH  52  53
ATOM     53  C   UNL     1       3.880  -4.786  25.196  0.00  0.00    +0.282 C 
ATOM     54  O   UNL     1       2.835  -4.602  24.251  0.00  0.00    -0.341 OA
ATOM     55  C   UNL     1       1.849  -5.651  24.318  0.00  0.00    +0.178 C 
ATOM     56  C   UNL     1       2.438  -7.035  23.963  0.00  0.00    +0.177 C 
ATOM     57  C   UNL     1       3.722  -7.306  24.776  0.00  0.00    +0.179 C 
ATOM     58  C   UNL     1       4.646  -6.079  24.856  0.00  0.00    +0.201 C 
BRANCH  58  59
ATOM     59  O   UNL     1       5.715  -6.334  25.779  0.00  0.00    -0.384 OA
ATOM     60  H   UNL     1       5.288  -6.351  26.662  0.00  0.00    +0.210 HD
ENDBRANCH  58  59
BRANCH  57  61
ATOM     61  O   UNL     1       3.412  -7.746  26.108  0.00  0.00    -0.386 OA
ATOM     62  H   UNL     1       4.157  -7.484  26.680  0.00  0.00    +0.210 HD
ENDBRANCH  57  61
BRANCH  56  63
ATOM     63  O   UNL     1       2.761  -7.188  22.586  0.00  0.00    -0.386 OA
ATOM     64  H   UNL     1       3.728  -7.172  22.499  0.00  0.00    +0.210 HD
ENDBRANCH  56  63
BRANCH  55  65
ATOM     65  C   UNL     1       0.608  -5.156  23.559  0.00  0.00    +0.190 C 
BRANCH  65  66
ATOM     66  O   UNL     1       0.671  -5.311  22.148  0.00  0.00    -0.392 OA
ATOM     67  H   UNL     1       0.291  -4.508  21.751  0.00  0.00    +0.210 HD
ENDBRANCH  65  66
ENDBRANCH  55  65
ENDBRANCH  52  53
ENDBRANCH  45  52
ENDBRANCH  40  44
ENDBRANCH   1  40
TORSDOF 22
ENDMDL
