MODEL 1
REMARK VINA RESULT:      -6.8      0.000      0.000
REMARK  Name = 
REMARK  8 active torsions:
REMARK  status: ('A' for Active; 'I' for Inactive)
REMARK    1  A    between atoms: C_1  and  O_2
REMARK    2  A    between atoms: O_2  and  C_3
REMARK    3  A    between atoms: C_5  and  O_24
REMARK    4  A    between atoms: C_10  and  C_16
REMARK    5  A    between atoms: C_11  and  O_14
REMARK    6  A    between atoms: O_14  and  C_15
REMARK    7  A    between atoms: C_18  and  O_23
REMARK    8  A    between atoms: C_19  and  O_22
REMARK                            x       y       z     vdW  Elec       q    Type
REMARK                         _______ _______ _______ _____ _____    ______ ____
ROOT
ATOM      1  C   UNL     1       7.025   1.008  22.846  0.00  0.00    +0.127 A 
ATOM      2  C   UNL     1       6.436  -0.147  23.355  0.00  0.00    +0.092 A 
ATOM      3  C   UNL     1       7.212  -1.292  23.570  0.00  0.00    +0.147 A 
ATOM      4  O   UNL     1       6.545  -2.376  24.074  0.00  0.00    -0.451 OA
ATOM      5  C   UNL     1       7.256  -3.528  24.328  0.00  0.00    +0.181 A 
ATOM      6  C   UNL     1       8.567  -3.716  24.085  0.00  0.00    +0.211 A 
ATOM      7  C   UNL     1       9.324  -2.559  23.494  0.00  0.00    +0.238 A 
ATOM      8  O   UNL     1      10.504  -2.649  23.179  0.00  0.00    -0.283 OA
ATOM      9  C   UNL     1       8.574  -1.298  23.284  0.00  0.00    +0.109 A 
ATOM     10  C   UNL     1       9.167  -0.120  22.803  0.00  0.00    +0.135 A 
ATOM     11  C   UNL     1       8.395   1.027  22.593  0.00  0.00    +0.092 A 
ENDROOT
BRANCH   5  12
ATOM     12  C   UNL     1       6.416  -4.585  24.919  0.00  0.00    +0.025 A 
ATOM     13  C   UNL     1       6.241  -4.646  26.312  0.00  0.00    +0.015 A 
ATOM     14  C   UNL     1       5.440  -5.635  26.884  0.00  0.00    +0.050 A 
ATOM     15  C   UNL     1       4.814  -6.558  26.061  0.00  0.00    +0.158 A 
ATOM     16  C   UNL     1       4.980  -6.509  24.678  0.00  0.00    +0.159 A 
ATOM     17  C   UNL     1       5.778  -5.529  24.097  0.00  0.00    +0.060 A 
BRANCH  15  18
ATOM     18  O   UNL     1       4.026  -7.524  26.620  0.00  0.00    -0.503 OA
ATOM     19  H   UNL     1       4.601  -8.314  26.663  0.00  0.00    +0.292 HD
ENDBRANCH  15  18
BRANCH  16  20
ATOM     20  O   UNL     1       4.331  -7.454  23.929  0.00  0.00    -0.503 OA
ATOM     21  H   UNL     1       3.375  -7.293  24.002  0.00  0.00    +0.292 HD
ENDBRANCH  16  20
ENDBRANCH   5  12
BRANCH   1  23
ATOM     22  C   UNL     1       7.191   3.268  22.195  0.00  0.00    +0.277 C 
ATOM     23  O   UNL     1       6.365   2.180  22.601  0.00  0.00    -0.495 OA
ENDBRANCH   1  23
BRANCH   6  24
ATOM     24  O   UNL     1       9.143  -4.946  24.380  0.00  0.00    -0.488 OA
ATOM     25  C   UNL     1       9.906  -5.068  25.572  0.00  0.00    +0.277 C 
ENDBRANCH   6  24
BRANCH  10  26
ATOM     26  O   UNL     1      10.504  -0.061  22.531  0.00  0.00    -0.506 OA
ATOM     27  H   UNL     1      10.824   0.853  22.586  0.00  0.00    +0.292 HD
ENDBRANCH  10  26
TORSDOF 6
ENDMDL
MODEL 2
REMARK VINA RESULT:      -6.7      1.873      6.960
REMARK  Name = 
REMARK  8 active torsions:
REMARK  status: ('A' for Active; 'I' for Inactive)
REMARK    1  A    between atoms: C_1  and  O_2
REMARK    2  A    between atoms: O_2  and  C_3
REMARK    3  A    between atoms: C_5  and  O_24
REMARK    4  A    between atoms: C_10  and  C_16
REMARK    5  A    between atoms: C_11  and  O_14
REMARK    6  A    between atoms: O_14  and  C_15
REMARK    7  A    between atoms: C_18  and  O_23
REMARK    8  A    between atoms: C_19  and  O_22
REMARK                            x       y       z     vdW  Elec       q    Type
REMARK                         _______ _______ _______ _____ _____    ______ ____
ROOT
ATOM      1  C   UNL     1       4.211  -5.573  23.324  0.00  0.00    +0.127 A 
ATOM      2  C   UNL     1       4.889  -4.423  22.923  0.00  0.00    +0.092 A 
ATOM      3  C   UNL     1       5.915  -3.903  23.720  0.00  0.00    +0.147 A 
ATOM      4  O   UNL     1       6.522  -2.772  23.243  0.00  0.00    -0.451 OA
ATOM      5  C   UNL     1       7.554  -2.221  23.970  0.00  0.00    +0.181 A 
ATOM      6  C   UNL     1       8.010  -2.667  25.155  0.00  0.00    +0.211 A 
ATOM      7  C   UNL     1       7.340  -3.884  25.730  0.00  0.00    +0.238 A 
ATOM      8  O   UNL     1       7.640  -4.331  26.830  0.00  0.00    -0.283 OA
ATOM      9  C   UNL     1       6.276  -4.517  24.915  0.00  0.00    +0.109 A 
ATOM     10  C   UNL     1       5.611  -5.694  25.295  0.00  0.00    +0.135 A 
ATOM     11  C   UNL     1       4.591  -6.220  24.498  0.00  0.00    +0.092 A 
ENDROOT
BRANCH   5  12
ATOM     12  C   UNL     1       8.143  -1.046  23.303  0.00  0.00    +0.025 A 
ATOM     13  C   UNL     1       9.224  -1.208  22.421  0.00  0.00    +0.015 A 
ATOM     14  C   UNL     1       9.784  -0.104  21.774  0.00  0.00    +0.050 A 
ATOM     15  C   UNL     1       9.259   1.155  22.011  0.00  0.00    +0.158 A 
ATOM     16  C   UNL     1       8.187   1.330  22.884  0.00  0.00    +0.159 A 
ATOM     17  C   UNL     1       7.622   0.238  23.535  0.00  0.00    +0.060 A 
BRANCH  15  18
ATOM     18  O   UNL     1       9.804   2.235  21.375  0.00  0.00    -0.503 OA
ATOM     19  H   UNL     1      10.660   2.379  21.827  0.00  0.00    +0.292 HD
ENDBRANCH  15  18
BRANCH  16  20
ATOM     20  O   UNL     1       7.722   2.604  23.068  0.00  0.00    -0.503 OA
ATOM     21  H   UNL     1       6.869   2.685  22.608  0.00  0.00    +0.292 HD
ENDBRANCH  16  20
ENDBRANCH   5  12
BRANCH   1  23
ATOM     22  C   UNL     1       1.884  -5.779  23.007  0.00  0.00    +0.277 C 
ATOM     23  O   UNL     1       3.199  -6.169  22.624  0.00  0.00    -0.495 OA
ENDBRANCH   1  23
BRANCH   6  24
ATOM     24  O   UNL     1       9.053  -1.992  25.780  0.00  0.00    -0.488 OA
ATOM     25  C   UNL     1       8.736  -1.042  26.788  0.00  0.00    +0.277 C 
ENDBRANCH   6  24
BRANCH  10  26
ATOM     26  O   UNL     1       5.943  -6.353  26.444  0.00  0.00    -0.506 OA
ATOM     27  H   UNL     1       6.710  -5.937  26.868  0.00  0.00    +0.292 HD
ENDBRANCH  10  26
TORSDOF 6
ENDMDL
MODEL 3
REMARK VINA RESULT:      -6.6      2.083      6.946
REMARK  Name = 
REMARK  8 active torsions:
REMARK  status: ('A' for Active; 'I' for Inactive)
REMARK    1  A    between atoms: C_1  and  O_2
REMARK    2  A    between atoms: O_2  and  C_3
REMARK    3  A    between atoms: C_5  and  O_24
REMARK    4  A    between atoms: C_10  and  C_16
REMARK    5  A    between atoms: C_11  and  O_14
REMARK    6  A    between atoms: O_14  and  C_15
REMARK    7  A    between atoms: C_18  and  O_23
REMARK    8  A    between atoms: C_19  and  O_22
REMARK                            x       y       z     vdW  Elec       q    Type
REMARK                         _______ _______ _______ _____ _____    ______ ____
ROOT
ATOM      1  C   UNL     1       5.273  -4.929  22.730  0.00  0.00    +0.127 A 
ATOM      2  C   UNL     1       5.330  -3.541  22.623  0.00  0.00    +0.092 A 
ATOM      3  C   UNL     1       6.519  -2.866  22.920  0.00  0.00    +0.147 A 
ATOM      4  O   UNL     1       6.478  -1.504  22.784  0.00  0.00    -0.451 OA
ATOM      5  C   UNL     1       7.622  -0.781  23.042  0.00  0.00    +0.181 A 
ATOM      6  C   UNL     1       8.795  -1.285  23.467  0.00  0.00    +0.211 A 
ATOM      7  C   UNL     1       8.866  -2.774  23.667  0.00  0.00    +0.238 A 
ATOM      8  O   UNL     1       9.867  -3.322  24.110  0.00  0.00    -0.283 OA
ATOM      9  C   UNL     1       7.656  -3.559  23.324  0.00  0.00    +0.109 A 
ATOM     10  C   UNL     1       7.600  -4.960  23.398  0.00  0.00    +0.135 A 
ATOM     11  C   UNL     1       6.416  -5.638  23.095  0.00  0.00    +0.092 A 
ENDROOT
BRANCH   5  12
ATOM     12  C   UNL     1       7.439   0.661  22.798  0.00  0.00    +0.025 A 
ATOM     13  C   UNL     1       8.115   1.283  21.734  0.00  0.00    +0.015 A 
ATOM     14  C   UNL     1       7.943   2.646  21.485  0.00  0.00    +0.050 A 
ATOM     15  C   UNL     1       7.094   3.380  22.297  0.00  0.00    +0.158 A 
ATOM     16  C   UNL     1       6.418   2.775  23.355  0.00  0.00    +0.159 A 
ATOM     17  C   UNL     1       6.583   1.418  23.614  0.00  0.00    +0.060 A 
BRANCH  15  18
ATOM     18  O   UNL     1       6.921   4.713  22.051  0.00  0.00    -0.503 OA
ATOM     19  H   UNL     1       7.573   5.155  22.631  0.00  0.00    +0.292 HD
ENDBRANCH  15  18
BRANCH  16  20
ATOM     20  O   UNL     1       5.596   3.563  24.114  0.00  0.00    -0.503 OA
ATOM     21  H   UNL     1       5.421   4.382  23.621  0.00  0.00    +0.292 HD
ENDBRANCH  16  20
ENDBRANCH   5  12
BRANCH   1  23
ATOM     22  C   UNL     1       3.078  -5.516  23.360  0.00  0.00    +0.277 C 
ATOM     23  O   UNL     1       4.169  -5.690  22.462  0.00  0.00    -0.495 OA
ENDBRANCH   1  23
BRANCH   6  24
ATOM     24  O   UNL     1       9.860  -0.423  23.703  0.00  0.00    -0.488 OA
ATOM     25  C   UNL     1      10.119  -0.016  25.039  0.00  0.00    +0.277 C 
ENDBRANCH   6  24
BRANCH  10  26
ATOM     26  O   UNL     1       8.693  -5.693  23.763  0.00  0.00    -0.506 OA
ATOM     27  H   UNL     1       9.116  -5.309  24.547  0.00  0.00    +0.292 HD
ENDBRANCH  10  26
TORSDOF 6
ENDMDL
MODEL 4
REMARK VINA RESULT:      -6.5      2.464      3.566
REMARK  Name = 
REMARK  8 active torsions:
REMARK  status: ('A' for Active; 'I' for Inactive)
REMARK    1  A    between atoms: C_1  and  O_2
REMARK    2  A    between atoms: O_2  and  C_3
REMARK    3  A    between atoms: C_5  and  O_24
REMARK    4  A    between atoms: C_10  and  C_16
REMARK    5  A    between atoms: C_11  and  O_14
REMARK    6  A    between atoms: O_14  and  C_15
REMARK    7  A    between atoms: C_18  and  O_23
REMARK    8  A    between atoms: C_19  and  O_22
REMARK                            x       y       z     vdW  Elec       q    Type
REMARK                         _______ _______ _______ _____ _____    ______ ____
ROOT
ATOM      1  C   UNL     1       8.312   3.436  25.017  0.00  0.00    +0.127 A 
ATOM      2  C   UNL     1       8.195   2.149  25.538  0.00  0.00    +0.092 A 
ATOM      3  C   UNL     1       8.306   1.039  24.693  0.00  0.00    +0.147 A 
ATOM      4  O   UNL     1       8.179  -0.182  25.298  0.00  0.00    -0.451 OA
ATOM      5  C   UNL     1       8.298  -1.316  24.525  0.00  0.00    +0.181 A 
ATOM      6  C   UNL     1       8.491  -1.347  23.193  0.00  0.00    +0.211 A 
ATOM      7  C   UNL     1       8.596  -0.022  22.488  0.00  0.00    +0.238 A 
ATOM      8  O   UNL     1       8.709   0.058  21.271  0.00  0.00    -0.283 OA
ATOM      9  C   UNL     1       8.535   1.197  23.329  0.00  0.00    +0.109 A 
ATOM     10  C   UNL     1       8.685   2.495  22.817  0.00  0.00    +0.135 A 
ATOM     11  C   UNL     1       8.581   3.605  23.659  0.00  0.00    +0.092 A 
ENDROOT
BRANCH   5  12
ATOM     12  C   UNL     1       8.195  -2.551  25.322  0.00  0.00    +0.025 A 
ATOM     13  C   UNL     1       7.084  -2.756  26.158  0.00  0.00    +0.015 A 
ATOM     14  C   UNL     1       6.969  -3.926  26.911  0.00  0.00    +0.050 A 
ATOM     15  C   UNL     1       7.962  -4.888  26.822  0.00  0.00    +0.158 A 
ATOM     16  C   UNL     1       9.069  -4.697  25.997  0.00  0.00    +0.159 A 
ATOM     17  C   UNL     1       9.196  -3.534  25.244  0.00  0.00    +0.060 A 
BRANCH  15  18
ATOM     18  O   UNL     1       7.847  -6.035  27.555  0.00  0.00    -0.503 OA
ATOM     19  H   UNL     1       8.349  -6.702  27.046  0.00  0.00    +0.292 HD
ENDBRANCH  15  18
BRANCH  16  20
ATOM     20  O   UNL     1      10.009  -5.691  25.961  0.00  0.00    -0.503 OA
ATOM     21  H   UNL     1      10.144  -5.947  25.032  0.00  0.00    +0.292 HD
ENDBRANCH  16  20
ENDBRANCH   5  12
BRANCH   1  23
ATOM     22  C   UNL     1       9.050   5.657  25.296  0.00  0.00    +0.277 C 
ATOM     23  O   UNL     1       8.225   4.587  25.747  0.00  0.00    -0.495 OA
ENDBRANCH   1  23
BRANCH   6  24
ATOM     24  O   UNL     1       8.575  -2.574  22.545  0.00  0.00    -0.488 OA
ATOM     25  C   UNL     1       7.382  -3.152  22.033  0.00  0.00    +0.277 C 
ENDBRANCH   6  24
BRANCH  10  26
ATOM     26  O   UNL     1       8.938   2.707  21.492  0.00  0.00    -0.506 OA
ATOM     27  H   UNL     1       9.881   2.879  21.347  0.00  0.00    +0.292 HD
ENDBRANCH  10  26
TORSDOF 6
ENDMDL
MODEL 5
REMARK VINA RESULT:      -6.4      2.112      2.737
REMARK  Name = 
REMARK  8 active torsions:
REMARK  status: ('A' for Active; 'I' for Inactive)
REMARK    1  A    between atoms: C_1  and  O_2
REMARK    2  A    between atoms: O_2  and  C_3
REMARK    3  A    between atoms: C_5  and  O_24
REMARK    4  A    between atoms: C_10  and  C_16
REMARK    5  A    between atoms: C_11  and  O_14
REMARK    6  A    between atoms: O_14  and  C_15
REMARK    7  A    between atoms: C_18  and  O_23
REMARK    8  A    between atoms: C_19  and  O_22
REMARK                            x       y       z     vdW  Elec       q    Type
REMARK                         _______ _______ _______ _____ _____    ______ ____
ROOT
ATOM      1  C   UNL     1       7.419   3.112  22.400  0.00  0.00    +0.127 A 
ATOM      2  C   UNL     1       6.806   1.864  22.312  0.00  0.00    +0.092 A 
ATOM      3  C   UNL     1       7.451   0.731  22.822  0.00  0.00    +0.147 A 
ATOM      4  O   UNL     1       6.770  -0.449  22.690  0.00  0.00    -0.451 OA
ATOM      5  C   UNL     1       7.341  -1.599  23.189  0.00  0.00    +0.181 A 
ATOM      6  C   UNL     1       8.552  -1.691  23.771  0.00  0.00    +0.211 A 
ATOM      7  C   UNL     1       9.346  -0.420  23.897  0.00  0.00    +0.238 A 
ATOM      8  O   UNL     1      10.482  -0.408  24.354  0.00  0.00    -0.283 OA
ATOM      9  C   UNL     1       8.703   0.828  23.421  0.00  0.00    +0.109 A 
ATOM     10  C   UNL     1       9.299   2.094  23.536  0.00  0.00    +0.135 A 
ATOM     11  C   UNL     1       8.654   3.228  23.035  0.00  0.00    +0.092 A 
ENDROOT
BRANCH   5  12
ATOM     12  C   UNL     1       6.468  -2.775  23.025  0.00  0.00    +0.025 A 
ATOM     13  C   UNL     1       5.434  -3.016  23.946  0.00  0.00    +0.015 A 
ATOM     14  C   UNL     1       4.593  -4.120  23.795  0.00  0.00    +0.050 A 
ATOM     15  C   UNL     1       4.787  -4.976  22.723  0.00  0.00    +0.158 A 
ATOM     16  C   UNL     1       5.808  -4.749  21.803  0.00  0.00    +0.159 A 
ATOM     17  C   UNL     1       6.654  -3.653  21.944  0.00  0.00    +0.060 A 
BRANCH  15  18
ATOM     18  O   UNL     1       3.961  -6.054  22.574  0.00  0.00    -0.503 OA
ATOM     19  H   UNL     1       4.125  -6.601  23.368  0.00  0.00    +0.292 HD
ENDBRANCH  15  18
BRANCH  16  20
ATOM     20  O   UNL     1       5.939  -5.638  20.771  0.00  0.00    -0.503 OA
ATOM     21  H   UNL     1       5.057  -5.989  20.561  0.00  0.00    +0.292 HD
ENDBRANCH  16  20
ENDBRANCH   5  12
BRANCH   1  23
ATOM     22  C   UNL     1       7.597   5.461  22.298  0.00  0.00    +0.277 C 
ATOM     23  O   UNL     1       6.881   4.282  21.942  0.00  0.00    -0.495 OA
ENDBRANCH   1  23
BRANCH   6  24
ATOM     24  O   UNL     1       9.002  -2.930  24.212  0.00  0.00    -0.488 OA
ATOM     25  C   UNL     1       8.812  -3.272  25.578  0.00  0.00    +0.277 C 
ENDBRANCH   6  24
BRANCH  10  26
ATOM     26  O   UNL     1      10.514   2.251  24.139  0.00  0.00    -0.506 OA
ATOM     27  H   UNL     1      11.191   1.721  23.689  0.00  0.00    +0.292 HD
ENDBRANCH  10  26
TORSDOF 6
ENDMDL
MODEL 6
REMARK VINA RESULT:      -6.4      2.202      6.878
REMARK  Name = 
REMARK  8 active torsions:
REMARK  status: ('A' for Active; 'I' for Inactive)
REMARK    1  A    between atoms: C_1  and  O_2
REMARK    2  A    between atoms: O_2  and  C_3
REMARK    3  A    between atoms: C_5  and  O_24
REMARK    4  A    between atoms: C_10  and  C_16
REMARK    5  A    between atoms: C_11  and  O_14
REMARK    6  A    between atoms: O_14  and  C_15
REMARK    7  A    between atoms: C_18  and  O_23
REMARK    8  A    between atoms: C_19  and  O_22
REMARK                            x       y       z     vdW  Elec       q    Type
REMARK                         _______ _______ _______ _____ _____    ______ ____
ROOT
ATOM      1  C   UNL     1       7.367  -4.547  27.059  0.00  0.00    +0.127 A 
ATOM      2  C   UNL     1       7.084  -3.219  26.747  0.00  0.00    +0.092 A 
ATOM      3  C   UNL     1       7.822  -2.560  25.757  0.00  0.00    +0.147 A 
ATOM      4  O   UNL     1       7.469  -1.259  25.520  0.00  0.00    -0.451 OA
ATOM      5  C   UNL     1       8.143  -0.560  24.543  0.00  0.00    +0.181 A 
ATOM      6  C   UNL     1       9.170  -1.025  23.807  0.00  0.00    +0.211 A 
ATOM      7  C   UNL     1       9.612  -2.439  24.068  0.00  0.00    +0.238 A 
ATOM      8  O   UNL     1      10.575  -2.934  23.495  0.00  0.00    -0.283 OA
ATOM      9  C   UNL     1       8.842  -3.213  25.071  0.00  0.00    +0.109 A 
ATOM     10  C   UNL     1       9.099  -4.560  25.368  0.00  0.00    +0.135 A 
ATOM     11  C   UNL     1       8.360  -5.223  26.351  0.00  0.00    +0.092 A 
ENDROOT
BRANCH   5  12
ATOM     12  C   UNL     1       7.615   0.804  24.365  0.00  0.00    +0.025 A 
ATOM     13  C   UNL     1       8.232   1.886  25.017  0.00  0.00    +0.015 A 
ATOM     14  C   UNL     1       7.748   3.185  24.848  0.00  0.00    +0.050 A 
ATOM     15  C   UNL     1       6.653   3.397  24.026  0.00  0.00    +0.158 A 
ATOM     16  C   UNL     1       6.032   2.333  23.375  0.00  0.00    +0.159 A 
ATOM     17  C   UNL     1       6.504   1.034  23.537  0.00  0.00    +0.060 A 
BRANCH  15  18
ATOM     18  O   UNL     1       6.182   4.668  23.858  0.00  0.00    -0.503 OA
ATOM     19  H   UNL     1       6.390   5.120  24.699  0.00  0.00    +0.292 HD
ENDBRANCH  15  18
BRANCH  16  20
ATOM     20  O   UNL     1       4.956   2.619  22.580  0.00  0.00    -0.503 OA
ATOM     21  H   UNL     1       4.152   2.320  23.038  0.00  0.00    +0.292 HD
ENDBRANCH  16  20
ENDBRANCH   5  12
BRANCH   1  23
ATOM     22  C   UNL     1       5.451  -4.765  28.415  0.00  0.00    +0.277 C 
ATOM     23  O   UNL     1       6.710  -5.287  28.002  0.00  0.00    -0.495 OA
ENDBRANCH   1  23
BRANCH   6  24
ATOM     24  O   UNL     1       9.764  -0.192  22.866  0.00  0.00    -0.488 OA
ATOM     25  C   UNL     1       9.425  -0.367  21.497  0.00  0.00    +0.277 C 
ENDBRANCH   6  24
BRANCH  10  26
ATOM     26  O   UNL     1      10.071  -5.257  24.707  0.00  0.00    -0.506 OA
ATOM     27  H   UNL     1       9.775  -5.491  23.813  0.00  0.00    +0.292 HD
ENDBRANCH  10  26
TORSDOF 6
ENDMDL
MODEL 7
REMARK VINA RESULT:      -6.3      1.901      2.353
REMARK  Name = 
REMARK  8 active torsions:
REMARK  status: ('A' for Active; 'I' for Inactive)
REMARK    1  A    between atoms: C_1  and  O_2
REMARK    2  A    between atoms: O_2  and  C_3
REMARK    3  A    between atoms: C_5  and  O_24
REMARK    4  A    between atoms: C_10  and  C_16
REMARK    5  A    between atoms: C_11  and  O_14
REMARK    6  A    between atoms: O_14  and  C_15
REMARK    7  A    between atoms: C_18  and  O_23
REMARK    8  A    between atoms: C_19  and  O_22
REMARK                            x       y       z     vdW  Elec       q    Type
REMARK                         _______ _______ _______ _____ _____    ______ ____
ROOT
ATOM      1  C   UNL     1       8.237   1.819  25.015  0.00  0.00    +0.127 A 
ATOM      2  C   UNL     1       7.682   0.633  25.490  0.00  0.00    +0.092 A 
ATOM      3  C   UNL     1       7.870  -0.559  24.781  0.00  0.00    +0.147 A 
ATOM      4  O   UNL     1       7.289  -1.672  25.327  0.00  0.00    -0.451 OA
ATOM      5  C   UNL     1       7.453  -2.882  24.689  0.00  0.00    +0.181 A 
ATOM      6  C   UNL     1       8.109  -3.081  23.530  0.00  0.00    +0.211 A 
ATOM      7  C   UNL     1       8.727  -1.873  22.880  0.00  0.00    +0.238 A 
ATOM      8  O   UNL     1       9.291  -1.938  21.795  0.00  0.00    -0.283 OA
ATOM      9  C   UNL     1       8.608  -0.583  23.602  0.00  0.00    +0.109 A 
ATOM     10  C   UNL     1       9.192   0.610  23.148  0.00  0.00    +0.135 A 
ATOM     11  C   UNL     1       9.012   1.801  23.857  0.00  0.00    +0.092 A 
ENDROOT
BRANCH   5  12
ATOM     12  C   UNL     1       6.821  -3.992  25.423  0.00  0.00    +0.025 A 
ATOM     13  C   UNL     1       5.532  -4.425  25.067  0.00  0.00    +0.015 A 
ATOM     14  C   UNL     1       4.925  -5.483  25.747  0.00  0.00    +0.050 A 
ATOM     15  C   UNL     1       5.611  -6.106  26.777  0.00  0.00    +0.158 A 
ATOM     16  C   UNL     1       6.890  -5.687  27.140  0.00  0.00    +0.159 A 
ATOM     17  C   UNL     1       7.503  -4.632  26.471  0.00  0.00    +0.060 A 
BRANCH  15  18
ATOM     18  O   UNL     1       5.020  -7.144  27.440  0.00  0.00    -0.503 OA
ATOM     19  H   UNL     1       4.117  -6.825  27.639  0.00  0.00    +0.292 HD
ENDBRANCH  15  18
BRANCH  16  20
ATOM     20  O   UNL     1       7.505  -6.350  28.167  0.00  0.00    -0.503 OA
ATOM     21  H   UNL     1       7.473  -5.783  28.956  0.00  0.00    +0.292 HD
ENDBRANCH  16  20
ENDBRANCH   5  12
BRANCH   1  23
ATOM     22  C   UNL     1       8.596   4.145  24.867  0.00  0.00    +0.277 C 
ATOM     23  O   UNL     1       8.121   3.037  25.626  0.00  0.00    -0.495 OA
ENDBRANCH   1  23
BRANCH   6  24
ATOM     24  O   UNL     1       8.177  -4.363  22.998  0.00  0.00    -0.488 OA
ATOM     25  C   UNL     1       7.249  -4.724  21.983  0.00  0.00    +0.277 C 
ENDBRANCH   6  24
BRANCH  10  26
ATOM     26  O   UNL     1       9.948   0.639  22.011  0.00  0.00    -0.506 OA
ATOM     27  H   UNL     1      10.866   0.393  22.205  0.00  0.00    +0.292 HD
ENDBRANCH  10  26
TORSDOF 6
ENDMDL
MODEL 8
REMARK VINA RESULT:      -6.3      2.359      7.322
REMARK  Name = 
REMARK  8 active torsions:
REMARK  status: ('A' for Active; 'I' for Inactive)
REMARK    1  A    between atoms: C_1  and  O_2
REMARK    2  A    between atoms: O_2  and  C_3
REMARK    3  A    between atoms: C_5  and  O_24
REMARK    4  A    between atoms: C_10  and  C_16
REMARK    5  A    between atoms: C_11  and  O_14
REMARK    6  A    between atoms: O_14  and  C_15
REMARK    7  A    between atoms: C_18  and  O_23
REMARK    8  A    between atoms: C_19  and  O_22
REMARK                            x       y       z     vdW  Elec       q    Type
REMARK                         _______ _______ _______ _____ _____    ______ ____
ROOT
ATOM      1  C   UNL     1       6.983  -5.253  22.841  0.00  0.00    +0.127 A 
ATOM      2  C   UNL     1       7.583  -4.005  22.680  0.00  0.00    +0.092 A 
ATOM      3  C   UNL     1       7.543  -3.071  23.721  0.00  0.00    +0.147 A 
ATOM      4  O   UNL     1       8.160  -1.875  23.469  0.00  0.00    -0.451 OA
ATOM      5  C   UNL     1       8.175  -0.919  24.461  0.00  0.00    +0.181 A 
ATOM      6  C   UNL     1       7.592  -1.026  25.669  0.00  0.00    +0.211 A 
ATOM      7  C   UNL     1       6.870  -2.312  25.967  0.00  0.00    +0.238 A 
ATOM      8  O   UNL     1       6.255  -2.484  27.012  0.00  0.00    -0.283 OA
ATOM      9  C   UNL     1       6.912  -3.367  24.926  0.00  0.00    +0.109 A 
ATOM     10  C   UNL     1       6.340  -4.638  25.092  0.00  0.00    +0.135 A 
ATOM     11  C   UNL     1       6.384  -5.575  24.057  0.00  0.00    +0.092 A 
ENDROOT
BRANCH   5  12
ATOM     12  C   UNL     1       8.922   0.288  24.064  0.00  0.00    +0.025 A 
ATOM     13  C   UNL     1      10.252   0.459  24.483  0.00  0.00    +0.015 A 
ATOM     14  C   UNL     1      10.974   1.593  24.105  0.00  0.00    +0.050 A 
ATOM     15  C   UNL     1      10.365   2.547  23.307  0.00  0.00    +0.158 A 
ATOM     16  C   UNL     1       9.047   2.390  22.885  0.00  0.00    +0.159 A 
ATOM     17  C   UNL     1       8.316   1.265  23.257  0.00  0.00    +0.060 A 
BRANCH  15  18
ATOM     18  O   UNL     1      11.073   3.655  22.934  0.00  0.00    -0.503 OA
ATOM     19  H   UNL     1      11.244   3.526  21.980  0.00  0.00    +0.292 HD
ENDBRANCH  15  18
BRANCH  16  20
ATOM     20  O   UNL     1       8.512   3.374  22.099  0.00  0.00    -0.503 OA
ATOM     21  H   UNL     1       8.478   3.046  21.184  0.00  0.00    +0.292 HD
ENDBRANCH  16  20
ENDBRANCH   5  12
BRANCH   1  23
ATOM     22  C   UNL     1       6.173  -5.964  20.744  0.00  0.00    +0.277 C 
ATOM     23  O   UNL     1       6.965  -6.240  21.896  0.00  0.00    -0.495 OA
ENDBRANCH   1  23
BRANCH   6  24
ATOM     24  O   UNL     1       7.678   0.035  26.563  0.00  0.00    -0.488 OA
ATOM     25  C   UNL     1       6.563   0.907  26.687  0.00  0.00    +0.277 C 
ENDBRANCH   6  24
BRANCH  10  26
ATOM     26  O   UNL     1       5.732  -4.991  26.263  0.00  0.00    -0.506 OA
ATOM     27  H   UNL     1       4.784  -5.146  26.123  0.00  0.00    +0.292 HD
ENDBRANCH  10  26
TORSDOF 6
ENDMDL
MODEL 9
REMARK VINA RESULT:      -6.2      2.489      3.141
REMARK  Name = 
REMARK  8 active torsions:
REMARK  status: ('A' for Active; 'I' for Inactive)
REMARK    1  A    between atoms: C_1  and  O_2
REMARK    2  A    between atoms: O_2  and  C_3
REMARK    3  A    between atoms: C_5  and  O_24
REMARK    4  A    between atoms: C_10  and  C_16
REMARK    5  A    between atoms: C_11  and  O_14
REMARK    6  A    between atoms: O_14  and  C_15
REMARK    7  A    between atoms: C_18  and  O_23
REMARK    8  A    between atoms: C_19  and  O_22
REMARK                            x       y       z     vdW  Elec       q    Type
REMARK                         _______ _______ _______ _____ _____    ______ ____
ROOT
ATOM      1  C   UNL     1      10.161   0.088  24.224  0.00  0.00    +0.127 A 
ATOM      2  C   UNL     1       9.412  -0.611  25.168  0.00  0.00    +0.092 A 
ATOM      3  C   UNL     1       8.673  -1.735  24.782  0.00  0.00    +0.147 A 
ATOM      4  O   UNL     1       7.971  -2.355  25.780  0.00  0.00    -0.451 OA
ATOM      5  C   UNL     1       7.239  -3.481  25.470  0.00  0.00    +0.181 A 
ATOM      6  C   UNL     1       7.106  -4.023  24.245  0.00  0.00    +0.211 A 
ATOM      7  C   UNL     1       7.832  -3.345  23.116  0.00  0.00    +0.238 A 
ATOM      8  O   UNL     1       7.726  -3.723  21.956  0.00  0.00    -0.283 OA
ATOM      9  C   UNL     1       8.674  -2.174  23.461  0.00  0.00    +0.109 A 
ATOM     10  C   UNL     1       9.458  -1.485  22.523  0.00  0.00    +0.135 A 
ATOM     11  C   UNL     1      10.202  -0.366  22.907  0.00  0.00    +0.092 A 
ENDROOT
BRANCH   5  12
ATOM     12  C   UNL     1       6.586  -4.068  26.654  0.00  0.00    +0.025 A 
ATOM     13  C   UNL     1       5.449  -3.452  27.205  0.00  0.00    +0.015 A 
ATOM     14  C   UNL     1       4.814  -4.004  28.319  0.00  0.00    +0.050 A 
ATOM     15  C   UNL     1       5.317  -5.169  28.875  0.00  0.00    +0.158 A 
ATOM     16  C   UNL     1       6.443  -5.789  28.339  0.00  0.00    +0.159 A 
ATOM     17  C   UNL     1       7.085  -5.248  27.229  0.00  0.00    +0.060 A 
BRANCH  15  18
ATOM     18  O   UNL     1       4.693  -5.712  29.964  0.00  0.00    -0.503 OA
ATOM     19  H   UNL     1       5.363  -5.673  30.675  0.00  0.00    +0.292 HD
ENDBRANCH  15  18
BRANCH  16  20
ATOM     20  O   UNL     1       6.882  -6.937  28.941  0.00  0.00    -0.503 OA
ATOM     21  H   UNL     1       6.360  -7.072  29.751  0.00  0.00    +0.292 HD
ENDBRANCH  16  20
ENDBRANCH   5  12
BRANCH   1  23
ATOM     22  C   UNL     1      10.597   2.350  23.723  0.00  0.00    +0.277 C 
ATOM     23  O   UNL     1      10.920   1.193  24.489  0.00  0.00    -0.495 OA
ENDBRANCH   1  23
BRANCH   6  24
ATOM     24  O   UNL     1       6.317  -5.156  24.084  0.00  0.00    -0.488 OA
ATOM     25  C   UNL     1       5.065  -5.021  23.426  0.00  0.00    +0.277 C 
ENDBRANCH   6  24
BRANCH  10  26
ATOM     26  O   UNL     1       9.517  -1.888  21.219  0.00  0.00    -0.506 OA
ATOM     27  H   UNL     1      10.125  -1.325  20.715  0.00  0.00    +0.292 HD
ENDBRANCH  10  26
TORSDOF 6
ENDMDL
