MODEL 1
REMARK VINA RESULT:      -7.5      0.000      0.000
REMARK  Name = 
REMARK  14 active torsions:
REMARK  status: ('A' for Active; 'I' for Inactive)
REMARK    1  A    between atoms: C_1  and  C_2
REMARK    2  A    between atoms: C_2  and  O_4
REMARK    3  A    between atoms: O_4  and  C_5
REMARK    4  A    between atoms: C_5  and  C_6
REMARK    5  A    between atoms: C_8  and  O_41
REMARK    6  A    between atoms: C_10  and  O_40
REMARK    7  A    between atoms: C_12  and  O_39
REMARK    8  A    between atoms: C_14  and  O_17
REMARK    9  A    between atoms: O_17  and  C_18
REMARK   10  A    between atoms: C_19  and  C_31
REMARK   11  A    between atoms: C_23  and  O_30
REMARK   12  A    between atoms: C_25  and  O_29
REMARK   13  A    between atoms: C_33  and  O_38
REMARK   14  A    between atoms: C_34  and  O_37
REMARK                            x       y       z     vdW  Elec       q    Type
REMARK                         _______ _______ _______ _____ _____    ______ ____
ROOT
ATOM      1  C   UNL     1       8.527  -1.469  24.178  0.00  0.00    +0.214 A 
ATOM      2  C   UNL     1       9.238  -0.144  24.132  0.00  0.00    +0.238 A 
ATOM      3  O   UNL     1      10.429  -0.013  24.386  0.00  0.00    -0.283 OA
ATOM      4  C   UNL     1       8.519   1.026  23.671  0.00  0.00    +0.109 A 
ATOM      5  C   UNL     1       7.428   0.784  22.855  0.00  0.00    +0.147 A 
ATOM      6  C   UNL     1       6.802   1.858  22.227  0.00  0.00    +0.092 A 
ATOM      7  C   UNL     1       7.288   3.151  22.425  0.00  0.00    +0.124 A 
ATOM      8  C   UNL     1       8.368   3.400  23.261  0.00  0.00    +0.091 A 
ATOM      9  O   UNL     1       6.982  -0.481  22.594  0.00  0.00    -0.451 OA
ATOM     10  C   UNL     1       8.976   2.329  23.901  0.00  0.00    +0.135 A 
ATOM     11  C   UNL     1       7.486  -1.590  23.306  0.00  0.00    +0.181 A 
ENDROOT
BRANCH  11  12
ATOM     12  C   UNL     1       6.798  -2.853  22.854  0.00  0.00    +0.025 A 
ATOM     13  C   UNL     1       7.586  -3.901  22.291  0.00  0.00    +0.015 A 
ATOM     14  C   UNL     1       7.082  -5.185  22.041  0.00  0.00    +0.050 A 
ATOM     15  C   UNL     1       5.760  -5.446  22.326  0.00  0.00    +0.158 A 
ATOM     16  C   UNL     1       4.930  -4.428  22.778  0.00  0.00    +0.159 A 
ATOM     17  C   UNL     1       5.432  -3.144  23.039  0.00  0.00    +0.060 A 
BRANCH  15  18
ATOM     18  O   UNL     1       5.282  -6.716  22.172  0.00  0.00    -0.503 OA
ATOM     19  H   UNL     1       5.349  -6.891  21.213  0.00  0.00    +0.292 HD
ENDBRANCH  15  18
BRANCH  16  20
ATOM     20  O   UNL     1       3.611  -4.740  22.971  0.00  0.00    -0.503 OA
ATOM     21  H   UNL     1       3.562  -5.678  23.229  0.00  0.00    +0.292 HD
ENDBRANCH  16  20
ENDBRANCH  11  12
BRANCH   7  22
ATOM     22  O   UNL     1       6.723   4.233  21.814  0.00  0.00    -0.507 OA
ATOM     23  H   UNL     1       6.098   3.928  21.141  0.00  0.00    +0.292 HD
ENDBRANCH   7  22
BRANCH  10  24
ATOM     24  O   UNL     1       9.994   2.572  24.780  0.00  0.00    -0.506 OA
ATOM     25  H   UNL     1      10.057   3.524  24.960  0.00  0.00    +0.292 HD
ENDBRANCH  10  24
BRANCH   1  26
ATOM     26  O   UNL     1       9.016  -2.509  25.000  0.00  0.00    -0.453 OA
BRANCH  26  29
ATOM     27  C   UNL     1       5.816  -3.161  26.566  0.00  0.00    +0.191 C 
ATOM     28  O   UNL     1       7.054  -2.474  26.331  0.00  0.00    -0.330 OA
ATOM     29  C   UNL     1       7.973  -3.313  25.610  0.00  0.00    +0.340 C 
ATOM     30  C   UNL     1       8.463  -4.402  26.593  0.00  0.00    +0.214 C 
ATOM     31  C   UNL     1       7.199  -5.178  27.052  0.00  0.00    +0.180 C 
ATOM     32  C   UNL     1       6.085  -4.264  27.596  0.00  0.00    +0.178 C 
BRANCH  30  33
ATOM     33  O   UNL     1       9.391  -5.283  25.934  0.00  0.00    -0.383 OA
ATOM     34  H   UNL     1       9.703  -5.930  26.593  0.00  0.00    +0.210 HD
ENDBRANCH  30  33
BRANCH  31  35
ATOM     35  O   UNL     1       7.522  -6.176  28.033  0.00  0.00    -0.386 OA
ATOM     36  H   UNL     1       6.664  -6.397  28.457  0.00  0.00    +0.210 HD
ENDBRANCH  31  35
BRANCH  32  37
ATOM     37  O   UNL     1       4.937  -5.079  27.859  0.00  0.00    -0.386 OA
ATOM     38  H   UNL     1       4.441  -4.644  28.579  0.00  0.00    +0.210 HD
ENDBRANCH  32  37
BRANCH  27  39
ATOM     39  C   UNL     1       4.748  -2.150  27.002  0.00  0.00    +0.266 C 
BRANCH  39  40
ATOM     40  O   UNL     1       3.698  -2.027  26.019  0.00  0.00    -0.462 OA
BRANCH  40  42
ATOM     41  C   UNL     1       1.446  -2.349  26.606  0.00  0.00    +0.136 C 
ATOM     42  C   UNL     1       2.710  -2.966  26.086  0.00  0.00    +0.304 C 
ATOM     43  O   UNL     1       2.811  -4.140  25.763  0.00  0.00    -0.251 OA
ENDBRANCH  40  42
ENDBRANCH  39  40
ENDBRANCH  27  39
ENDBRANCH  26  29
ENDBRANCH   1  26
TORSDOF 13
ENDMDL
MODEL 2
REMARK VINA RESULT:      -7.3      2.132      4.720
REMARK  Name = 
REMARK  14 active torsions:
REMARK  status: ('A' for Active; 'I' for Inactive)
REMARK    1  A    between atoms: C_1  and  C_2
REMARK    2  A    between atoms: C_2  and  O_4
REMARK    3  A    between atoms: O_4  and  C_5
REMARK    4  A    between atoms: C_5  and  C_6
REMARK    5  A    between atoms: C_8  and  O_41
REMARK    6  A    between atoms: C_10  and  O_40
REMARK    7  A    between atoms: C_12  and  O_39
REMARK    8  A    between atoms: C_14  and  O_17
REMARK    9  A    between atoms: O_17  and  C_18
REMARK   10  A    between atoms: C_19  and  C_31
REMARK   11  A    between atoms: C_23  and  O_30
REMARK   12  A    between atoms: C_25  and  O_29
REMARK   13  A    between atoms: C_33  and  O_38
REMARK   14  A    between atoms: C_34  and  O_37
REMARK                            x       y       z     vdW  Elec       q    Type
REMARK                         _______ _______ _______ _____ _____    ______ ____
ROOT
ATOM      1  C   UNL     1       7.564  -2.238  25.701  0.00  0.00    +0.214 A 
ATOM      2  C   UNL     1       8.396  -2.389  24.456  0.00  0.00    +0.238 A 
ATOM      3  O   UNL     1       8.680  -3.474  23.966  0.00  0.00    -0.283 OA
ATOM      4  C   UNL     1       8.805  -1.200  23.734  0.00  0.00    +0.109 A 
ATOM      5  C   UNL     1       8.022  -0.075  23.927  0.00  0.00    +0.147 A 
ATOM      6  C   UNL     1       8.242   1.046  23.130  0.00  0.00    +0.092 A 
ATOM      7  C   UNL     1       9.238   1.013  22.154  0.00  0.00    +0.124 A 
ATOM      8  C   UNL     1      10.039  -0.106  21.972  0.00  0.00    +0.091 A 
ATOM      9  O   UNL     1       6.998  -0.048  24.831  0.00  0.00    -0.451 OA
ATOM     10  C   UNL     1       9.830  -1.214  22.783  0.00  0.00    +0.135 A 
ATOM     11  C   UNL     1       6.818  -1.099  25.756  0.00  0.00    +0.181 A 
ENDROOT
BRANCH  11  12
ATOM     12  C   UNL     1       5.649  -0.800  26.660  0.00  0.00    +0.025 A 
ATOM     13  C   UNL     1       5.871  -0.024  27.837  0.00  0.00    +0.015 A 
ATOM     14  C   UNL     1       4.829   0.486  28.623  0.00  0.00    +0.050 A 
ATOM     15  C   UNL     1       3.529   0.209  28.261  0.00  0.00    +0.158 A 
ATOM     16  C   UNL     1       3.268  -0.627  27.184  0.00  0.00    +0.159 A 
ATOM     17  C   UNL     1       4.307  -1.133  26.389  0.00  0.00    +0.060 A 
BRANCH  15  18
ATOM     18  O   UNL     1       2.505   0.776  28.966  0.00  0.00    -0.503 OA
ATOM     19  H   UNL     1       1.997   0.018  29.317  0.00  0.00    +0.292 HD
ENDBRANCH  15  18
BRANCH  16  20
ATOM     20  O   UNL     1       1.955  -0.919  26.927  0.00  0.00    -0.503 OA
ATOM     21  H   UNL     1       1.839  -0.941  25.961  0.00  0.00    +0.292 HD
ENDBRANCH  16  20
ENDBRANCH  11  12
BRANCH   7  22
ATOM     22  O   UNL     1       9.476   2.078  21.333  0.00  0.00    -0.507 OA
ATOM     23  H   UNL     1       9.929   1.769  20.535  0.00  0.00    +0.292 HD
ENDBRANCH   7  22
BRANCH  10  24
ATOM     24  O   UNL     1      10.661  -2.292  22.659  0.00  0.00    -0.506 OA
ATOM     25  H   UNL     1      11.536  -2.082  23.025  0.00  0.00    +0.292 HD
ENDBRANCH  10  24
BRANCH   1  26
ATOM     26  O   UNL     1       7.513  -3.284  26.649  0.00  0.00    -0.453 OA
BRANCH  26  29
ATOM     27  C   UNL     1       5.259  -5.178  24.540  0.00  0.00    +0.191 C 
ATOM     28  O   UNL     1       5.703  -4.068  25.332  0.00  0.00    -0.330 OA
ATOM     29  C   UNL     1       6.789  -4.456  26.190  0.00  0.00    +0.340 C 
ATOM     30  C   UNL     1       6.194  -5.348  27.305  0.00  0.00    +0.214 C 
ATOM     31  C   UNL     1       5.548  -6.566  26.591  0.00  0.00    +0.180 C 
ATOM     32  C   UNL     1       4.560  -6.169  25.478  0.00  0.00    +0.178 C 
BRANCH  30  33
ATOM     33  O   UNL     1       7.232  -5.776  28.204  0.00  0.00    -0.383 OA
ATOM     34  H   UNL     1       7.035  -5.402  29.083  0.00  0.00    +0.210 HD
ENDBRANCH  30  33
BRANCH  31  35
ATOM     35  O   UNL     1       4.891  -7.436  27.527  0.00  0.00    -0.386 OA
ATOM     36  H   UNL     1       4.394  -8.074  26.969  0.00  0.00    +0.210 HD
ENDBRANCH  31  35
BRANCH  32  37
ATOM     37  O   UNL     1       4.137  -7.367  24.816  0.00  0.00    -0.386 OA
ATOM     38  H   UNL     1       3.206  -7.232  24.555  0.00  0.00    +0.210 HD
ENDBRANCH  32  37
BRANCH  27  39
ATOM     39  C   UNL     1       4.369  -4.667  23.400  0.00  0.00    +0.266 C 
BRANCH  39  40
ATOM     40  O   UNL     1       4.850  -5.104  22.111  0.00  0.00    -0.462 OA
BRANCH  40  42
ATOM     41  C   UNL     1       7.010  -5.748  21.446  0.00  0.00    +0.136 C 
ATOM     42  C   UNL     1       6.069  -4.617  21.736  0.00  0.00    +0.304 C 
ATOM     43  O   UNL     1       6.370  -3.437  21.631  0.00  0.00    -0.251 OA
ENDBRANCH  40  42
ENDBRANCH  39  40
ENDBRANCH  27  39
ENDBRANCH  26  29
ENDBRANCH   1  26
TORSDOF 13
ENDMDL
MODEL 3
REMARK VINA RESULT:      -7.2      2.500      4.470
REMARK  Name = 
REMARK  14 active torsions:
REMARK  status: ('A' for Active; 'I' for Inactive)
REMARK    1  A    between atoms: C_1  and  C_2
REMARK    2  A    between atoms: C_2  and  O_4
REMARK    3  A    between atoms: O_4  and  C_5
REMARK    4  A    between atoms: C_5  and  C_6
REMARK    5  A    between atoms: C_8  and  O_41
REMARK    6  A    between atoms: C_10  and  O_40
REMARK    7  A    between atoms: C_12  and  O_39
REMARK    8  A    between atoms: C_14  and  O_17
REMARK    9  A    between atoms: O_17  and  C_18
REMARK   10  A    between atoms: C_19  and  C_31
REMARK   11  A    between atoms: C_23  and  O_30
REMARK   12  A    between atoms: C_25  and  O_29
REMARK   13  A    between atoms: C_33  and  O_38
REMARK   14  A    between atoms: C_34  and  O_37
REMARK                            x       y       z     vdW  Elec       q    Type
REMARK                         _______ _______ _______ _____ _____    ______ ____
ROOT
ATOM      1  C   UNL     1       7.804   2.097  24.056  0.00  0.00    +0.214 A 
ATOM      2  C   UNL     1       8.150   3.492  24.500  0.00  0.00    +0.238 A 
ATOM      3  O   UNL     1       7.489   4.120  25.317  0.00  0.00    -0.283 OA
ATOM      4  C   UNL     1       9.377   4.099  24.024  0.00  0.00    +0.109 A 
ATOM      5  C   UNL     1      10.368   3.223  23.617  0.00  0.00    +0.147 A 
ATOM      6  C   UNL     1      11.634   3.725  23.322  0.00  0.00    +0.092 A 
ATOM      7  C   UNL     1      11.880   5.092  23.448  0.00  0.00    +0.124 A 
ATOM      8  C   UNL     1      10.882   5.977  23.834  0.00  0.00    +0.091 A 
ATOM      9  O   UNL     1      10.165   1.874  23.555  0.00  0.00    -0.451 OA
ATOM     10  C   UNL     1       9.617   5.475  24.107  0.00  0.00    +0.135 A 
ATOM     11  C   UNL     1       8.873   1.326  23.707  0.00  0.00    +0.181 A 
ENDROOT
BRANCH  11  12
ATOM     12  C   UNL     1       8.923  -0.172  23.553  0.00  0.00    +0.025 A 
ATOM     13  C   UNL     1       9.707  -0.932  24.473  0.00  0.00    +0.015 A 
ATOM     14  C   UNL     1       9.651  -2.331  24.551  0.00  0.00    +0.050 A 
ATOM     15  C   UNL     1       8.822  -3.010  23.685  0.00  0.00    +0.158 A 
ATOM     16  C   UNL     1       8.121  -2.320  22.705  0.00  0.00    +0.159 A 
ATOM     17  C   UNL     1       8.166  -0.920  22.630  0.00  0.00    +0.060 A 
BRANCH  15  18
ATOM     18  O   UNL     1       8.691  -4.364  23.812  0.00  0.00    -0.503 OA
ATOM     19  H   UNL     1       8.532  -4.684  22.901  0.00  0.00    +0.292 HD
ENDBRANCH  15  18
BRANCH  16  20
ATOM     20  O   UNL     1       7.375  -3.067  21.832  0.00  0.00    -0.503 OA
ATOM     21  H   UNL     1       7.984  -3.474  21.192  0.00  0.00    +0.292 HD
ENDBRANCH  16  20
ENDBRANCH  11  12
BRANCH   7  22
ATOM     22  O   UNL     1      13.110   5.628  23.193  0.00  0.00    -0.507 OA
ATOM     23  H   UNL     1      13.585   5.054  22.575  0.00  0.00    +0.292 HD
ENDBRANCH   7  22
BRANCH  10  24
ATOM     24  O   UNL     1       8.611   6.347  24.418  0.00  0.00    -0.506 OA
ATOM     25  H   UNL     1       7.958   5.912  24.990  0.00  0.00    +0.292 HD
ENDBRANCH  10  24
BRANCH   1  26
ATOM     26  O   UNL     1       6.469   1.641  24.126  0.00  0.00    -0.453 OA
BRANCH  26  29
ATOM     27  C   UNL     1       5.648  -1.616  25.481  0.00  0.00    +0.191 C 
ATOM     28  O   UNL     1       5.509  -0.468  24.632  0.00  0.00    -0.330 OA
ATOM     29  C   UNL     1       6.243   0.649  25.162  0.00  0.00    +0.340 C 
ATOM     30  C   UNL     1       5.473   1.152  26.406  0.00  0.00    +0.214 C 
ATOM     31  C   UNL     1       5.423  -0.040  27.400  0.00  0.00    +0.180 C 
ATOM     32  C   UNL     1       4.873  -1.335  26.774  0.00  0.00    +0.178 C 
BRANCH  30  33
ATOM     33  O   UNL     1       6.156   2.275  26.992  0.00  0.00    -0.383 OA
ATOM     34  H   UNL     1       6.626   1.956  27.784  0.00  0.00    +0.210 HD
ENDBRANCH  30  33
BRANCH  31  35
ATOM     35  O   UNL     1       4.661   0.286  28.573  0.00  0.00    -0.386 OA
ATOM     36  H   UNL     1       4.378  -0.582  28.936  0.00  0.00    +0.210 HD
ENDBRANCH  31  35
BRANCH  32  37
ATOM     37  O   UNL     1       5.000  -2.382  27.743  0.00  0.00    -0.386 OA
ATOM     38  H   UNL     1       4.111  -2.527  28.120  0.00  0.00    +0.210 HD
ENDBRANCH  32  37
BRANCH  27  39
ATOM     39  C   UNL     1       5.172  -2.865  24.729  0.00  0.00    +0.266 C 
BRANCH  39  40
ATOM     40  O   UNL     1       5.818  -4.060  25.217  0.00  0.00    -0.462 OA
BRANCH  40  42
ATOM     41  C   UNL     1       4.908  -6.225  25.280  0.00  0.00    +0.136 C 
ATOM     42  C   UNL     1       5.625  -5.186  24.470  0.00  0.00    +0.304 C 
ATOM     43  O   UNL     1       5.964  -5.345  23.307  0.00  0.00    -0.251 OA
ENDBRANCH  40  42
ENDBRANCH  39  40
ENDBRANCH  27  39
ENDBRANCH  26  29
ENDBRANCH   1  26
TORSDOF 13
ENDMDL
MODEL 4
REMARK VINA RESULT:      -7.2      2.458      7.844
REMARK  Name = 
REMARK  14 active torsions:
REMARK  status: ('A' for Active; 'I' for Inactive)
REMARK    1  A    between atoms: C_1  and  C_2
REMARK    2  A    between atoms: C_2  and  O_4
REMARK    3  A    between atoms: O_4  and  C_5
REMARK    4  A    between atoms: C_5  and  C_6
REMARK    5  A    between atoms: C_8  and  O_41
REMARK    6  A    between atoms: C_10  and  O_40
REMARK    7  A    between atoms: C_12  and  O_39
REMARK    8  A    between atoms: C_14  and  O_17
REMARK    9  A    between atoms: O_17  and  C_18
REMARK   10  A    between atoms: C_19  and  C_31
REMARK   11  A    between atoms: C_23  and  O_30
REMARK   12  A    between atoms: C_25  and  O_29
REMARK   13  A    between atoms: C_33  and  O_38
REMARK   14  A    between atoms: C_34  and  O_37
REMARK                            x       y       z     vdW  Elec       q    Type
REMARK                         _______ _______ _______ _____ _____    ______ ____
ROOT
ATOM      1  C   UNL     1       6.680  -1.318  24.702  0.00  0.00    +0.214 A 
ATOM      2  C   UNL     1       5.516  -2.271  24.641  0.00  0.00    +0.238 A 
ATOM      3  O   UNL     1       4.435  -2.044  25.168  0.00  0.00    -0.283 OA
ATOM      4  C   UNL     1       5.632  -3.473  23.839  0.00  0.00    +0.109 A 
ATOM      5  C   UNL     1       6.565  -3.432  22.818  0.00  0.00    +0.147 A 
ATOM      6  C   UNL     1       6.603  -4.476  21.896  0.00  0.00    +0.092 A 
ATOM      7  C   UNL     1       5.701  -5.534  22.016  0.00  0.00    +0.124 A 
ATOM      8  C   UNL     1       4.779  -5.589  23.052  0.00  0.00    +0.091 A 
ATOM      9  O   UNL     1       7.409  -2.372  22.646  0.00  0.00    -0.451 OA
ATOM     10  C   UNL     1       4.759  -4.557  23.980  0.00  0.00    +0.135 A 
ATOM     11  C   UNL     1       7.509  -1.357  23.621  0.00  0.00    +0.181 A 
ENDROOT
BRANCH  11  12
ATOM     12  C   UNL     1       8.537  -0.336  23.204  0.00  0.00    +0.025 A 
ATOM     13  C   UNL     1       8.255   0.505  22.087  0.00  0.00    +0.015 A 
ATOM     14  C   UNL     1       9.039   1.619  21.753  0.00  0.00    +0.050 A 
ATOM     15  C   UNL     1      10.147   1.904  22.519  0.00  0.00    +0.158 A 
ATOM     16  C   UNL     1      10.517   1.053  23.552  0.00  0.00    +0.159 A 
ATOM     17  C   UNL     1       9.731  -0.056  23.897  0.00  0.00    +0.060 A 
BRANCH  15  18
ATOM     18  O   UNL     1      10.864   3.037  22.259  0.00  0.00    -0.503 OA
ATOM     19  H   UNL     1      11.272   3.274  23.116  0.00  0.00    +0.292 HD
ENDBRANCH  15  18
BRANCH  16  20
ATOM     20  O   UNL     1      11.670   1.358  24.226  0.00  0.00    -0.503 OA
ATOM     21  H   UNL     1      12.053   2.154  23.816  0.00  0.00    +0.292 HD
ENDBRANCH  16  20
ENDBRANCH  11  12
BRANCH   7  22
ATOM     22  O   UNL     1       5.684  -6.568  21.124  0.00  0.00    -0.507 OA
ATOM     23  H   UNL     1       5.965  -7.379  21.572  0.00  0.00    +0.292 HD
ENDBRANCH   7  22
BRANCH  10  24
ATOM     24  O   UNL     1       3.903  -4.638  25.043  0.00  0.00    -0.506 OA
ATOM     25  H   UNL     1       4.037  -5.476  25.515  0.00  0.00    +0.292 HD
ENDBRANCH  10  24
BRANCH   1  26
ATOM     26  O   UNL     1       6.787  -0.398  25.769  0.00  0.00    -0.453 OA
BRANCH  26  29
ATOM     27  C   UNL     1       7.267   3.091  24.921  0.00  0.00    +0.191 C 
ATOM     28  O   UNL     1       7.473   1.869  25.644  0.00  0.00    -0.330 OA
ATOM     29  C   UNL     1       6.388   0.954  25.418  0.00  0.00    +0.340 C 
ATOM     30  C   UNL     1       5.161   1.503  26.183  0.00  0.00    +0.214 C 
ATOM     31  C   UNL     1       4.873   2.910  25.593  0.00  0.00    +0.180 C 
ATOM     32  C   UNL     1       6.104   3.835  25.587  0.00  0.00    +0.178 C 
BRANCH  30  33
ATOM     33  O   UNL     1       4.030   0.632  25.999  0.00  0.00    -0.383 OA
ATOM     34  H   UNL     1       4.258  -0.233  26.384  0.00  0.00    +0.210 HD
ENDBRANCH  30  33
BRANCH  31  35
ATOM     35  O   UNL     1       3.790   3.557  26.281  0.00  0.00    -0.386 OA
ATOM     36  H   UNL     1       3.488   4.261  25.665  0.00  0.00    +0.210 HD
ENDBRANCH  31  35
BRANCH  32  37
ATOM     37  O   UNL     1       5.745   5.042  24.905  0.00  0.00    -0.386 OA
ATOM     38  H   UNL     1       4.793   5.185  25.066  0.00  0.00    +0.210 HD
ENDBRANCH  32  37
BRANCH  27  39
ATOM     39  C   UNL     1       8.577   3.888  24.884  0.00  0.00    +0.266 C 
BRANCH  39  40
ATOM     40  O   UNL     1       8.629   4.776  23.748  0.00  0.00    -0.462 OA
BRANCH  40  42
ATOM     41  C   UNL     1       8.825   7.041  24.341  0.00  0.00    +0.136 C 
ATOM     42  C   UNL     1       9.517   5.809  23.841  0.00  0.00    +0.304 C 
ATOM     43  O   UNL     1      10.709   5.757  23.577  0.00  0.00    -0.251 OA
ENDBRANCH  40  42
ENDBRANCH  39  40
ENDBRANCH  27  39
ENDBRANCH  26  29
ENDBRANCH   1  26
TORSDOF 13
ENDMDL
MODEL 5
REMARK VINA RESULT:      -7.2      2.402      7.677
REMARK  Name = 
REMARK  14 active torsions:
REMARK  status: ('A' for Active; 'I' for Inactive)
REMARK    1  A    between atoms: C_1  and  C_2
REMARK    2  A    between atoms: C_2  and  O_4
REMARK    3  A    between atoms: O_4  and  C_5
REMARK    4  A    between atoms: C_5  and  C_6
REMARK    5  A    between atoms: C_8  and  O_41
REMARK    6  A    between atoms: C_10  and  O_40
REMARK    7  A    between atoms: C_12  and  O_39
REMARK    8  A    between atoms: C_14  and  O_17
REMARK    9  A    between atoms: O_17  and  C_18
REMARK   10  A    between atoms: C_19  and  C_31
REMARK   11  A    between atoms: C_23  and  O_30
REMARK   12  A    between atoms: C_25  and  O_29
REMARK   13  A    between atoms: C_33  and  O_38
REMARK   14  A    between atoms: C_34  and  O_37
REMARK                            x       y       z     vdW  Elec       q    Type
REMARK                         _______ _______ _______ _____ _____    ______ ____
ROOT
ATOM      1  C   UNL     1       8.137  -2.478  25.106  0.00  0.00    +0.214 A 
ATOM      2  C   UNL     1       8.164  -3.859  24.509  0.00  0.00    +0.238 A 
ATOM      3  O   UNL     1       9.125  -4.611  24.601  0.00  0.00    -0.283 OA
ATOM      4  C   UNL     1       6.967  -4.376  23.877  0.00  0.00    +0.109 A 
ATOM      5  C   UNL     1       5.773  -3.809  24.285  0.00  0.00    +0.147 A 
ATOM      6  C   UNL     1       4.574  -4.378  23.860  0.00  0.00    +0.092 A 
ATOM      7  C   UNL     1       4.600  -5.507  23.041  0.00  0.00    +0.124 A 
ATOM      8  C   UNL     1       5.796  -6.066  22.612  0.00  0.00    +0.091 A 
ATOM      9  O   UNL     1       5.729  -2.745  25.141  0.00  0.00    -0.451 OA
ATOM     10  C   UNL     1       6.987  -5.483  23.021  0.00  0.00    +0.135 A 
ATOM     11  C   UNL     1       6.903  -2.046  25.492  0.00  0.00    +0.181 A 
ENDROOT
BRANCH  11  12
ATOM     12  C   UNL     1       6.569  -0.898  26.411  0.00  0.00    +0.025 A 
ATOM     13  C   UNL     1       5.222  -0.430  26.464  0.00  0.00    +0.015 A 
ATOM     14  C   UNL     1       4.766   0.477  27.431  0.00  0.00    +0.050 A 
ATOM     15  C   UNL     1       5.660   0.961  28.360  0.00  0.00    +0.158 A 
ATOM     16  C   UNL     1       7.002   0.614  28.282  0.00  0.00    +0.159 A 
ATOM     17  C   UNL     1       7.462  -0.301  27.322  0.00  0.00    +0.060 A 
BRANCH  15  18
ATOM     18  O   UNL     1       5.209   1.773  29.360  0.00  0.00    -0.503 OA
ATOM     19  H   UNL     1       4.374   1.359  29.658  0.00  0.00    +0.292 HD
ENDBRANCH  15  18
BRANCH  16  20
ATOM     20  O   UNL     1       7.848   1.190  29.192  0.00  0.00    -0.503 OA
ATOM     21  H   UNL     1       7.434   2.015  29.501  0.00  0.00    +0.292 HD
ENDBRANCH  16  20
ENDBRANCH  11  12
BRANCH   7  22
ATOM     22  O   UNL     1       3.452  -6.114  22.618  0.00  0.00    -0.507 OA
ATOM     23  H   UNL     1       3.398  -6.055  21.654  0.00  0.00    +0.292 HD
ENDBRANCH   7  22
BRANCH  10  24
ATOM     24  O   UNL     1       8.167  -5.983  22.545  0.00  0.00    -0.506 OA
ATOM     25  H   UNL     1       8.884  -5.347  22.698  0.00  0.00    +0.292 HD
ENDBRANCH  10  24
BRANCH   1  26
ATOM     26  O   UNL     1       9.344  -1.778  25.331  0.00  0.00    -0.453 OA
BRANCH  26  29
ATOM     27  C   UNL     1       9.614   1.494  23.802  0.00  0.00    +0.191 C 
ATOM     28  O   UNL     1       8.995   0.429  24.538  0.00  0.00    -0.330 OA
ATOM     29  C   UNL     1       9.665  -0.818  24.290  0.00  0.00    +0.340 C 
ATOM     30  C   UNL     1       9.303  -1.253  22.850  0.00  0.00    +0.214 C 
ATOM     31  C   UNL     1       9.806  -0.122  21.913  0.00  0.00    +0.180 C 
ATOM     32  C   UNL     1       9.303   1.276  22.317  0.00  0.00    +0.178 C 
BRANCH  30  33
ATOM     33  O   UNL     1       9.945  -2.501  22.533  0.00  0.00    -0.383 OA
ATOM     34  H   UNL     1      10.244  -2.901  23.370  0.00  0.00    +0.210 HD
ENDBRANCH  30  33
BRANCH  31  35
ATOM     35  O   UNL     1       9.457  -0.380  20.544  0.00  0.00    -0.386 OA
ATOM     36  H   UNL     1       8.567   0.021  20.433  0.00  0.00    +0.210 HD
ENDBRANCH  31  35
BRANCH  32  37
ATOM     37  O   UNL     1       9.936   2.236  21.463  0.00  0.00    -0.386 OA
ATOM     38  H   UNL     1      10.172   1.769  20.639  0.00  0.00    +0.210 HD
ENDBRANCH  32  37
BRANCH  27  39
ATOM     39  C   UNL     1       9.127   2.842  24.350  0.00  0.00    +0.266 C 
BRANCH  39  40
ATOM     40  O   UNL     1       9.411   3.922  23.436  0.00  0.00    -0.462 OA
BRANCH  40  42
ATOM     41  C   UNL     1      10.347   5.919  24.246  0.00  0.00    +0.136 C 
ATOM     42  C   UNL     1      10.594   4.572  23.636  0.00  0.00    +0.304 C 
ATOM     43  O   UNL     1      11.707   4.137  23.377  0.00  0.00    -0.251 OA
ENDBRANCH  40  42
ENDBRANCH  39  40
ENDBRANCH  27  39
ENDBRANCH  26  29
ENDBRANCH   1  26
TORSDOF 13
ENDMDL
MODEL 6
REMARK VINA RESULT:      -7.1      1.717      3.509
REMARK  Name = 
REMARK  14 active torsions:
REMARK  status: ('A' for Active; 'I' for Inactive)
REMARK    1  A    between atoms: C_1  and  C_2
REMARK    2  A    between atoms: C_2  and  O_4
REMARK    3  A    between atoms: O_4  and  C_5
REMARK    4  A    between atoms: C_5  and  C_6
REMARK    5  A    between atoms: C_8  and  O_41
REMARK    6  A    between atoms: C_10  and  O_40
REMARK    7  A    between atoms: C_12  and  O_39
REMARK    8  A    between atoms: C_14  and  O_17
REMARK    9  A    between atoms: O_17  and  C_18
REMARK   10  A    between atoms: C_19  and  C_31
REMARK   11  A    between atoms: C_23  and  O_30
REMARK   12  A    between atoms: C_25  and  O_29
REMARK   13  A    between atoms: C_33  and  O_38
REMARK   14  A    between atoms: C_34  and  O_37
REMARK                            x       y       z     vdW  Elec       q    Type
REMARK                         _______ _______ _______ _____ _____    ______ ____
ROOT
ATOM      1  C   UNL     1       5.986  -0.967  24.862  0.00  0.00    +0.214 A 
ATOM      2  C   UNL     1       6.792   0.125  25.511  0.00  0.00    +0.238 A 
ATOM      3  O   UNL     1       6.826   0.306  26.721  0.00  0.00    -0.283 OA
ATOM      4  C   UNL     1       7.653   0.949  24.686  0.00  0.00    +0.109 A 
ATOM      5  C   UNL     1       8.060   0.390  23.487  0.00  0.00    +0.147 A 
ATOM      6  C   UNL     1       9.030   1.043  22.731  0.00  0.00    +0.092 A 
ATOM      7  C   UNL     1       9.576   2.240  23.196  0.00  0.00    +0.124 A 
ATOM      8  C   UNL     1       9.154   2.816  24.387  0.00  0.00    +0.091 A 
ATOM      9  O   UNL     1       7.587  -0.815  23.050  0.00  0.00    -0.451 OA
ATOM     10  C   UNL     1       8.172   2.171  25.127  0.00  0.00    +0.135 A 
ATOM     11  C   UNL     1       6.509  -1.452  23.700  0.00  0.00    +0.181 A 
ENDROOT
BRANCH  11  12
ATOM     12  C   UNL     1       6.162  -2.737  22.994  0.00  0.00    +0.025 A 
ATOM     13  C   UNL     1       7.163  -3.379  22.205  0.00  0.00    +0.015 A 
ATOM     14  C   UNL     1       7.014  -4.674  21.688  0.00  0.00    +0.050 A 
ATOM     15  C   UNL     1       5.840  -5.353  21.927  0.00  0.00    +0.158 A 
ATOM     16  C   UNL     1       4.799  -4.728  22.601  0.00  0.00    +0.159 A 
ATOM     17  C   UNL     1       4.947  -3.437  23.130  0.00  0.00    +0.060 A 
BRANCH  15  18
ATOM     18  O   UNL     1       5.719  -6.647  21.507  0.00  0.00    -0.503 OA
ATOM     19  H   UNL     1       6.014  -6.632  20.574  0.00  0.00    +0.292 HD
ENDBRANCH  15  18
BRANCH  16  20
ATOM     20  O   UNL     1       3.634  -5.436  22.740  0.00  0.00    -0.503 OA
ATOM     21  H   UNL     1       3.787  -6.133  23.402  0.00  0.00    +0.292 HD
ENDBRANCH  16  20
ENDBRANCH  11  12
BRANCH   7  22
ATOM     22  O   UNL     1      10.545   2.906  22.503  0.00  0.00    -0.507 OA
ATOM     23  H   UNL     1      10.357   2.846  21.555  0.00  0.00    +0.292 HD
ENDBRANCH   7  22
BRANCH  10  24
ATOM     24  O   UNL     1       7.700   2.767  26.263  0.00  0.00    -0.506 OA
ATOM     25  H   UNL     1       7.748   2.146  27.008  0.00  0.00    +0.292 HD
ENDBRANCH  10  24
BRANCH   1  26
ATOM     26  O   UNL     1       4.846  -1.489  25.514  0.00  0.00    -0.453 OA
BRANCH  26  29
ATOM     27  C   UNL     1       6.628  -4.058  27.342  0.00  0.00    +0.191 C 
ATOM     28  O   UNL     1       5.960  -3.459  26.222  0.00  0.00    -0.330 OA
ATOM     29  C   UNL     1       5.158  -2.343  26.645  0.00  0.00    +0.340 C 
ATOM     30  C   UNL     1       3.936  -2.919  27.399  0.00  0.00    +0.214 C 
ATOM     31  C   UNL     1       4.502  -3.721  28.601  0.00  0.00    +0.180 C 
ATOM     32  C   UNL     1       5.566  -4.759  28.197  0.00  0.00    +0.178 C 
BRANCH  30  33
ATOM     33  O   UNL     1       3.086  -1.851  27.855  0.00  0.00    -0.383 OA
ATOM     34  H   UNL     1       2.372  -2.247  28.387  0.00  0.00    +0.210 HD
ENDBRANCH  30  33
BRANCH  31  35
ATOM     35  O   UNL     1       3.456  -4.370  29.340  0.00  0.00    -0.386 OA
ATOM     36  H   UNL     1       3.374  -5.259  28.929  0.00  0.00    +0.210 HD
ENDBRANCH  31  35
BRANCH  32  37
ATOM     37  O   UNL     1       6.100  -5.334  29.395  0.00  0.00    -0.386 OA
ATOM     38  H   UNL     1       7.066  -5.191  29.372  0.00  0.00    +0.210 HD
ENDBRANCH  32  37
BRANCH  27  39
ATOM     39  C   UNL     1       7.734  -4.992  26.834  0.00  0.00    +0.266 C 
BRANCH  39  40
ATOM     40  O   UNL     1       7.992  -4.797  25.427  0.00  0.00    -0.462 OA
BRANCH  40  42
ATOM     41  C   UNL     1       9.362  -2.923  25.068  0.00  0.00    +0.136 C 
ATOM     42  C   UNL     1       9.263  -4.418  25.104  0.00  0.00    +0.304 C 
ATOM     43  O   UNL     1      10.203  -5.168  24.885  0.00  0.00    -0.251 OA
ENDBRANCH  40  42
ENDBRANCH  39  40
ENDBRANCH  27  39
ENDBRANCH  26  29
ENDBRANCH   1  26
TORSDOF 13
ENDMDL
MODEL 7
REMARK VINA RESULT:      -7.0      2.112      3.102
REMARK  Name = 
REMARK  14 active torsions:
REMARK  status: ('A' for Active; 'I' for Inactive)
REMARK    1  A    between atoms: C_1  and  C_2
REMARK    2  A    between atoms: C_2  and  O_4
REMARK    3  A    between atoms: O_4  and  C_5
REMARK    4  A    between atoms: C_5  and  C_6
REMARK    5  A    between atoms: C_8  and  O_41
REMARK    6  A    between atoms: C_10  and  O_40
REMARK    7  A    between atoms: C_12  and  O_39
REMARK    8  A    between atoms: C_14  and  O_17
REMARK    9  A    between atoms: O_17  and  C_18
REMARK   10  A    between atoms: C_19  and  C_31
REMARK   11  A    between atoms: C_23  and  O_30
REMARK   12  A    between atoms: C_25  and  O_29
REMARK   13  A    between atoms: C_33  and  O_38
REMARK   14  A    between atoms: C_34  and  O_37
REMARK                            x       y       z     vdW  Elec       q    Type
REMARK                         _______ _______ _______ _____ _____    ______ ____
ROOT
ATOM      1  C   UNL     1       6.514  -0.719  24.435  0.00  0.00    +0.214 A 
ATOM      2  C   UNL     1       7.012   0.542  25.088  0.00  0.00    +0.238 A 
ATOM      3  O   UNL     1       6.694   0.881  26.220  0.00  0.00    -0.283 OA
ATOM      4  C   UNL     1       7.994   1.353  24.396  0.00  0.00    +0.109 A 
ATOM      5  C   UNL     1       8.763   0.698  23.451  0.00  0.00    +0.147 A 
ATOM      6  C   UNL     1       9.845   1.364  22.881  0.00  0.00    +0.092 A 
ATOM      7  C   UNL     1      10.135   2.671  23.275  0.00  0.00    +0.124 A 
ATOM      8  C   UNL     1       9.352   3.339  24.206  0.00  0.00    +0.091 A 
ATOM      9  O   UNL     1       8.535  -0.604  23.104  0.00  0.00    -0.451 OA
ATOM     10  C   UNL     1       8.262   2.678  24.757  0.00  0.00    +0.135 A 
ATOM     11  C   UNL     1       7.378  -1.281  23.543  0.00  0.00    +0.181 A 
ENDROOT
BRANCH  11  12
ATOM     12  C   UNL     1       7.353  -2.681  22.986  0.00  0.00    +0.025 A 
ATOM     13  C   UNL     1       8.074  -3.706  23.668  0.00  0.00    +0.015 A 
ATOM     14  C   UNL     1       7.943  -5.067  23.360  0.00  0.00    +0.050 A 
ATOM     15  C   UNL     1       7.100  -5.437  22.336  0.00  0.00    +0.158 A 
ATOM     16  C   UNL     1       6.458  -4.468  21.577  0.00  0.00    +0.159 A 
ATOM     17  C   UNL     1       6.578  -3.105  21.888  0.00  0.00    +0.060 A 
BRANCH  15  18
ATOM     18  O   UNL     1       6.894  -6.764  22.086  0.00  0.00    -0.503 OA
ATOM     19  H   UNL     1       6.655  -7.145  22.955  0.00  0.00    +0.292 HD
ENDBRANCH  15  18
BRANCH  16  20
ATOM     20  O   UNL     1       5.693  -4.904  20.528  0.00  0.00    -0.503 OA
ATOM     21  H   UNL     1       5.670  -5.876  20.561  0.00  0.00    +0.292 HD
ENDBRANCH  16  20
ENDBRANCH  11  12
BRANCH   7  22
ATOM     22  O   UNL     1      11.198   3.357  22.761  0.00  0.00    -0.507 OA
ATOM     23  H   UNL     1      11.059   4.305  22.897  0.00  0.00    +0.292 HD
ENDBRANCH   7  22
BRANCH  10  24
ATOM     24  O   UNL     1       7.445   3.352  25.620  0.00  0.00    -0.506 OA
ATOM     25  H   UNL     1       7.969   3.744  26.337  0.00  0.00    +0.292 HD
ENDBRANCH  10  24
BRANCH   1  26
ATOM     26  O   UNL     1       5.287  -1.291  24.841  0.00  0.00    -0.453 OA
BRANCH  26  29
ATOM     27  C   UNL     1       5.652  -4.519  26.443  0.00  0.00    +0.191 C 
ATOM     28  O   UNL     1       5.128  -3.560  25.514  0.00  0.00    -0.330 OA
ATOM     29  C   UNL     1       5.413  -2.220  25.950  0.00  0.00    +0.340 C 
ATOM     30  C   UNL     1       4.498  -1.931  27.164  0.00  0.00    +0.214 C 
ATOM     31  C   UNL     1       4.859  -2.987  28.243  0.00  0.00    +0.180 C 
ATOM     32  C   UNL     1       4.811  -4.435  27.722  0.00  0.00    +0.178 C 
BRANCH  30  33
ATOM     33  O   UNL     1       4.732  -0.599  27.656  0.00  0.00    -0.383 OA
ATOM     34  H   UNL     1       4.145  -0.458  28.420  0.00  0.00    +0.210 HD
ENDBRANCH  30  33
BRANCH  31  35
ATOM     35  O   UNL     1       4.016  -2.865  29.400  0.00  0.00    -0.386 OA
ATOM     36  H   UNL     1       4.062  -1.915  29.645  0.00  0.00    +0.210 HD
ENDBRANCH  31  35
BRANCH  32  37
ATOM     37  O   UNL     1       5.286  -5.295  28.764  0.00  0.00    -0.386 OA
ATOM     38  H   UNL     1       5.927  -4.776  29.288  0.00  0.00    +0.210 HD
ENDBRANCH  32  37
BRANCH  27  39
ATOM     39  C   UNL     1       5.658  -5.908  25.791  0.00  0.00    +0.266 C 
BRANCH  39  40
ATOM     40  O   UNL     1       4.638  -6.762  26.348  0.00  0.00    -0.462 OA
BRANCH  40  42
ATOM     41  C   UNL     1       2.345  -6.568  25.875  0.00  0.00    +0.136 C 
ATOM     42  C   UNL     1       3.663  -7.165  25.481  0.00  0.00    +0.304 C 
ATOM     43  O   UNL     1       3.818  -7.892  24.512  0.00  0.00    -0.251 OA
ENDBRANCH  40  42
ENDBRANCH  39  40
ENDBRANCH  27  39
ENDBRANCH  26  29
ENDBRANCH   1  26
TORSDOF 13
ENDMDL
MODEL 8
REMARK VINA RESULT:      -6.8      2.502      7.459
REMARK  Name = 
REMARK  14 active torsions:
REMARK  status: ('A' for Active; 'I' for Inactive)
REMARK    1  A    between atoms: C_1  and  C_2
REMARK    2  A    between atoms: C_2  and  O_4
REMARK    3  A    between atoms: O_4  and  C_5
REMARK    4  A    between atoms: C_5  and  C_6
REMARK    5  A    between atoms: C_8  and  O_41
REMARK    6  A    between atoms: C_10  and  O_40
REMARK    7  A    between atoms: C_12  and  O_39
REMARK    8  A    between atoms: C_14  and  O_17
REMARK    9  A    between atoms: O_17  and  C_18
REMARK   10  A    between atoms: C_19  and  C_31
REMARK   11  A    between atoms: C_23  and  O_30
REMARK   12  A    between atoms: C_25  and  O_29
REMARK   13  A    between atoms: C_33  and  O_38
REMARK   14  A    between atoms: C_34  and  O_37
REMARK                            x       y       z     vdW  Elec       q    Type
REMARK                         _______ _______ _______ _____ _____    ______ ____
ROOT
ATOM      1  C   UNL     1       4.928  -2.625  25.439  0.00  0.00    +0.214 A 
ATOM      2  C   UNL     1       3.495  -3.085  25.394  0.00  0.00    +0.238 A 
ATOM      3  O   UNL     1       2.562  -2.413  25.811  0.00  0.00    -0.283 OA
ATOM      4  C   UNL     1       3.178  -4.339  24.738  0.00  0.00    +0.109 A 
ATOM      5  C   UNL     1       4.088  -4.774  23.791  0.00  0.00    +0.147 A 
ATOM      6  C   UNL     1       3.761  -5.868  22.994  0.00  0.00    +0.092 A 
ATOM      7  C   UNL     1       2.528  -6.498  23.159  0.00  0.00    +0.124 A 
ATOM      8  C   UNL     1       1.622  -6.077  24.123  0.00  0.00    +0.091 A 
ATOM      9  O   UNL     1       5.271  -4.128  23.569  0.00  0.00    -0.451 OA
ATOM     10  C   UNL     1       1.960  -5.000  24.930  0.00  0.00    +0.135 A 
ATOM     11  C   UNL     1       5.714  -3.105  24.434  0.00  0.00    +0.181 A 
ENDROOT
BRANCH  11  12
ATOM     12  C   UNL     1       7.060  -2.593  23.987  0.00  0.00    +0.025 A 
ATOM     13  C   UNL     1       8.227  -3.029  24.684  0.00  0.00    +0.015 A 
ATOM     14  C   UNL     1       9.527  -2.787  24.220  0.00  0.00    +0.050 A 
ATOM     15  C   UNL     1       9.694  -2.075  23.053  0.00  0.00    +0.158 A 
ATOM     16  C   UNL     1       8.592  -1.543  22.398  0.00  0.00    +0.159 A 
ATOM     17  C   UNL     1       7.288  -1.791  22.851  0.00  0.00    +0.060 A 
BRANCH  15  18
ATOM     18  O   UNL     1      10.951  -1.912  22.545  0.00  0.00    -0.503 OA
ATOM     19  H   UNL     1      10.811  -1.683  21.605  0.00  0.00    +0.292 HD
ENDBRANCH  15  18
BRANCH  16  20
ATOM     20  O   UNL     1       8.837  -0.784  21.284  0.00  0.00    -0.503 OA
ATOM     21  H   UNL     1       8.966   0.136  21.574  0.00  0.00    +0.292 HD
ENDBRANCH  16  20
ENDBRANCH  11  12
BRANCH   7  22
ATOM     22  O   UNL     1       2.152  -7.559  22.386  0.00  0.00    -0.507 OA
ATOM     23  H   UNL     1       1.880  -7.237  21.514  0.00  0.00    +0.292 HD
ENDBRANCH   7  22
BRANCH  10  24
ATOM     24  O   UNL     1       1.105  -4.625  25.929  0.00  0.00    -0.506 OA
ATOM     25  H   UNL     1       0.268  -4.311  25.550  0.00  0.00    +0.292 HD
ENDBRANCH  10  24
BRANCH   1  26
ATOM     26  O   UNL     1       5.339  -1.680  26.404  0.00  0.00    -0.453 OA
BRANCH  26  29
ATOM     27  C   UNL     1       6.993   1.278  25.128  0.00  0.00    +0.191 C 
ATOM     28  O   UNL     1       6.785   0.154  25.994  0.00  0.00    -0.330 OA
ATOM     29  C   UNL     1       5.433  -0.324  25.892  0.00  0.00    +0.340 C 
ATOM     30  C   UNL     1       4.527   0.715  26.594  0.00  0.00    +0.214 C 
ATOM     31  C   UNL     1       4.732   2.055  25.837  0.00  0.00    +0.180 C 
ATOM     32  C   UNL     1       6.212   2.463  25.706  0.00  0.00    +0.178 C 
BRANCH  30  33
ATOM     33  O   UNL     1       3.152   0.298  26.528  0.00  0.00    -0.383 OA
ATOM     34  H   UNL     1       2.945  -0.173  27.356  0.00  0.00    +0.210 HD
ENDBRANCH  30  33
BRANCH  31  35
ATOM     35  O   UNL     1       3.992   3.123  26.448  0.00  0.00    -0.386 OA
ATOM     36  H   UNL     1       3.598   3.617  25.696  0.00  0.00    +0.210 HD
ENDBRANCH  31  35
BRANCH  32  37
ATOM     37  O   UNL     1       6.275   3.634  24.884  0.00  0.00    -0.386 OA
ATOM     38  H   UNL     1       6.989   4.194  25.244  0.00  0.00    +0.210 HD
ENDBRANCH  32  37
BRANCH  27  39
ATOM     39  C   UNL     1       8.498   1.537  24.981  0.00  0.00    +0.266 C 
BRANCH  39  40
ATOM     40  O   UNL     1       8.810   2.171  23.723  0.00  0.00    -0.462 OA
BRANCH  40  42
ATOM     41  C   UNL     1      10.919   1.239  24.175  0.00  0.00    +0.136 C 
ATOM     42  C   UNL     1       9.983   1.787  23.140  0.00  0.00    +0.304 C 
ATOM     43  O   UNL     1      10.250   1.856  21.949  0.00  0.00    -0.251 OA
ENDBRANCH  40  42
ENDBRANCH  39  40
ENDBRANCH  27  39
ENDBRANCH  26  29
ENDBRANCH   1  26
TORSDOF 13
ENDMDL
MODEL 9
REMARK VINA RESULT:      -6.8      2.449      7.465
REMARK  Name = 
REMARK  14 active torsions:
REMARK  status: ('A' for Active; 'I' for Inactive)
REMARK    1  A    between atoms: C_1  and  C_2
REMARK    2  A    between atoms: C_2  and  O_4
REMARK    3  A    between atoms: O_4  and  C_5
REMARK    4  A    between atoms: C_5  and  C_6
REMARK    5  A    between atoms: C_8  and  O_41
REMARK    6  A    between atoms: C_10  and  O_40
REMARK    7  A    between atoms: C_12  and  O_39
REMARK    8  A    between atoms: C_14  and  O_17
REMARK    9  A    between atoms: O_17  and  C_18
REMARK   10  A    between atoms: C_19  and  C_31
REMARK   11  A    between atoms: C_23  and  O_30
REMARK   12  A    between atoms: C_25  and  O_29
REMARK   13  A    between atoms: C_33  and  O_38
REMARK   14  A    between atoms: C_34  and  O_37
REMARK                            x       y       z     vdW  Elec       q    Type
REMARK                         _______ _______ _______ _____ _____    ______ ____
ROOT
ATOM      1  C   UNL     1       6.487  -3.408  26.254  0.00  0.00    +0.214 A 
ATOM      2  C   UNL     1       5.286  -3.978  26.958  0.00  0.00    +0.238 A 
ATOM      3  O   UNL     1       4.661  -3.370  27.817  0.00  0.00    -0.283 OA
ATOM      4  C   UNL     1       4.770  -5.267  26.541  0.00  0.00    +0.109 A 
ATOM      5  C   UNL     1       5.078  -5.653  25.249  0.00  0.00    +0.147 A 
ATOM      6  C   UNL     1       4.468  -6.787  24.719  0.00  0.00    +0.092 A 
ATOM      7  C   UNL     1       3.558  -7.506  25.495  0.00  0.00    +0.124 A 
ATOM      8  C   UNL     1       3.264  -7.135  26.799  0.00  0.00    +0.091 A 
ATOM      9  O   UNL     1       5.913  -4.923  24.451  0.00  0.00    -0.451 OA
ATOM     10  C   UNL     1       3.890  -6.016  27.330  0.00  0.00    +0.135 A 
ATOM     11  C   UNL     1       6.663  -3.848  24.976  0.00  0.00    +0.181 A 
ENDROOT
BRANCH  11  12
ATOM     12  C   UNL     1       7.529  -3.245  23.900  0.00  0.00    +0.025 A 
ATOM     13  C   UNL     1       6.900  -2.591  22.798  0.00  0.00    +0.015 A 
ATOM     14  C   UNL     1       7.606  -1.818  21.865  0.00  0.00    +0.050 A 
ATOM     15  C   UNL     1       8.972  -1.702  21.997  0.00  0.00    +0.158 A 
ATOM     16  C   UNL     1       9.637  -2.406  22.992  0.00  0.00    +0.159 A 
ATOM     17  C   UNL     1       8.935  -3.172  23.934  0.00  0.00    +0.060 A 
BRANCH  15  18
ATOM     18  O   UNL     1       9.657  -0.880  21.149  0.00  0.00    -0.503 OA
ATOM     19  H   UNL     1      10.546  -1.282  21.078  0.00  0.00    +0.292 HD
ENDBRANCH  15  18
BRANCH  16  20
ATOM     20  O   UNL     1      11.003  -2.302  23.019  0.00  0.00    -0.503 OA
ATOM     21  H   UNL     1      11.239  -1.403  22.732  0.00  0.00    +0.292 HD
ENDBRANCH  16  20
ENDBRANCH  11  12
BRANCH   7  22
ATOM     22  O   UNL     1       2.917  -8.611  25.012  0.00  0.00    -0.507 OA
ATOM     23  H   UNL     1       3.556  -9.173  24.550  0.00  0.00    +0.292 HD
ENDBRANCH   7  22
BRANCH  10  24
ATOM     24  O   UNL     1       3.661  -5.685  28.637  0.00  0.00    -0.506 OA
ATOM     25  H   UNL     1       2.708  -5.705  28.823  0.00  0.00    +0.292 HD
ENDBRANCH  10  24
BRANCH   1  26
ATOM     26  O   UNL     1       7.268  -2.411  26.879  0.00  0.00    -0.453 OA
BRANCH  26  29
ATOM     27  C   UNL     1       8.623   0.484  25.175  0.00  0.00    +0.191 C 
ATOM     28  O   UNL     1       8.541  -0.535  26.182  0.00  0.00    -0.330 OA
ATOM     29  C   UNL     1       7.231  -1.127  26.201  0.00  0.00    +0.340 C 
ATOM     30  C   UNL     1       6.266  -0.083  26.809  0.00  0.00    +0.214 C 
ATOM     31  C   UNL     1       6.332   1.163  25.885  0.00  0.00    +0.180 C 
ATOM     32  C   UNL     1       7.766   1.667  25.639  0.00  0.00    +0.178 C 
BRANCH  30  33
ATOM     33  O   UNL     1       4.929  -0.611  26.858  0.00  0.00    -0.383 OA
ATOM     34  H   UNL     1       4.400  -0.025  27.429  0.00  0.00    +0.210 HD
ENDBRANCH  30  33
BRANCH  31  35
ATOM     35  O   UNL     1       5.527   2.238  26.394  0.00  0.00    -0.386 OA
ATOM     36  H   UNL     1       5.867   2.397  27.302  0.00  0.00    +0.210 HD
ENDBRANCH  31  35
BRANCH  32  37
ATOM     37  O   UNL     1       7.702   2.726  24.676  0.00  0.00    -0.386 OA
ATOM     38  H   UNL     1       7.555   3.553  25.175  0.00  0.00    +0.210 HD
ENDBRANCH  32  37
BRANCH  27  39
ATOM     39  C   UNL     1      10.096   0.839  24.930  0.00  0.00    +0.266 C 
BRANCH  39  40
ATOM     40  O   UNL     1      10.422   0.820  23.525  0.00  0.00    -0.462 OA
BRANCH  40  42
ATOM     41  C   UNL     1      10.949   3.099  23.300  0.00  0.00    +0.136 C 
ATOM     42  C   UNL     1      10.108   1.951  22.827  0.00  0.00    +0.304 C 
ATOM     43  O   UNL     1       9.279   2.037  21.934  0.00  0.00    -0.251 OA
ENDBRANCH  40  42
ENDBRANCH  39  40
ENDBRANCH  27  39
ENDBRANCH  26  29
ENDBRANCH   1  26
TORSDOF 13
ENDMDL
