MODEL 1
REMARK VINA RESULT:      -7.5      0.000      0.000
REMARK  Name = 
REMARK  11 active torsions:
REMARK  status: ('A' for Active; 'I' for Inactive)
REMARK    1  A    between atoms: C_3  and  O_35
REMARK    2  A    between atoms: C_4  and  O_34
REMARK    3  A    between atoms: C_6  and  C_7
REMARK    4  A    between atoms: C_8  and  O_20
REMARK    5  A    between atoms: C_12  and  O_19
REMARK    6  A    between atoms: C_14  and  O_18
REMARK    7  A    between atoms: O_20  and  C_21
REMARK    8  A    between atoms: C_23  and  O_33
REMARK    9  A    between atoms: C_25  and  O_32
REMARK   10  A    between atoms: C_27  and  C_30
REMARK   11  A    between atoms: C_30  and  O_31
REMARK                            x       y       z     vdW  Elec       q    Type
REMARK                         _______ _______ _______ _____ _____    ______ ____
ROOT
ATOM      1  C   UNL     1       7.399  -1.972  22.875  0.00  0.00    +0.181 A 
ATOM      2  O   UNL     1       6.885  -0.829  22.300  0.00  0.00    -0.451 OA
ATOM      3  C   UNL     1       7.475   0.370  22.588  0.00  0.00    +0.147 A 
ATOM      4  C   UNL     1       8.664   0.468  23.297  0.00  0.00    +0.109 A 
ATOM      5  C   UNL     1       9.208   1.739  23.541  0.00  0.00    +0.135 A 
ATOM      6  C   UNL     1       8.546   2.897  23.107  0.00  0.00    +0.091 A 
ATOM      7  C   UNL     1       7.348   2.771  22.411  0.00  0.00    +0.124 A 
ATOM      8  C   UNL     1       9.308  -0.789  23.763  0.00  0.00    +0.238 A 
ATOM      9  O   UNL     1      10.427  -0.717  24.275  0.00  0.00    -0.283 OA
ATOM     10  C   UNL     1       6.812   1.519  22.147  0.00  0.00    +0.092 A 
ATOM     11  C   UNL     1       8.541  -2.072  23.599  0.00  0.00    +0.214 A 
ENDROOT
BRANCH   1  13
ATOM     12  C   UNL     1       5.210  -2.965  23.378  0.00  0.00    +0.015 A 
ATOM     13  C   UNL     1       6.462  -3.099  22.751  0.00  0.00    +0.025 A 
ATOM     14  C   UNL     1       6.747  -4.255  22.017  0.00  0.00    +0.060 A 
ATOM     15  C   UNL     1       5.810  -5.283  21.996  0.00  0.00    +0.159 A 
ATOM     16  C   UNL     1       4.602  -5.173  22.681  0.00  0.00    +0.158 A 
ATOM     17  C   UNL     1       4.283  -4.005  23.356  0.00  0.00    +0.050 A 
BRANCH  15  18
ATOM     18  O   UNL     1       6.084  -6.426  21.300  0.00  0.00    -0.503 OA
ATOM     19  H   UNL     1       5.711  -7.146  21.849  0.00  0.00    +0.292 HD
ENDBRANCH  15  18
BRANCH  16  20
ATOM     20  O   UNL     1       3.752  -6.246  22.664  0.00  0.00    -0.503 OA
ATOM     21  H   UNL     1       3.255  -6.247  23.500  0.00  0.00    +0.292 HD
ENDBRANCH  16  20
ENDBRANCH   1  13
BRANCH   5  22
ATOM     22  O   UNL     1      10.383   1.932  24.211  0.00  0.00    -0.506 OA
ATOM     23  H   UNL     1      10.547   1.147  24.795  0.00  0.00    +0.292 HD
ENDBRANCH   5  22
BRANCH   7  24
ATOM     24  O   UNL     1       6.655   3.861  21.980  0.00  0.00    -0.507 OA
ATOM     25  H   UNL     1       5.825   3.569  21.571  0.00  0.00    +0.292 HD
ENDBRANCH   7  24
BRANCH  11  26
ATOM     26  O   UNL     1       8.944  -3.308  24.083  0.00  0.00    -0.453 OA
BRANCH  26  27
ATOM     27  C   UNL     1       9.507  -3.446  25.393  0.00  0.00    +0.340 C 
ATOM     28  O   UNL     1       8.713  -2.775  26.385  0.00  0.00    -0.331 OA
ATOM     29  C   UNL     1       7.710  -3.700  26.881  0.00  0.00    +0.179 C 
ATOM     30  C   UNL     1       8.000  -5.070  26.267  0.00  0.00    +0.180 C 
ATOM     31  C   UNL     1       9.447  -4.925  25.821  0.00  0.00    +0.214 C 
BRANCH  30  32
ATOM     32  O   UNL     1       7.792  -6.123  27.212  0.00  0.00    -0.386 OA
ATOM     33  H   UNL     1       7.492  -5.742  28.056  0.00  0.00    +0.210 HD
ENDBRANCH  30  32
BRANCH  31  34
ATOM     34  O   UNL     1       9.808  -5.864  24.815  0.00  0.00    -0.383 OA
ATOM     35  H   UNL     1       9.036  -5.981  24.230  0.00  0.00    +0.210 HD
ENDBRANCH  31  34
BRANCH  29  36
ATOM     36  C   UNL     1       6.321  -3.189  26.485  0.00  0.00    +0.190 C 
BRANCH  36  37
ATOM     37  O   UNL     1       5.297  -4.131  26.802  0.00  0.00    -0.392 OA
ATOM     38  H   UNL     1       5.563  -4.594  27.615  0.00  0.00    +0.210 HD
ENDBRANCH  36  37
ENDBRANCH  29  36
ENDBRANCH  26  27
ENDBRANCH  11  26
TORSDOF 11
ENDMDL
MODEL 2
REMARK VINA RESULT:      -7.5      2.568      7.044
REMARK  Name = 
REMARK  11 active torsions:
REMARK  status: ('A' for Active; 'I' for Inactive)
REMARK    1  A    between atoms: C_3  and  O_35
REMARK    2  A    between atoms: C_4  and  O_34
REMARK    3  A    between atoms: C_6  and  C_7
REMARK    4  A    between atoms: C_8  and  O_20
REMARK    5  A    between atoms: C_12  and  O_19
REMARK    6  A    between atoms: C_14  and  O_18
REMARK    7  A    between atoms: O_20  and  C_21
REMARK    8  A    between atoms: C_23  and  O_33
REMARK    9  A    between atoms: C_25  and  O_32
REMARK   10  A    between atoms: C_27  and  C_30
REMARK   11  A    between atoms: C_30  and  O_31
REMARK                            x       y       z     vdW  Elec       q    Type
REMARK                         _______ _______ _______ _____ _____    ______ ____
ROOT
ATOM      1  C   UNL     1       6.838  -2.119  24.979  0.00  0.00    +0.181 A 
ATOM      2  O   UNL     1       6.174  -3.265  25.366  0.00  0.00    -0.451 OA
ATOM      3  C   UNL     1       6.060  -4.289  24.468  0.00  0.00    +0.147 A 
ATOM      4  C   UNL     1       6.723  -4.292  23.248  0.00  0.00    +0.109 A 
ATOM      5  C   UNL     1       6.559  -5.389  22.388  0.00  0.00    +0.135 A 
ATOM      6  C   UNL     1       5.713  -6.452  22.736  0.00  0.00    +0.091 A 
ATOM      7  C   UNL     1       5.049  -6.417  23.958  0.00  0.00    +0.124 A 
ATOM      8  C   UNL     1       7.582  -3.125  22.915  0.00  0.00    +0.238 A 
ATOM      9  O   UNL     1       8.276  -3.182  21.896  0.00  0.00    -0.283 OA
ATOM     10  C   UNL     1       5.220  -5.347  24.825  0.00  0.00    +0.092 A 
ATOM     11  C   UNL     1       7.536  -1.935  23.832  0.00  0.00    +0.214 A 
ENDROOT
BRANCH   1  13
ATOM     12  C   UNL     1       5.359  -0.314  25.747  0.00  0.00    +0.015 A 
ATOM     13  C   UNL     1       6.572  -1.010  25.909  0.00  0.00    +0.025 A 
ATOM     14  C   UNL     1       7.440  -0.655  26.946  0.00  0.00    +0.060 A 
ATOM     15  C   UNL     1       7.117   0.437  27.745  0.00  0.00    +0.159 A 
ATOM     16  C   UNL     1       5.950   1.168  27.532  0.00  0.00    +0.158 A 
ATOM     17  C   UNL     1       5.052   0.783  26.549  0.00  0.00    +0.050 A 
BRANCH  15  18
ATOM     18  O   UNL     1       7.967   0.808  28.749  0.00  0.00    -0.503 OA
ATOM     19  H   UNL     1       7.571   1.624  29.119  0.00  0.00    +0.292 HD
ENDBRANCH  15  18
BRANCH  16  20
ATOM     20  O   UNL     1       5.725   2.265  28.319  0.00  0.00    -0.503 OA
ATOM     21  H   UNL     1       5.402   2.982  27.746  0.00  0.00    +0.292 HD
ENDBRANCH  16  20
ENDBRANCH   1  13
BRANCH   5  22
ATOM     22  O   UNL     1       7.187  -5.490  21.178  0.00  0.00    -0.506 OA
ATOM     23  H   UNL     1       8.134  -5.742  21.333  0.00  0.00    +0.292 HD
ENDBRANCH   5  22
BRANCH   7  24
ATOM     24  O   UNL     1       4.203  -7.414  24.339  0.00  0.00    -0.507 OA
ATOM     25  H   UNL     1       3.290  -7.150  24.140  0.00  0.00    +0.292 HD
ENDBRANCH   7  24
BRANCH  11  26
ATOM     26  O   UNL     1       8.181  -0.728  23.604  0.00  0.00    -0.453 OA
BRANCH  26  27
ATOM     27  C   UNL     1       7.708   0.192  22.614  0.00  0.00    +0.340 C 
ATOM     28  O   UNL     1       7.391   1.471  23.186  0.00  0.00    -0.331 OA
ATOM     29  C   UNL     1       8.585   2.298  23.169  0.00  0.00    +0.179 C 
ATOM     30  C   UNL     1       9.665   1.534  22.402  0.00  0.00    +0.180 C 
ATOM     31  C   UNL     1       8.849   0.510  21.627  0.00  0.00    +0.214 C 
BRANCH  30  32
ATOM     32  O   UNL     1      10.431   2.407  21.569  0.00  0.00    -0.386 OA
ATOM     33  H   UNL     1      10.014   3.287  21.555  0.00  0.00    +0.210 HD
ENDBRANCH  30  32
BRANCH  31  34
ATOM     34  O   UNL     1       9.624  -0.608  21.213  0.00  0.00    -0.383 OA
ATOM     35  H   UNL     1      10.146  -0.334  20.436  0.00  0.00    +0.210 HD
ENDBRANCH  31  34
BRANCH  29  36
ATOM     36  C   UNL     1       9.015   2.582  24.611  0.00  0.00    +0.190 C 
BRANCH  36  37
ATOM     37  O   UNL     1       9.590   1.433  25.232  0.00  0.00    -0.392 OA
ATOM     38  H   UNL     1       9.491   1.536  26.193  0.00  0.00    +0.210 HD
ENDBRANCH  36  37
ENDBRANCH  29  36
ENDBRANCH  26  27
ENDBRANCH  11  26
TORSDOF 11
ENDMDL
MODEL 3
REMARK VINA RESULT:      -7.0      2.459      3.563
REMARK  Name = 
REMARK  11 active torsions:
REMARK  status: ('A' for Active; 'I' for Inactive)
REMARK    1  A    between atoms: C_3  and  O_35
REMARK    2  A    between atoms: C_4  and  O_34
REMARK    3  A    between atoms: C_6  and  C_7
REMARK    4  A    between atoms: C_8  and  O_20
REMARK    5  A    between atoms: C_12  and  O_19
REMARK    6  A    between atoms: C_14  and  O_18
REMARK    7  A    between atoms: O_20  and  C_21
REMARK    8  A    between atoms: C_23  and  O_33
REMARK    9  A    between atoms: C_25  and  O_32
REMARK   10  A    between atoms: C_27  and  C_30
REMARK   11  A    between atoms: C_30  and  O_31
REMARK                            x       y       z     vdW  Elec       q    Type
REMARK                         _______ _______ _______ _____ _____    ______ ____
ROOT
ATOM      1  C   UNL     1       5.954  -0.297  24.718  0.00  0.00    +0.181 A 
ATOM      2  O   UNL     1       5.329   0.889  24.392  0.00  0.00    -0.451 OA
ATOM      3  C   UNL     1       5.975   1.761  23.561  0.00  0.00    +0.147 A 
ATOM      4  C   UNL     1       7.152   1.434  22.902  0.00  0.00    +0.109 A 
ATOM      5  C   UNL     1       7.745   2.386  22.057  0.00  0.00    +0.135 A 
ATOM      6  C   UNL     1       7.180   3.660  21.905  0.00  0.00    +0.091 A 
ATOM      7  C   UNL     1       6.008   3.967  22.589  0.00  0.00    +0.124 A 
ATOM      8  C   UNL     1       7.727   0.081  23.123  0.00  0.00    +0.238 A 
ATOM      9  O   UNL     1       8.695  -0.262  22.440  0.00  0.00    -0.283 OA
ATOM     10  C   UNL     1       5.402   3.027  23.411  0.00  0.00    +0.092 A 
ATOM     11  C   UNL     1       7.102  -0.782  24.185  0.00  0.00    +0.214 A 
ENDROOT
BRANCH   1  13
ATOM     12  C   UNL     1       5.292  -0.232  27.083  0.00  0.00    +0.015 A 
ATOM     13  C   UNL     1       5.303  -0.943  25.869  0.00  0.00    +0.025 A 
ATOM     14  C   UNL     1       4.676  -2.191  25.793  0.00  0.00    +0.060 A 
ATOM     15  C   UNL     1       4.126  -2.735  26.948  0.00  0.00    +0.159 A 
ATOM     16  C   UNL     1       4.184  -2.058  28.165  0.00  0.00    +0.158 A 
ATOM     17  C   UNL     1       4.745  -0.792  28.236  0.00  0.00    +0.050 A 
BRANCH  15  18
ATOM     18  O   UNL     1       3.529  -3.963  26.893  0.00  0.00    -0.503 OA
ATOM     19  H   UNL     1       4.114  -4.547  27.419  0.00  0.00    +0.292 HD
ENDBRANCH  15  18
BRANCH  16  20
ATOM     20  O   UNL     1       3.674  -2.679  29.272  0.00  0.00    -0.503 OA
ATOM     21  H   UNL     1       3.756  -3.639  29.141  0.00  0.00    +0.292 HD
ENDBRANCH  16  20
ENDBRANCH   1  13
BRANCH   5  22
ATOM     22  O   UNL     1       8.891   2.147  21.351  0.00  0.00    -0.506 OA
ATOM     23  H   UNL     1       9.645   2.065  21.991  0.00  0.00    +0.292 HD
ENDBRANCH   5  22
BRANCH   7  24
ATOM     24  O   UNL     1       5.425   5.193  22.491  0.00  0.00    -0.507 OA
ATOM     25  H   UNL     1       5.840   5.795  23.131  0.00  0.00    +0.292 HD
ENDBRANCH   7  24
BRANCH  11  26
ATOM     26  O   UNL     1       7.587  -2.015  24.596  0.00  0.00    -0.453 OA
BRANCH  26  27
ATOM     27  C   UNL     1       8.834  -2.130  25.291  0.00  0.00    +0.340 C 
ATOM     28  O   UNL     1       8.670  -2.757  26.573  0.00  0.00    -0.331 OA
ATOM     29  C   UNL     1       8.801  -4.194  26.408  0.00  0.00    +0.179 C 
ATOM     30  C   UNL     1       9.220  -4.457  24.961  0.00  0.00    +0.180 C 
ATOM     31  C   UNL     1       9.755  -3.101  24.528  0.00  0.00    +0.214 C 
BRANCH  30  32
ATOM     32  O   UNL     1      10.184  -5.509  24.878  0.00  0.00    -0.386 OA
ATOM     33  H   UNL     1      10.115  -6.071  25.670  0.00  0.00    +0.210 HD
ENDBRANCH  30  32
BRANCH  31  34
ATOM     34  O   UNL     1       9.768  -2.942  23.114  0.00  0.00    -0.383 OA
ATOM     35  H   UNL     1       9.337  -3.726  22.725  0.00  0.00    +0.210 HD
ENDBRANCH  31  34
BRANCH  29  36
ATOM     36  C   UNL     1       7.459  -4.857  26.734  0.00  0.00    +0.190 C 
BRANCH  36  37
ATOM     37  O   UNL     1       7.608  -5.934  27.657  0.00  0.00    -0.392 OA
ATOM     38  H   UNL     1       8.232  -5.649  28.346  0.00  0.00    +0.210 HD
ENDBRANCH  36  37
ENDBRANCH  29  36
ENDBRANCH  26  27
ENDBRANCH  11  26
TORSDOF 11
ENDMDL
MODEL 4
REMARK VINA RESULT:      -6.8      2.519      7.041
REMARK  Name = 
REMARK  11 active torsions:
REMARK  status: ('A' for Active; 'I' for Inactive)
REMARK    1  A    between atoms: C_3  and  O_35
REMARK    2  A    between atoms: C_4  and  O_34
REMARK    3  A    between atoms: C_6  and  C_7
REMARK    4  A    between atoms: C_8  and  O_20
REMARK    5  A    between atoms: C_12  and  O_19
REMARK    6  A    between atoms: C_14  and  O_18
REMARK    7  A    between atoms: O_20  and  C_21
REMARK    8  A    between atoms: C_23  and  O_33
REMARK    9  A    between atoms: C_25  and  O_32
REMARK   10  A    between atoms: C_27  and  C_30
REMARK   11  A    between atoms: C_30  and  O_31
REMARK                            x       y       z     vdW  Elec       q    Type
REMARK                         _______ _______ _______ _____ _____    ______ ____
ROOT
ATOM      1  C   UNL     1       6.860  -2.153  25.177  0.00  0.00    +0.181 A 
ATOM      2  O   UNL     1       6.159  -3.294  25.509  0.00  0.00    -0.451 OA
ATOM      3  C   UNL     1       6.068  -4.297  24.585  0.00  0.00    +0.147 A 
ATOM      4  C   UNL     1       6.785  -4.288  23.397  0.00  0.00    +0.109 A 
ATOM      5  C   UNL     1       6.641  -5.364  22.507  0.00  0.00    +0.135 A 
ATOM      6  C   UNL     1       5.762  -6.418  22.794  0.00  0.00    +0.091 A 
ATOM      7  C   UNL     1       5.043  -6.395  23.985  0.00  0.00    +0.124 A 
ATOM      8  C   UNL     1       7.680  -3.131  23.127  0.00  0.00    +0.238 A 
ATOM      9  O   UNL     1       8.418  -3.180  22.141  0.00  0.00    -0.283 OA
ATOM     10  C   UNL     1       5.193  -5.346  24.881  0.00  0.00    +0.092 A 
ATOM     11  C   UNL     1       7.613  -1.959  24.067  0.00  0.00    +0.214 A 
ENDROOT
BRANCH   1  13
ATOM     12  C   UNL     1       5.306  -0.449  26.023  0.00  0.00    +0.015 A 
ATOM     13  C   UNL     1       6.571  -1.058  26.116  0.00  0.00    +0.025 A 
ATOM     14  C   UNL     1       7.471  -0.636  27.100  0.00  0.00    +0.060 A 
ATOM     15  C   UNL     1       7.120   0.438  27.912  0.00  0.00    +0.159 A 
ATOM     16  C   UNL     1       5.895   1.084  27.766  0.00  0.00    +0.158 A 
ATOM     17  C   UNL     1       4.970   0.630  26.838  0.00  0.00    +0.050 A 
BRANCH  15  18
ATOM     18  O   UNL     1       7.998   0.874  28.864  0.00  0.00    -0.503 OA
ATOM     19  H   UNL     1       8.312   0.058  29.305  0.00  0.00    +0.292 HD
ENDBRANCH  15  18
BRANCH  16  20
ATOM     20  O   UNL     1       5.640   2.168  28.560  0.00  0.00    -0.503 OA
ATOM     21  H   UNL     1       4.690   2.169  28.769  0.00  0.00    +0.292 HD
ENDBRANCH  16  20
ENDBRANCH   1  13
BRANCH   5  22
ATOM     22  O   UNL     1       7.322  -5.452  21.326  0.00  0.00    -0.506 OA
ATOM     23  H   UNL     1       6.895  -6.151  20.766  0.00  0.00    +0.292 HD
ENDBRANCH   5  22
BRANCH   7  24
ATOM     24  O   UNL     1       4.163  -7.383  24.306  0.00  0.00    -0.507 OA
ATOM     25  H   UNL     1       3.728  -7.161  25.146  0.00  0.00    +0.292 HD
ENDBRANCH   7  24
BRANCH  11  26
ATOM     26  O   UNL     1       8.290  -0.760  23.893  0.00  0.00    -0.453 OA
BRANCH  26  27
ATOM     27  C   UNL     1       9.639  -0.730  23.415  0.00  0.00    +0.340 C 
ATOM     28  O   UNL     1       9.713  -0.239  22.067  0.00  0.00    -0.331 OA
ATOM     29  C   UNL     1       9.853   1.206  22.105  0.00  0.00    +0.179 C 
ATOM     30  C   UNL     1      10.027   1.615  23.569  0.00  0.00    +0.180 C 
ATOM     31  C   UNL     1      10.444   0.306  24.223  0.00  0.00    +0.214 C 
BRANCH  30  32
ATOM     32  O   UNL     1      10.992   2.660  23.709  0.00  0.00    -0.386 OA
ATOM     33  H   UNL     1      11.482   2.535  24.541  0.00  0.00    +0.210 HD
ENDBRANCH  30  32
BRANCH  31  34
ATOM     34  O   UNL     1      10.212   0.296  25.626  0.00  0.00    -0.383 OA
ATOM     35  H   UNL     1       9.514   0.951  25.814  0.00  0.00    +0.210 HD
ENDBRANCH  31  34
BRANCH  29  36
ATOM     36  C   UNL     1       8.605   1.844  21.488  0.00  0.00    +0.190 C 
BRANCH  36  37
ATOM     37  O   UNL     1       8.371   3.156  21.998  0.00  0.00    -0.392 OA
ATOM     38  H   UNL     1       7.830   3.633  21.346  0.00  0.00    +0.210 HD
ENDBRANCH  36  37
ENDBRANCH  29  36
ENDBRANCH  26  27
ENDBRANCH  11  26
TORSDOF 11
ENDMDL
MODEL 5
REMARK VINA RESULT:      -6.8      2.840      7.702
REMARK  Name = 
REMARK  11 active torsions:
REMARK  status: ('A' for Active; 'I' for Inactive)
REMARK    1  A    between atoms: C_3  and  O_35
REMARK    2  A    between atoms: C_4  and  O_34
REMARK    3  A    between atoms: C_6  and  C_7
REMARK    4  A    between atoms: C_8  and  O_20
REMARK    5  A    between atoms: C_12  and  O_19
REMARK    6  A    between atoms: C_14  and  O_18
REMARK    7  A    between atoms: O_20  and  C_21
REMARK    8  A    between atoms: C_23  and  O_33
REMARK    9  A    between atoms: C_25  and  O_32
REMARK   10  A    between atoms: C_27  and  C_30
REMARK   11  A    between atoms: C_30  and  O_31
REMARK                            x       y       z     vdW  Elec       q    Type
REMARK                         _______ _______ _______ _____ _____    ______ ____
ROOT
ATOM      1  C   UNL     1       6.955  -0.869  24.793  0.00  0.00    +0.181 A 
ATOM      2  O   UNL     1       7.550  -2.084  25.063  0.00  0.00    -0.451 OA
ATOM      3  C   UNL     1       6.936  -2.931  25.943  0.00  0.00    +0.147 A 
ATOM      4  C   UNL     1       5.665  -2.694  26.446  0.00  0.00    +0.109 A 
ATOM      5  C   UNL     1       5.103  -3.621  27.338  0.00  0.00    +0.135 A 
ATOM      6  C   UNL     1       5.825  -4.753  27.744  0.00  0.00    +0.091 A 
ATOM      7  C   UNL     1       7.104  -4.959  27.236  0.00  0.00    +0.124 A 
ATOM      8  C   UNL     1       4.955  -1.463  26.009  0.00  0.00    +0.238 A 
ATOM      9  O   UNL     1       3.779  -1.315  26.347  0.00  0.00    -0.283 OA
ATOM     10  C   UNL     1       7.660  -4.059  26.337  0.00  0.00    +0.092 A 
ATOM     11  C   UNL     1       5.727  -0.460  25.196  0.00  0.00    +0.214 A 
ENDROOT
BRANCH   1  13
ATOM     12  C   UNL     1       8.861   0.676  24.925  0.00  0.00    +0.015 A 
ATOM     13  C   UNL     1       7.892   0.046  24.122  0.00  0.00    +0.025 A 
ATOM     14  C   UNL     1       7.881   0.277  22.743  0.00  0.00    +0.060 A 
ATOM     15  C   UNL     1       8.782   1.194  22.211  0.00  0.00    +0.159 A 
ATOM     16  C   UNL     1       9.690   1.870  23.023  0.00  0.00    +0.158 A 
ATOM     17  C   UNL     1       9.753   1.598  24.381  0.00  0.00    +0.050 A 
BRANCH  15  18
ATOM     18  O   UNL     1       8.768   1.445  20.868  0.00  0.00    -0.503 OA
ATOM     19  H   UNL     1       7.875   1.172  20.573  0.00  0.00    +0.292 HD
ENDBRANCH  15  18
BRANCH  16  20
ATOM     20  O   UNL     1      10.508   2.799  22.440  0.00  0.00    -0.503 OA
ATOM     21  H   UNL     1       9.952   3.394  21.907  0.00  0.00    +0.292 HD
ENDBRANCH  16  20
ENDBRANCH   1  13
BRANCH   5  22
ATOM     22  O   UNL     1       3.851  -3.484  27.869  0.00  0.00    -0.506 OA
ATOM     23  H   UNL     1       3.337  -2.849  27.306  0.00  0.00    +0.292 HD
ENDBRANCH   5  22
BRANCH   7  24
ATOM     24  O   UNL     1       7.856  -6.031  27.607  0.00  0.00    -0.507 OA
ATOM     25  H   UNL     1       8.063  -6.562  26.820  0.00  0.00    +0.292 HD
ENDBRANCH   7  24
BRANCH  11  26
ATOM     26  O   UNL     1       5.254   0.786  24.811  0.00  0.00    -0.453 OA
BRANCH  26  27
ATOM     27  C   UNL     1       5.297   1.906  25.702  0.00  0.00    +0.340 C 
ATOM     28  O   UNL     1       6.049   2.997  25.146  0.00  0.00    -0.331 OA
ATOM     29  C   UNL     1       5.151   3.836  24.374  0.00  0.00    +0.179 C 
ATOM     30  C   UNL     1       3.730   3.314  24.591  0.00  0.00    +0.180 C 
ATOM     31  C   UNL     1       3.879   2.488  25.859  0.00  0.00    +0.214 C 
BRANCH  30  32
ATOM     32  O   UNL     1       2.791   4.386  24.710  0.00  0.00    -0.386 OA
ATOM     33  H   UNL     1       1.891   4.042  24.570  0.00  0.00    +0.210 HD
ENDBRANCH  30  32
BRANCH  31  34
ATOM     34  O   UNL     1       2.841   1.527  26.012  0.00  0.00    -0.383 OA
ATOM     35  H   UNL     1       2.564   1.538  26.948  0.00  0.00    +0.210 HD
ENDBRANCH  31  34
BRANCH  29  36
ATOM     36  C   UNL     1       5.554   3.772  22.898  0.00  0.00    +0.190 C 
BRANCH  36  37
ATOM     37  O   UNL     1       5.154   2.545  22.290  0.00  0.00    -0.392 OA
ATOM     38  H   UNL     1       5.010   2.717  21.344  0.00  0.00    +0.210 HD
ENDBRANCH  36  37
ENDBRANCH  29  36
ENDBRANCH  26  27
ENDBRANCH  11  26
TORSDOF 11
ENDMDL
MODEL 6
REMARK VINA RESULT:      -6.7      2.203      3.430
REMARK  Name = 
REMARK  11 active torsions:
REMARK  status: ('A' for Active; 'I' for Inactive)
REMARK    1  A    between atoms: C_3  and  O_35
REMARK    2  A    between atoms: C_4  and  O_34
REMARK    3  A    between atoms: C_6  and  C_7
REMARK    4  A    between atoms: C_8  and  O_20
REMARK    5  A    between atoms: C_12  and  O_19
REMARK    6  A    between atoms: C_14  and  O_18
REMARK    7  A    between atoms: O_20  and  C_21
REMARK    8  A    between atoms: C_23  and  O_33
REMARK    9  A    between atoms: C_25  and  O_32
REMARK   10  A    between atoms: C_27  and  C_30
REMARK   11  A    between atoms: C_30  and  O_31
REMARK                            x       y       z     vdW  Elec       q    Type
REMARK                         _______ _______ _______ _____ _____    ______ ____
ROOT
ATOM      1  C   UNL     1       7.904  -1.731  24.063  0.00  0.00    +0.181 A 
ATOM      2  O   UNL     1       8.844  -1.088  23.285  0.00  0.00    -0.451 OA
ATOM      3  C   UNL     1       9.070   0.243  23.501  0.00  0.00    +0.147 A 
ATOM      4  C   UNL     1       8.519   0.931  24.573  0.00  0.00    +0.109 A 
ATOM      5  C   UNL     1       8.812   2.296  24.727  0.00  0.00    +0.135 A 
ATOM      6  C   UNL     1       9.619   2.965  23.796  0.00  0.00    +0.091 A 
ATOM      7  C   UNL     1      10.146   2.255  22.722  0.00  0.00    +0.124 A 
ATOM      8  C   UNL     1       7.644   0.182  25.513  0.00  0.00    +0.238 A 
ATOM      9  O   UNL     1       7.261   0.753  26.537  0.00  0.00    -0.283 OA
ATOM     10  C   UNL     1       9.880   0.901  22.572  0.00  0.00    +0.092 A 
ATOM     11  C   UNL     1       7.261  -1.225  25.144  0.00  0.00    +0.214 A 
ENDROOT
BRANCH   1  13
ATOM     12  C   UNL     1       8.018  -4.184  24.135  0.00  0.00    +0.015 A 
ATOM     13  C   UNL     1       7.535  -3.033  23.485  0.00  0.00    +0.025 A 
ATOM     14  C   UNL     1       6.709  -3.167  22.364  0.00  0.00    +0.060 A 
ATOM     15  C   UNL     1       6.454  -4.442  21.870  0.00  0.00    +0.159 A 
ATOM     16  C   UNL     1       6.997  -5.574  22.474  0.00  0.00    +0.158 A 
ATOM     17  C   UNL     1       7.762  -5.455  23.624  0.00  0.00    +0.050 A 
BRANCH  15  18
ATOM     18  O   UNL     1       5.666  -4.586  20.763  0.00  0.00    -0.503 OA
ATOM     19  H   UNL     1       5.548  -3.676  20.422  0.00  0.00    +0.292 HD
ENDBRANCH  15  18
BRANCH  16  20
ATOM     20  O   UNL     1       6.750  -6.791  21.900  0.00  0.00    -0.503 OA
ATOM     21  H   UNL     1       6.849  -6.693  20.937  0.00  0.00    +0.292 HD
ENDBRANCH  16  20
ENDBRANCH   1  13
BRANCH   5  22
ATOM     22  O   UNL     1       8.333   3.050  25.761  0.00  0.00    -0.506 OA
ATOM     23  H   UNL     1       7.828   2.459  26.376  0.00  0.00    +0.292 HD
ENDBRANCH   5  22
BRANCH   7  24
ATOM     24  O   UNL     1      10.922   2.857  21.779  0.00  0.00    -0.507 OA
ATOM     25  H   UNL     1      11.624   2.244  21.506  0.00  0.00    +0.292 HD
ENDBRANCH   7  24
BRANCH  11  26
ATOM     26  O   UNL     1       6.364  -2.015  25.846  0.00  0.00    -0.453 OA
BRANCH  26  27
ATOM     27  C   UNL     1       4.949  -1.857  25.686  0.00  0.00    +0.340 C 
ATOM     28  O   UNL     1       4.329  -3.068  25.224  0.00  0.00    -0.331 OA
ATOM     29  C   UNL     1       3.958  -3.870  26.376  0.00  0.00    +0.179 C 
ATOM     30  C   UNL     1       4.230  -3.034  27.628  0.00  0.00    +0.180 C 
ATOM     31  C   UNL     1       4.302  -1.623  27.065  0.00  0.00    +0.214 C 
BRANCH  30  32
ATOM     32  O   UNL     1       3.204  -3.209  28.608  0.00  0.00    -0.386 OA
ATOM     33  H   UNL     1       2.664  -2.400  28.656  0.00  0.00    +0.210 HD
ENDBRANCH  30  32
BRANCH  31  34
ATOM     34  O   UNL     1       5.002  -0.726  27.919  0.00  0.00    -0.383 OA
ATOM     35  H   UNL     1       4.649  -0.842  28.821  0.00  0.00    +0.210 HD
ENDBRANCH  31  34
BRANCH  29  36
ATOM     36  C   UNL     1       4.783  -5.160  26.373  0.00  0.00    +0.190 C 
BRANCH  36  37
ATOM     37  O   UNL     1       6.089  -4.959  26.911  0.00  0.00    -0.392 OA
ATOM     38  H   UNL     1       6.219  -5.608  27.623  0.00  0.00    +0.210 HD
ENDBRANCH  36  37
ENDBRANCH  29  36
ENDBRANCH  26  27
ENDBRANCH  11  26
TORSDOF 11
ENDMDL
MODEL 7
REMARK VINA RESULT:      -6.7      3.049      6.216
REMARK  Name = 
REMARK  11 active torsions:
REMARK  status: ('A' for Active; 'I' for Inactive)
REMARK    1  A    between atoms: C_3  and  O_35
REMARK    2  A    between atoms: C_4  and  O_34
REMARK    3  A    between atoms: C_6  and  C_7
REMARK    4  A    between atoms: C_8  and  O_20
REMARK    5  A    between atoms: C_12  and  O_19
REMARK    6  A    between atoms: C_14  and  O_18
REMARK    7  A    between atoms: O_20  and  C_21
REMARK    8  A    between atoms: C_23  and  O_33
REMARK    9  A    between atoms: C_25  and  O_32
REMARK   10  A    between atoms: C_27  and  C_30
REMARK   11  A    between atoms: C_30  and  O_31
REMARK                            x       y       z     vdW  Elec       q    Type
REMARK                         _______ _______ _______ _____ _____    ______ ____
ROOT
ATOM      1  C   UNL     1       6.150  -1.552  25.576  0.00  0.00    +0.181 A 
ATOM      2  O   UNL     1       5.139  -1.940  26.432  0.00  0.00    -0.451 OA
ATOM      3  C   UNL     1       4.342  -0.974  26.981  0.00  0.00    +0.147 A 
ATOM      4  C   UNL     1       4.399   0.356  26.588  0.00  0.00    +0.109 A 
ATOM      5  C   UNL     1       3.537   1.282  27.197  0.00  0.00    +0.135 A 
ATOM      6  C   UNL     1       2.654   0.880  28.210  0.00  0.00    +0.091 A 
ATOM      7  C   UNL     1       2.629  -0.456  28.596  0.00  0.00    +0.124 A 
ATOM      8  C   UNL     1       5.375   0.734  25.532  0.00  0.00    +0.238 A 
ATOM      9  O   UNL     1       5.338   1.883  25.086  0.00  0.00    -0.283 OA
ATOM     10  C   UNL     1       3.462  -1.384  27.986  0.00  0.00    +0.092 A 
ATOM     11  C   UNL     1       6.365  -0.307  25.087  0.00  0.00    +0.214 A 
ENDROOT
BRANCH   1  13
ATOM     12  C   UNL     1       7.227  -3.145  24.048  0.00  0.00    +0.015 A 
ATOM     13  C   UNL     1       7.111  -2.645  25.358  0.00  0.00    +0.025 A 
ATOM     14  C   UNL     1       7.922  -3.165  26.371  0.00  0.00    +0.060 A 
ATOM     15  C   UNL     1       8.768  -4.228  26.072  0.00  0.00    +0.159 A 
ATOM     16  C   UNL     1       8.824  -4.767  24.788  0.00  0.00    +0.158 A 
ATOM     17  C   UNL     1       8.073  -4.215  23.762  0.00  0.00    +0.050 A 
BRANCH  15  18
ATOM     18  O   UNL     1       9.551  -4.760  27.057  0.00  0.00    -0.503 OA
ATOM     19  H   UNL     1       9.699  -4.021  27.683  0.00  0.00    +0.292 HD
ENDBRANCH  15  18
BRANCH  16  20
ATOM     20  O   UNL     1       9.637  -5.848  24.579  0.00  0.00    -0.503 OA
ATOM     21  H   UNL     1       9.071  -6.616  24.390  0.00  0.00    +0.292 HD
ENDBRANCH  16  20
ENDBRANCH   1  13
BRANCH   5  22
ATOM     22  O   UNL     1       3.506   2.606  26.861  0.00  0.00    -0.506 OA
ATOM     23  H   UNL     1       3.079   2.697  25.971  0.00  0.00    +0.292 HD
ENDBRANCH   5  22
BRANCH   7  24
ATOM     24  O   UNL     1       1.804  -0.898  29.585  0.00  0.00    -0.507 OA
ATOM     25  H   UNL     1       2.323  -1.410  30.227  0.00  0.00    +0.292 HD
ENDBRANCH   7  24
BRANCH  11  26
ATOM     26  O   UNL     1       7.410  -0.084  24.203  0.00  0.00    -0.453 OA
BRANCH  26  27
ATOM     27  C   UNL     1       8.574   0.652  24.597  0.00  0.00    +0.340 C 
ATOM     28  O   UNL     1       9.773  -0.119  24.426  0.00  0.00    -0.331 OA
ATOM     29  C   UNL     1      10.277   0.094  23.081  0.00  0.00    +0.179 C 
ATOM     30  C   UNL     1       9.419   1.182  22.434  0.00  0.00    +0.180 C 
ATOM     31  C   UNL     1       8.772   1.844  23.640  0.00  0.00    +0.214 C 
BRANCH  30  32
ATOM     32  O   UNL     1      10.210   2.073  21.644  0.00  0.00    -0.386 OA
ATOM     33  H   UNL     1      11.151   1.846  21.750  0.00  0.00    +0.210 HD
ENDBRANCH  30  32
BRANCH  31  34
ATOM     34  O   UNL     1       7.587   2.557  23.305  0.00  0.00    -0.383 OA
ATOM     35  H   UNL     1       7.612   2.736  22.346  0.00  0.00    +0.210 HD
ENDBRANCH  31  34
BRANCH  29  36
ATOM     36  C   UNL     1      10.196  -1.223  22.303  0.00  0.00    +0.190 C 
BRANCH  36  37
ATOM     37  O   UNL     1       9.633  -1.041  21.006  0.00  0.00    -0.392 OA
ATOM     38  H   UNL     1      10.256  -1.412  20.358  0.00  0.00    +0.210 HD
ENDBRANCH  36  37
ENDBRANCH  29  36
ENDBRANCH  26  27
ENDBRANCH  11  26
TORSDOF 11
ENDMDL
MODEL 8
REMARK VINA RESULT:      -6.6      3.106      7.437
REMARK  Name = 
REMARK  11 active torsions:
REMARK  status: ('A' for Active; 'I' for Inactive)
REMARK    1  A    between atoms: C_3  and  O_35
REMARK    2  A    between atoms: C_4  and  O_34
REMARK    3  A    between atoms: C_6  and  C_7
REMARK    4  A    between atoms: C_8  and  O_20
REMARK    5  A    between atoms: C_12  and  O_19
REMARK    6  A    between atoms: C_14  and  O_18
REMARK    7  A    between atoms: O_20  and  C_21
REMARK    8  A    between atoms: C_23  and  O_33
REMARK    9  A    between atoms: C_25  and  O_32
REMARK   10  A    between atoms: C_27  and  C_30
REMARK   11  A    between atoms: C_30  and  O_31
REMARK                            x       y       z     vdW  Elec       q    Type
REMARK                         _______ _______ _______ _____ _____    ______ ____
ROOT
ATOM      1  C   UNL     1       6.788  -1.440  26.377  0.00  0.00    +0.181 A 
ATOM      2  O   UNL     1       6.234  -2.527  27.021  0.00  0.00    -0.451 OA
ATOM      3  C   UNL     1       6.152  -3.714  26.347  0.00  0.00    +0.147 A 
ATOM      4  C   UNL     1       6.749  -3.914  25.110  0.00  0.00    +0.109 A 
ATOM      5  C   UNL     1       6.624  -5.168  24.490  0.00  0.00    +0.135 A 
ATOM      6  C   UNL     1       5.881  -6.194  25.091  0.00  0.00    +0.091 A 
ATOM      7  C   UNL     1       5.280  -5.961  26.324  0.00  0.00    +0.124 A 
ATOM      8  C   UNL     1       7.499  -2.784  24.501  0.00  0.00    +0.238 A 
ATOM      9  O   UNL     1       8.141  -2.996  23.470  0.00  0.00    -0.283 OA
ATOM     10  C   UNL     1       5.414  -4.732  26.955  0.00  0.00    +0.092 A 
ATOM     11  C   UNL     1       7.410  -1.441  25.173  0.00  0.00    +0.214 A 
ENDROOT
BRANCH   1  13
ATOM     12  C   UNL     1       5.229   0.396  26.857  0.00  0.00    +0.015 A 
ATOM     13  C   UNL     1       6.487  -0.189  27.090  0.00  0.00    +0.025 A 
ATOM     14  C   UNL     1       7.368   0.406  27.999  0.00  0.00    +0.060 A 
ATOM     15  C   UNL     1       7.007   1.612  28.590  0.00  0.00    +0.159 A 
ATOM     16  C   UNL     1       5.790   2.224  28.298  0.00  0.00    +0.158 A 
ATOM     17  C   UNL     1       4.883   1.609  27.449  0.00  0.00    +0.050 A 
BRANCH  15  18
ATOM     18  O   UNL     1       7.868   2.215  29.464  0.00  0.00    -0.503 OA
ATOM     19  H   UNL     1       8.703   1.712  29.375  0.00  0.00    +0.292 HD
ENDBRANCH  15  18
BRANCH  16  20
ATOM     20  O   UNL     1       5.526   3.438  28.871  0.00  0.00    -0.503 OA
ATOM     21  H   UNL     1       6.169   3.577  29.588  0.00  0.00    +0.292 HD
ENDBRANCH  16  20
ENDBRANCH   1  13
BRANCH   5  22
ATOM     22  O   UNL     1       7.194  -5.465  23.284  0.00  0.00    -0.506 OA
ATOM     23  H   UNL     1       6.553  -5.231  22.565  0.00  0.00    +0.292 HD
ENDBRANCH   5  22
BRANCH   7  24
ATOM     24  O   UNL     1       4.533  -6.915  26.946  0.00  0.00    -0.507 OA
ATOM     25  H   UNL     1       4.830  -7.792  26.652  0.00  0.00    +0.292 HD
ENDBRANCH   7  24
BRANCH  11  26
ATOM     26  O   UNL     1       7.949  -0.264  24.674  0.00  0.00    -0.453 OA
BRANCH  26  27
ATOM     27  C   UNL     1       9.332   0.057  24.859  0.00  0.00    +0.340 C 
ATOM     28  O   UNL     1      10.153  -0.521  23.832  0.00  0.00    -0.331 OA
ATOM     29  C   UNL     1      10.239   0.412  22.723  0.00  0.00    +0.179 C 
ATOM     30  C   UNL     1       9.552   1.709  23.157  0.00  0.00    +0.180 C 
ATOM     31  C   UNL     1       9.533   1.574  24.672  0.00  0.00    +0.214 C 
BRANCH  30  32
ATOM     32  O   UNL     1      10.263   2.858  22.691  0.00  0.00    -0.386 OA
ATOM     33  H   UNL     1       9.682   3.381  22.110  0.00  0.00    +0.210 HD
ENDBRANCH  30  32
BRANCH  31  34
ATOM     34  O   UNL     1       8.547   2.397  25.283  0.00  0.00    -0.383 OA
ATOM     35  H   UNL     1       8.039   1.840  25.902  0.00  0.00    +0.210 HD
ENDBRANCH  31  34
BRANCH  29  36
ATOM     36  C   UNL     1       9.556  -0.203  21.499  0.00  0.00    +0.190 C 
BRANCH  36  37
ATOM     37  O   UNL     1       9.830  -1.598  21.381  0.00  0.00    -0.392 OA
ATOM     38  H   UNL     1      10.775  -1.697  21.174  0.00  0.00    +0.210 HD
ENDBRANCH  36  37
ENDBRANCH  29  36
ENDBRANCH  26  27
ENDBRANCH  11  26
TORSDOF 11
ENDMDL
MODEL 9
REMARK VINA RESULT:      -6.6      2.376      4.630
REMARK  Name = 
REMARK  11 active torsions:
REMARK  status: ('A' for Active; 'I' for Inactive)
REMARK    1  A    between atoms: C_3  and  O_35
REMARK    2  A    between atoms: C_4  and  O_34
REMARK    3  A    between atoms: C_6  and  C_7
REMARK    4  A    between atoms: C_8  and  O_20
REMARK    5  A    between atoms: C_12  and  O_19
REMARK    6  A    between atoms: C_14  and  O_18
REMARK    7  A    between atoms: O_20  and  C_21
REMARK    8  A    between atoms: C_23  and  O_33
REMARK    9  A    between atoms: C_25  and  O_32
REMARK   10  A    between atoms: C_27  and  C_30
REMARK   11  A    between atoms: C_30  and  O_31
REMARK                            x       y       z     vdW  Elec       q    Type
REMARK                         _______ _______ _______ _____ _____    ______ ____
ROOT
ATOM      1  C   UNL     1       6.135  -1.022  24.679  0.00  0.00    +0.181 A 
ATOM      2  O   UNL     1       6.565   0.276  24.490  0.00  0.00    -0.451 OA
ATOM      3  C   UNL     1       7.580   0.505  23.604  0.00  0.00    +0.147 A 
ATOM      4  C   UNL     1       8.082  -0.484  22.769  0.00  0.00    +0.109 A 
ATOM      5  C   UNL     1       9.120  -0.160  21.880  0.00  0.00    +0.135 A 
ATOM      6  C   UNL     1       9.667   1.130  21.857  0.00  0.00    +0.091 A 
ATOM      7  C   UNL     1       9.156   2.099  22.716  0.00  0.00    +0.124 A 
ATOM      8  C   UNL     1       7.488  -1.844  22.856  0.00  0.00    +0.238 A 
ATOM      9  O   UNL     1       7.836  -2.688  22.028  0.00  0.00    -0.283 OA
ATOM     10  C   UNL     1       8.116   1.795  23.584  0.00  0.00    +0.092 A 
ATOM     11  C   UNL     1       6.511  -2.112  23.967  0.00  0.00    +0.214 A 
ENDROOT
BRANCH   1  13
ATOM     12  C   UNL     1       5.877  -0.709  27.102  0.00  0.00    +0.015 A 
ATOM     13  C   UNL     1       5.306  -1.137  25.889  0.00  0.00    +0.025 A 
ATOM     14  C   UNL     1       3.989  -1.608  25.873  0.00  0.00    +0.060 A 
ATOM     15  C   UNL     1       3.303  -1.719  27.078  0.00  0.00    +0.159 A 
ATOM     16  C   UNL     1       3.901  -1.363  28.285  0.00  0.00    +0.158 A 
ATOM     17  C   UNL     1       5.182  -0.833  28.303  0.00  0.00    +0.050 A 
BRANCH  15  18
ATOM     18  O   UNL     1       2.023  -2.197  27.080  0.00  0.00    -0.503 OA
ATOM     19  H   UNL     1       1.694  -2.027  26.173  0.00  0.00    +0.292 HD
ENDBRANCH  15  18
BRANCH  16  20
ATOM     20  O   UNL     1       3.187  -1.552  29.437  0.00  0.00    -0.503 OA
ATOM     21  H   UNL     1       2.503  -0.862  29.482  0.00  0.00    +0.292 HD
ENDBRANCH  16  20
ENDBRANCH   1  13
BRANCH   5  22
ATOM     22  O   UNL     1       9.663  -1.060  21.007  0.00  0.00    -0.506 OA
ATOM     23  H   UNL     1      10.599  -1.240  21.280  0.00  0.00    +0.292 HD
ENDBRANCH   5  22
BRANCH   7  24
ATOM     24  O   UNL     1       9.660   3.363  22.747  0.00  0.00    -0.507 OA
ATOM     25  H   UNL     1      10.626   3.318  22.837  0.00  0.00    +0.292 HD
ENDBRANCH   7  24
BRANCH  11  26
ATOM     26  O   UNL     1       5.958  -3.351  24.259  0.00  0.00    -0.453 OA
BRANCH  26  27
ATOM     27  C   UNL     1       4.772  -3.810  23.601  0.00  0.00    +0.340 C 
ATOM     28  O   UNL     1       5.055  -4.307  22.284  0.00  0.00    -0.331 OA
ATOM     29  C   UNL     1       5.371  -5.722  22.378  0.00  0.00    +0.179 C 
ATOM     30  C   UNL     1       5.119  -6.156  23.823  0.00  0.00    +0.180 C 
ATOM     31  C   UNL     1       4.222  -5.043  24.343  0.00  0.00    +0.214 C 
BRANCH  30  32
ATOM     32  O   UNL     1       4.520  -7.452  23.883  0.00  0.00    -0.386 OA
ATOM     33  H   UNL     1       5.053  -8.026  24.461  0.00  0.00    +0.210 HD
ENDBRANCH  30  32
BRANCH  31  34
ATOM     34  O   UNL     1       4.229  -4.952  25.763  0.00  0.00    -0.383 OA
ATOM     35  H   UNL     1       4.505  -5.819  26.113  0.00  0.00    +0.210 HD
ENDBRANCH  31  34
BRANCH  29  36
ATOM     36  C   UNL     1       6.832  -5.935  21.974  0.00  0.00    +0.190 C 
BRANCH  36  37
ATOM     37  O   UNL     1       7.734  -5.507  22.993  0.00  0.00    -0.392 OA
ATOM     38  H   UNL     1       7.436  -4.635  23.304  0.00  0.00    +0.210 HD
ENDBRANCH  36  37
ENDBRANCH  29  36
ENDBRANCH  26  27
ENDBRANCH  11  26
TORSDOF 11
ENDMDL
