MODEL 1
REMARK VINA RESULT:      -7.8      0.000      0.000
REMARK  Name = 
REMARK  15 active torsions:
REMARK  status: ('A' for Active; 'I' for Inactive)
REMARK    1  A    between atoms: C_1  and  C_2
REMARK    2  A    between atoms: C_3  and  O_41
REMARK    3  A    between atoms: C_4  and  O_40
REMARK    4  A    between atoms: C_5  and  O_39
REMARK    5  A    between atoms: C_6  and  O_8
REMARK    6  A    between atoms: O_8  and  C_9
REMARK    7  A    between atoms: C_10  and  O_38
REMARK    8  A    between atoms: C_11  and  O_37
REMARK    9  A    between atoms: C_14  and  O_15
REMARK   10  A    between atoms: O_15  and  C_16
REMARK   11  A    between atoms: C_17  and  C_29
REMARK   12  A    between atoms: C_21  and  O_28
REMARK   13  A    between atoms: C_23  and  O_27
REMARK   14  A    between atoms: C_31  and  O_36
REMARK   15  A    between atoms: C_32  and  O_35
REMARK                            x       y       z     vdW  Elec       q    Type
REMARK                         _______ _______ _______ _____ _____    ______ ____
ROOT
ATOM      1  O   UNL     1       7.424  -4.241  25.415  0.00  0.00    -0.453 OA
ENDROOT
BRANCH   1   2
ATOM      2  C   UNL     1       6.548  -3.319  25.989  0.00  0.00    +0.214 A 
ATOM      3  C   UNL     1       7.012  -2.016  26.569  0.00  0.00    +0.238 A 
ATOM      4  O   UNL     1       8.170  -1.637  26.442  0.00  0.00    -0.283 OA
ATOM      5  C   UNL     1       6.033  -1.144  27.215  0.00  0.00    +0.109 A 
ATOM      6  C   UNL     1       4.694  -1.496  27.107  0.00  0.00    +0.147 A 
ATOM      7  C   UNL     1       3.708  -0.638  27.599  0.00  0.00    +0.092 A 
ATOM      8  C   UNL     1       4.078   0.560  28.210  0.00  0.00    +0.124 A 
ATOM      9  C   UNL     1       5.417   0.904  28.357  0.00  0.00    +0.091 A 
ATOM     10  O   UNL     1       4.278  -2.655  26.517  0.00  0.00    -0.451 OA
ATOM     11  C   UNL     1       6.396   0.046  27.863  0.00  0.00    +0.135 A 
ATOM     12  C   UNL     1       5.220  -3.557  26.010  0.00  0.00    +0.181 A 
BRANCH  12  13
ATOM     13  C   UNL     1       4.570  -4.787  25.449  0.00  0.00    +0.025 A 
ATOM     14  C   UNL     1       4.719  -6.033  26.105  0.00  0.00    +0.015 A 
ATOM     15  C   UNL     1       4.125  -7.200  25.606  0.00  0.00    +0.050 A 
ATOM     16  C   UNL     1       3.361  -7.134  24.455  0.00  0.00    +0.158 A 
ATOM     17  C   UNL     1       3.210  -5.926  23.782  0.00  0.00    +0.159 A 
ATOM     18  C   UNL     1       3.830  -4.771  24.254  0.00  0.00    +0.060 A 
BRANCH  16  19
ATOM     19  O   UNL     1       2.757  -8.263  23.983  0.00  0.00    -0.503 OA
ATOM     20  H   UNL     1       3.493  -8.891  23.826  0.00  0.00    +0.292 HD
ENDBRANCH  16  19
BRANCH  17  21
ATOM     21  O   UNL     1       2.432  -5.922  22.657  0.00  0.00    -0.503 OA
ATOM     22  H   UNL     1       2.171  -6.840  22.463  0.00  0.00    +0.292 HD
ENDBRANCH  17  21
ENDBRANCH  12  13
BRANCH   8  23
ATOM     23  O   UNL     1       3.161   1.439  28.694  0.00  0.00    -0.507 OA
ATOM     24  H   UNL     1       3.526   1.889  29.473  0.00  0.00    +0.292 HD
ENDBRANCH   8  23
BRANCH  11  25
ATOM     25  O   UNL     1       7.707   0.384  28.039  0.00  0.00    -0.506 OA
ATOM     26  H   UNL     1       8.281  -0.184  27.500  0.00  0.00    +0.292 HD
ENDBRANCH  11  25
ENDBRANCH   1   2
BRANCH   1  28
ATOM     27  C   UNL     1       7.510  -2.765  23.443  0.00  0.00    +0.221 C 
ATOM     28  C   UNL     1       8.247  -3.844  24.297  0.00  0.00    +0.340 C 
ATOM     29  O   UNL     1       8.610  -5.014  23.529  0.00  0.00    -0.337 OA
ATOM     30  C   UNL     1       7.548  -5.624  22.814  0.00  0.00    +0.198 C 
ATOM     31  C   UNL     1       6.876  -4.644  21.864  0.00  0.00    +0.171 C 
ATOM     32  C   UNL     1       6.364  -3.451  22.671  0.00  0.00    +0.180 C 
BRANCH  31  33
ATOM     33  O   UNL     1       5.786  -5.256  21.169  0.00  0.00    -0.387 OA
ATOM     34  H   UNL     1       5.628  -4.762  20.344  0.00  0.00    +0.210 HD
ENDBRANCH  31  33
BRANCH  32  35
ATOM     35  O   UNL     1       5.626  -2.550  21.834  0.00  0.00    -0.386 OA
ATOM     36  H   UNL     1       6.282  -1.988  21.375  0.00  0.00    +0.210 HD
ENDBRANCH  32  35
BRANCH  27  37
ATOM     37  O   UNL     1       8.460  -2.053  22.621  0.00  0.00    -0.337 OA
BRANCH  37  41
ATOM     38  C   UNL     1       7.156   1.440  24.506  0.00  0.00    +0.041 C 
ATOM     39  C   UNL     1       7.089   1.298  22.978  0.00  0.00    +0.149 C 
ATOM     40  O   UNL     1       7.194  -0.081  22.574  0.00  0.00    -0.343 OA
ATOM     41  C   UNL     1       8.499  -0.635  22.810  0.00  0.00    +0.282 C 
ATOM     42  C   UNL     1       9.521   0.121  21.926  0.00  0.00    +0.201 C 
ATOM     43  C   UNL     1       9.529   1.590  22.349  0.00  0.00    +0.179 C 
ATOM     44  C   UNL     1       8.117   2.190  22.254  0.00  0.00    +0.174 C 
BRANCH  42  45
ATOM     45  O   UNL     1       9.182   0.071  20.525  0.00  0.00    -0.384 OA
ATOM     46  H   UNL     1       8.709   0.906  20.321  0.00  0.00    +0.210 HD
ENDBRANCH  42  45
BRANCH  43  47
ATOM     47  O   UNL     1      10.427   2.343  21.519  0.00  0.00    -0.386 OA
ATOM     48  H   UNL     1      11.134   1.711  21.269  0.00  0.00    +0.210 HD
ENDBRANCH  43  47
BRANCH  44  49
ATOM     49  O   UNL     1       8.086   3.515  22.800  0.00  0.00    -0.387 OA
ATOM     50  H   UNL     1       7.298   3.578  23.372  0.00  0.00    +0.210 HD
ENDBRANCH  44  49
ENDBRANCH  37  41
ENDBRANCH  27  37
ENDBRANCH   1  28
TORSDOF 14
ENDMDL
MODEL 2
REMARK VINA RESULT:      -7.8      1.871      6.776
REMARK  Name = 
REMARK  15 active torsions:
REMARK  status: ('A' for Active; 'I' for Inactive)
REMARK    1  A    between atoms: C_1  and  C_2
REMARK    2  A    between atoms: C_3  and  O_41
REMARK    3  A    between atoms: C_4  and  O_40
REMARK    4  A    between atoms: C_5  and  O_39
REMARK    5  A    between atoms: C_6  and  O_8
REMARK    6  A    between atoms: O_8  and  C_9
REMARK    7  A    between atoms: C_10  and  O_38
REMARK    8  A    between atoms: C_11  and  O_37
REMARK    9  A    between atoms: C_14  and  O_15
REMARK   10  A    between atoms: O_15  and  C_16
REMARK   11  A    between atoms: C_17  and  C_29
REMARK   12  A    between atoms: C_21  and  O_28
REMARK   13  A    between atoms: C_23  and  O_27
REMARK   14  A    between atoms: C_31  and  O_36
REMARK   15  A    between atoms: C_32  and  O_35
REMARK                            x       y       z     vdW  Elec       q    Type
REMARK                         _______ _______ _______ _____ _____    ______ ____
ROOT
ATOM      1  O   UNL     1       7.623  -1.818  25.550  0.00  0.00    -0.453 OA
ENDROOT
BRANCH   1   2
ATOM      2  C   UNL     1       6.568  -0.947  25.825  0.00  0.00    +0.214 A 
ATOM      3  C   UNL     1       5.449  -1.304  26.760  0.00  0.00    +0.238 A 
ATOM      4  O   UNL     1       5.483  -2.325  27.435  0.00  0.00    -0.283 OA
ATOM      5  C   UNL     1       4.348  -0.358  26.933  0.00  0.00    +0.109 A 
ATOM      6  C   UNL     1       4.481   0.893  26.347  0.00  0.00    +0.147 A 
ATOM      7  C   UNL     1       3.517   1.876  26.579  0.00  0.00    +0.092 A 
ATOM      8  C   UNL     1       2.418   1.586  27.387  0.00  0.00    +0.124 A 
ATOM      9  C   UNL     1       2.255   0.325  27.947  0.00  0.00    +0.091 A 
ATOM     10  O   UNL     1       5.538   1.229  25.549  0.00  0.00    -0.451 OA
ATOM     11  C   UNL     1       3.220  -0.651  27.714  0.00  0.00    +0.135 A 
ATOM     12  C   UNL     1       6.534   0.285  25.275  0.00  0.00    +0.181 A 
BRANCH  12  13
ATOM     13  C   UNL     1       7.578   0.827  24.346  0.00  0.00    +0.025 A 
ATOM     14  C   UNL     1       8.724   1.478  24.864  0.00  0.00    +0.015 A 
ATOM     15  C   UNL     1       9.718   1.995  24.021  0.00  0.00    +0.050 A 
ATOM     16  C   UNL     1       9.588   1.852  22.652  0.00  0.00    +0.158 A 
ATOM     17  C   UNL     1       8.466   1.230  22.115  0.00  0.00    +0.159 A 
ATOM     18  C   UNL     1       7.457   0.748  22.947  0.00  0.00    +0.060 A 
BRANCH  16  19
ATOM     19  O   UNL     1      10.568   2.328  21.831  0.00  0.00    -0.503 OA
ATOM     20  H   UNL     1      10.724   1.606  21.188  0.00  0.00    +0.292 HD
ENDBRANCH  16  19
BRANCH  17  21
ATOM     21  O   UNL     1       8.401   1.108  20.755  0.00  0.00    -0.503 OA
ATOM     22  H   UNL     1       9.259   1.378  20.383  0.00  0.00    +0.292 HD
ENDBRANCH  17  21
ENDBRANCH  12  13
BRANCH   8  23
ATOM     23  O   UNL     1       1.456   2.508  27.659  0.00  0.00    -0.507 OA
ATOM     24  H   UNL     1       0.712   2.075  28.109  0.00  0.00    +0.292 HD
ENDBRANCH   8  23
BRANCH  11  25
ATOM     25  O   UNL     1       3.033  -1.893  28.248  0.00  0.00    -0.506 OA
ATOM     26  H   UNL     1       2.122  -1.994  28.568  0.00  0.00    +0.292 HD
ENDBRANCH  11  25
ENDBRANCH   1   2
BRANCH   1  28
ATOM     27  C   UNL     1       7.032  -4.188  25.228  0.00  0.00    +0.221 C 
ATOM     28  C   UNL     1       7.459  -2.847  24.552  0.00  0.00    +0.340 C 
ATOM     29  O   UNL     1       8.678  -2.971  23.785  0.00  0.00    -0.337 OA
ATOM     30  C   UNL     1       9.783  -3.518  24.485  0.00  0.00    +0.198 C 
ATOM     31  C   UNL     1       9.461  -4.891  25.056  0.00  0.00    +0.171 C 
ATOM     32  C   UNL     1       8.248  -4.767  25.979  0.00  0.00    +0.180 C 
BRANCH  31  33
ATOM     33  O   UNL     1      10.568  -5.425  25.787  0.00  0.00    -0.387 OA
ATOM     34  H   UNL     1      10.309  -5.512  26.723  0.00  0.00    +0.210 HD
ENDBRANCH  31  33
BRANCH  32  35
ATOM     35  O   UNL     1       7.972  -6.017  26.626  0.00  0.00    -0.386 OA
ATOM     36  H   UNL     1       8.781  -6.563  26.544  0.00  0.00    +0.210 HD
ENDBRANCH  32  35
BRANCH  27  37
ATOM     37  O   UNL     1       6.443  -5.069  24.247  0.00  0.00    -0.337 OA
BRANCH  37  41
ATOM     38  C   UNL     1       2.730  -3.429  25.235  0.00  0.00    +0.041 C 
ATOM     39  C   UNL     1       3.067  -4.885  25.589  0.00  0.00    +0.149 C 
ATOM     40  O   UNL     1       4.487  -5.123  25.536  0.00  0.00    -0.343 OA
ATOM     41  C   UNL     1       5.013  -5.073  24.200  0.00  0.00    +0.282 C 
ATOM     42  C   UNL     1       4.381  -6.224  23.379  0.00  0.00    +0.201 C 
ATOM     43  C   UNL     1       2.870  -6.001  23.319  0.00  0.00    +0.179 C 
ATOM     44  C   UNL     1       2.280  -5.899  24.735  0.00  0.00    +0.174 C 
BRANCH  42  45
ATOM     45  O   UNL     1       4.609  -7.517  23.977  0.00  0.00    -0.384 OA
ATOM     46  H   UNL     1       4.829  -8.131  23.244  0.00  0.00    +0.210 HD
ENDBRANCH  42  45
BRANCH  43  47
ATOM     47  O   UNL     1       2.235  -7.076  22.610  0.00  0.00    -0.386 OA
ATOM     48  H   UNL     1       2.811  -7.855  22.758  0.00  0.00    +0.210 HD
ENDBRANCH  43  47
BRANCH  44  49
ATOM     49  O   UNL     1       0.896  -5.530  24.687  0.00  0.00    -0.387 OA
ATOM     50  H   UNL     1       0.848  -4.616  24.350  0.00  0.00    +0.210 HD
ENDBRANCH  44  49
ENDBRANCH  37  41
ENDBRANCH  27  37
ENDBRANCH   1  28
TORSDOF 14
ENDMDL
MODEL 3
REMARK VINA RESULT:      -7.7      1.921      6.491
REMARK  Name = 
REMARK  15 active torsions:
REMARK  status: ('A' for Active; 'I' for Inactive)
REMARK    1  A    between atoms: C_1  and  C_2
REMARK    2  A    between atoms: C_3  and  O_41
REMARK    3  A    between atoms: C_4  and  O_40
REMARK    4  A    between atoms: C_5  and  O_39
REMARK    5  A    between atoms: C_6  and  O_8
REMARK    6  A    between atoms: O_8  and  C_9
REMARK    7  A    between atoms: C_10  and  O_38
REMARK    8  A    between atoms: C_11  and  O_37
REMARK    9  A    between atoms: C_14  and  O_15
REMARK   10  A    between atoms: O_15  and  C_16
REMARK   11  A    between atoms: C_17  and  C_29
REMARK   12  A    between atoms: C_21  and  O_28
REMARK   13  A    between atoms: C_23  and  O_27
REMARK   14  A    between atoms: C_31  and  O_36
REMARK   15  A    between atoms: C_32  and  O_35
REMARK                            x       y       z     vdW  Elec       q    Type
REMARK                         _______ _______ _______ _____ _____    ______ ____
ROOT
ATOM      1  O   UNL     1       7.510  -2.007  25.184  0.00  0.00    -0.453 OA
ENDROOT
BRANCH   1   2
ATOM      2  C   UNL     1       6.960  -0.797  24.760  0.00  0.00    +0.214 A 
ATOM      3  C   UNL     1       7.636   0.091  23.756  0.00  0.00    +0.238 A 
ATOM      4  O   UNL     1       8.640  -0.274  23.156  0.00  0.00    -0.283 OA
ATOM      5  C   UNL     1       7.022   1.375  23.425  0.00  0.00    +0.109 A 
ATOM      6  C   UNL     1       5.756   1.630  23.936  0.00  0.00    +0.147 A 
ATOM      7  C   UNL     1       5.072   2.785  23.555  0.00  0.00    +0.092 A 
ATOM      8  C   UNL     1       5.674   3.684  22.675  0.00  0.00    +0.124 A 
ATOM      9  C   UNL     1       6.956   3.459  22.188  0.00  0.00    +0.091 A 
ATOM     10  O   UNL     1       5.121   0.782  24.799  0.00  0.00    -0.451 OA
ATOM     11  C   UNL     1       7.633   2.303  22.569  0.00  0.00    +0.135 A 
ATOM     12  C   UNL     1       5.758  -0.390  25.221  0.00  0.00    +0.181 A 
BRANCH  12  13
ATOM     13  C   UNL     1       4.923  -1.159  26.200  0.00  0.00    +0.025 A 
ATOM     14  C   UNL     1       4.125  -2.242  25.760  0.00  0.00    +0.015 A 
ATOM     15  C   UNL     1       3.333  -2.981  26.650  0.00  0.00    +0.050 A 
ATOM     16  C   UNL     1       3.342  -2.657  27.994  0.00  0.00    +0.158 A 
ATOM     17  C   UNL     1       4.106  -1.589  28.453  0.00  0.00    +0.159 A 
ATOM     18  C   UNL     1       4.865  -0.828  27.565  0.00  0.00    +0.060 A 
BRANCH  16  19
ATOM     19  O   UNL     1       2.596  -3.393  28.867  0.00  0.00    -0.503 OA
ATOM     20  H   UNL     1       2.392  -2.776  29.601  0.00  0.00    +0.292 HD
ENDBRANCH  16  19
BRANCH  17  21
ATOM     21  O   UNL     1       4.083  -1.327  29.795  0.00  0.00    -0.503 OA
ATOM     22  H   UNL     1       3.266  -0.838  29.997  0.00  0.00    +0.292 HD
ENDBRANCH  17  21
ENDBRANCH  12  13
BRANCH   8  23
ATOM     23  O   UNL     1       5.050   4.818  22.259  0.00  0.00    -0.507 OA
ATOM     24  H   UNL     1       4.089   4.705  22.339  0.00  0.00    +0.292 HD
ENDBRANCH   8  23
BRANCH  11  25
ATOM     25  O   UNL     1       8.902   2.108  22.104  0.00  0.00    -0.506 OA
ATOM     26  H   UNL     1       9.068   1.164  21.952  0.00  0.00    +0.292 HD
ENDBRANCH  11  25
ENDBRANCH   1   2
BRANCH   1  28
ATOM     27  C   UNL     1       6.941  -4.404  25.254  0.00  0.00    +0.221 C 
ATOM     28  C   UNL     1       7.355  -3.188  24.367  0.00  0.00    +0.340 C 
ATOM     29  O   UNL     1       8.574  -3.423  23.628  0.00  0.00    -0.337 OA
ATOM     30  C   UNL     1       9.684  -3.839  24.405  0.00  0.00    +0.198 C 
ATOM     31  C   UNL     1       9.376  -5.103  25.193  0.00  0.00    +0.171 C 
ATOM     32  C   UNL     1       8.163  -4.842  26.086  0.00  0.00    +0.180 C 
BRANCH  31  33
ATOM     33  O   UNL     1      10.489  -5.500  25.998  0.00  0.00    -0.387 OA
ATOM     34  H   UNL     1      11.140  -4.775  26.008  0.00  0.00    +0.210 HD
ENDBRANCH  31  33
BRANCH  32  35
ATOM     35  O   UNL     1       7.900  -5.972  26.929  0.00  0.00    -0.386 OA
ATOM     36  H   UNL     1       7.112  -5.748  27.466  0.00  0.00    +0.210 HD
ENDBRANCH  32  35
BRANCH  27  37
ATOM     37  O   UNL     1       6.360  -5.439  24.431  0.00  0.00    -0.337 OA
BRANCH  37  41
ATOM     38  C   UNL     1       3.155  -6.685  26.806  0.00  0.00    +0.041 C 
ATOM     39  C   UNL     1       3.419  -7.330  25.438  0.00  0.00    +0.149 C 
ATOM     40  O   UNL     1       4.758  -7.060  24.979  0.00  0.00    -0.343 OA
ATOM     41  C   UNL     1       4.964  -5.680  24.637  0.00  0.00    +0.282 C 
ATOM     42  C   UNL     1       4.049  -5.329  23.437  0.00  0.00    +0.201 C 
ATOM     43  C   UNL     1       2.595  -5.514  23.870  0.00  0.00    +0.179 C 
ATOM     44  C   UNL     1       2.360  -6.943  24.386  0.00  0.00    +0.174 C 
BRANCH  42  45
ATOM     45  O   UNL     1       4.279  -6.185  22.299  0.00  0.00    -0.384 OA
ATOM     46  H   UNL     1       5.022  -5.788  21.796  0.00  0.00    +0.210 HD
ENDBRANCH  42  45
BRANCH  43  47
ATOM     47  O   UNL     1       1.709  -5.250  22.771  0.00  0.00    -0.386 OA
ATOM     48  H   UNL     1       2.295  -5.152  21.989  0.00  0.00    +0.210 HD
ENDBRANCH  43  47
BRANCH  44  49
ATOM     49  O   UNL     1       1.046  -7.077  24.942  0.00  0.00    -0.387 OA
ATOM     50  H   UNL     1       1.038  -6.601  25.794  0.00  0.00    +0.210 HD
ENDBRANCH  44  49
ENDBRANCH  37  41
ENDBRANCH  27  37
ENDBRANCH   1  28
TORSDOF 14
ENDMDL
MODEL 4
REMARK VINA RESULT:      -7.6      2.078      2.881
REMARK  Name = 
REMARK  15 active torsions:
REMARK  status: ('A' for Active; 'I' for Inactive)
REMARK    1  A    between atoms: C_1  and  C_2
REMARK    2  A    between atoms: C_3  and  O_41
REMARK    3  A    between atoms: C_4  and  O_40
REMARK    4  A    between atoms: C_5  and  O_39
REMARK    5  A    between atoms: C_6  and  O_8
REMARK    6  A    between atoms: O_8  and  C_9
REMARK    7  A    between atoms: C_10  and  O_38
REMARK    8  A    between atoms: C_11  and  O_37
REMARK    9  A    between atoms: C_14  and  O_15
REMARK   10  A    between atoms: O_15  and  C_16
REMARK   11  A    between atoms: C_17  and  C_29
REMARK   12  A    between atoms: C_21  and  O_28
REMARK   13  A    between atoms: C_23  and  O_27
REMARK   14  A    between atoms: C_31  and  O_36
REMARK   15  A    between atoms: C_32  and  O_35
REMARK                            x       y       z     vdW  Elec       q    Type
REMARK                         _______ _______ _______ _____ _____    ______ ____
ROOT
ATOM      1  O   UNL     1       5.433  -2.572  24.884  0.00  0.00    -0.453 OA
ENDROOT
BRANCH   1   2
ATOM      2  C   UNL     1       5.311  -1.675  25.947  0.00  0.00    +0.214 A 
ATOM      3  C   UNL     1       5.316  -0.187  25.753  0.00  0.00    +0.238 A 
ATOM      4  O   UNL     1       5.287   0.311  24.634  0.00  0.00    -0.283 OA
ATOM      5  C   UNL     1       5.256   0.676  26.931  0.00  0.00    +0.109 A 
ATOM      6  C   UNL     1       5.030   0.069  28.159  0.00  0.00    +0.147 A 
ATOM      7  C   UNL     1       4.843   0.853  29.298  0.00  0.00    +0.092 A 
ATOM      8  C   UNL     1       4.901   2.243  29.196  0.00  0.00    +0.124 A 
ATOM      9  C   UNL     1       5.165   2.860  27.979  0.00  0.00    +0.091 A 
ATOM     10  O   UNL     1       4.962  -1.286  28.313  0.00  0.00    -0.451 OA
ATOM     11  C   UNL     1       5.348   2.074  26.845  0.00  0.00    +0.135 A 
ATOM     12  C   UNL     1       5.147  -2.125  27.208  0.00  0.00    +0.181 A 
BRANCH  12  13
ATOM     13  C   UNL     1       5.085  -3.574  27.590  0.00  0.00    +0.025 A 
ATOM     14  C   UNL     1       3.833  -4.210  27.772  0.00  0.00    +0.015 A 
ATOM     15  C   UNL     1       3.741  -5.562  28.128  0.00  0.00    +0.050 A 
ATOM     16  C   UNL     1       4.899  -6.301  28.289  0.00  0.00    +0.158 A 
ATOM     17  C   UNL     1       6.143  -5.699  28.130  0.00  0.00    +0.159 A 
ATOM     18  C   UNL     1       6.239  -4.345  27.813  0.00  0.00    +0.060 A 
BRANCH  16  19
ATOM     19  O   UNL     1       4.812  -7.625  28.607  0.00  0.00    -0.503 OA
ATOM     20  H   UNL     1       4.165  -7.662  29.341  0.00  0.00    +0.292 HD
ENDBRANCH  16  19
BRANCH  17  21
ATOM     21  O   UNL     1       7.250  -6.485  28.290  0.00  0.00    -0.503 OA
ATOM     22  H   UNL     1       7.625  -6.310  29.171  0.00  0.00    +0.292 HD
ENDBRANCH  17  21
ENDBRANCH  12  13
BRANCH   8  23
ATOM     23  O   UNL     1       4.713   3.056  30.269  0.00  0.00    -0.507 OA
ATOM     24  H   UNL     1       3.837   3.472  30.209  0.00  0.00    +0.292 HD
ENDBRANCH   8  23
BRANCH  11  25
ATOM     25  O   UNL     1       5.633   2.692  25.662  0.00  0.00    -0.506 OA
ATOM     26  H   UNL     1       6.146   3.501  25.815  0.00  0.00    +0.292 HD
ENDBRANCH  11  25
ENDBRANCH   1   2
BRANCH   1  28
ATOM     27  C   UNL     1       6.558  -2.615  22.692  0.00  0.00    +0.221 C 
ATOM     28  C   UNL     1       6.713  -2.747  24.240  0.00  0.00    +0.340 C 
ATOM     29  O   UNL     1       7.280  -4.015  24.639  0.00  0.00    -0.337 OA
ATOM     30  C   UNL     1       6.621  -5.163  24.133  0.00  0.00    +0.198 C 
ATOM     31  C   UNL     1       6.558  -5.148  22.612  0.00  0.00    +0.171 C 
ATOM     32  C   UNL     1       5.843  -3.875  22.162  0.00  0.00    +0.180 C 
BRANCH  31  33
ATOM     33  O   UNL     1       5.865  -6.293  22.108  0.00  0.00    -0.387 OA
ATOM     34  H   UNL     1       4.938  -6.251  22.407  0.00  0.00    +0.210 HD
ENDBRANCH  31  33
BRANCH  32  35
ATOM     35  O   UNL     1       5.663  -3.869  20.740  0.00  0.00    -0.386 OA
ATOM     36  H   UNL     1       5.456  -2.946  20.484  0.00  0.00    +0.210 HD
ENDBRANCH  32  35
BRANCH  27  37
ATOM     37  O   UNL     1       7.841  -2.343  22.089  0.00  0.00    -0.337 OA
BRANCH  37  41
ATOM     38  C   UNL     1       7.785   1.823  21.765  0.00  0.00    +0.041 C 
ATOM     39  C   UNL     1       9.012   1.014  21.317  0.00  0.00    +0.149 C 
ATOM     40  O   UNL     1       8.685  -0.377  21.132  0.00  0.00    -0.343 OA
ATOM     41  C   UNL     1       8.392  -1.051  22.367  0.00  0.00    +0.282 C 
ATOM     42  C   UNL     1       9.668  -1.051  23.243  0.00  0.00    +0.201 C 
ATOM     43  C   UNL     1      10.040   0.399  23.554  0.00  0.00    +0.179 C 
ATOM     44  C   UNL     1      10.221   1.202  22.256  0.00  0.00    +0.174 C 
BRANCH  42  45
ATOM     45  O   UNL     1      10.795  -1.658  22.577  0.00  0.00    -0.384 OA
ATOM     46  H   UNL     1      10.741  -1.388  21.635  0.00  0.00    +0.210 HD
ENDBRANCH  42  45
BRANCH  43  47
ATOM     47  O   UNL     1      11.251   0.450  24.323  0.00  0.00    -0.386 OA
ATOM     48  H   UNL     1      11.941   0.072  23.737  0.00  0.00    +0.210 HD
ENDBRANCH  43  47
BRANCH  44  49
ATOM     49  O   UNL     1      10.409   2.595  22.537  0.00  0.00    -0.387 OA
ATOM     50  H   UNL     1       9.526   3.003  22.603  0.00  0.00    +0.210 HD
ENDBRANCH  44  49
ENDBRANCH  37  41
ENDBRANCH  27  37
ENDBRANCH   1  28
TORSDOF 14
ENDMDL
MODEL 5
REMARK VINA RESULT:      -7.5      2.160      7.186
REMARK  Name = 
REMARK  15 active torsions:
REMARK  status: ('A' for Active; 'I' for Inactive)
REMARK    1  A    between atoms: C_1  and  C_2
REMARK    2  A    between atoms: C_3  and  O_41
REMARK    3  A    between atoms: C_4  and  O_40
REMARK    4  A    between atoms: C_5  and  O_39
REMARK    5  A    between atoms: C_6  and  O_8
REMARK    6  A    between atoms: O_8  and  C_9
REMARK    7  A    between atoms: C_10  and  O_38
REMARK    8  A    between atoms: C_11  and  O_37
REMARK    9  A    between atoms: C_14  and  O_15
REMARK   10  A    between atoms: O_15  and  C_16
REMARK   11  A    between atoms: C_17  and  C_29
REMARK   12  A    between atoms: C_21  and  O_28
REMARK   13  A    between atoms: C_23  and  O_27
REMARK   14  A    between atoms: C_31  and  O_36
REMARK   15  A    between atoms: C_32  and  O_35
REMARK                            x       y       z     vdW  Elec       q    Type
REMARK                         _______ _______ _______ _____ _____    ______ ____
ROOT
ATOM      1  O   UNL     1       6.955  -0.804  26.342  0.00  0.00    -0.453 OA
ENDROOT
BRANCH   1   2
ATOM      2  C   UNL     1       6.881  -1.734  25.305  0.00  0.00    +0.214 A 
ATOM      3  C   UNL     1       5.951  -2.911  25.340  0.00  0.00    +0.238 A 
ATOM      4  O   UNL     1       5.111  -3.035  26.223  0.00  0.00    -0.283 OA
ATOM      5  C   UNL     1       5.993  -3.874  24.241  0.00  0.00    +0.109 A 
ATOM      6  C   UNL     1       6.777  -3.556  23.141  0.00  0.00    +0.147 A 
ATOM      7  C   UNL     1       6.760  -4.379  22.013  0.00  0.00    +0.092 A 
ATOM      8  C   UNL     1       5.966  -5.525  22.008  0.00  0.00    +0.124 A 
ATOM      9  C   UNL     1       5.207  -5.874  23.119  0.00  0.00    +0.091 A 
ATOM     10  O   UNL     1       7.570  -2.445  23.093  0.00  0.00    -0.451 OA
ATOM     11  C   UNL     1       5.225  -5.049  24.240  0.00  0.00    +0.135 A 
ATOM     12  C   UNL     1       7.633  -1.584  24.195  0.00  0.00    +0.181 A 
BRANCH  12  13
ATOM     13  C   UNL     1       8.593  -0.454  23.968  0.00  0.00    +0.025 A 
ATOM     14  C   UNL     1       9.602  -0.175  24.920  0.00  0.00    +0.015 A 
ATOM     15  C   UNL     1      10.514   0.874  24.737  0.00  0.00    +0.050 A 
ATOM     16  C   UNL     1      10.439   1.645  23.593  0.00  0.00    +0.158 A 
ATOM     17  C   UNL     1       9.449   1.403  22.647  0.00  0.00    +0.159 A 
ATOM     18  C   UNL     1       8.516   0.385  22.843  0.00  0.00    +0.060 A 
BRANCH  16  19
ATOM     19  O   UNL     1      11.344   2.648  23.398  0.00  0.00    -0.503 OA
ATOM     20  H   UNL     1      11.013   3.391  23.944  0.00  0.00    +0.292 HD
ENDBRANCH  16  19
BRANCH  17  21
ATOM     21  O   UNL     1       9.435   2.191  21.529  0.00  0.00    -0.503 OA
ATOM     22  H   UNL     1       8.517   2.255  21.212  0.00  0.00    +0.292 HD
ENDBRANCH  17  21
ENDBRANCH  12  13
BRANCH   8  23
ATOM     23  O   UNL     1       5.899  -6.355  20.933  0.00  0.00    -0.507 OA
ATOM     24  H   UNL     1       5.183  -6.064  20.346  0.00  0.00    +0.292 HD
ENDBRANCH   8  23
BRANCH  11  25
ATOM     25  O   UNL     1       4.497  -5.418  25.334  0.00  0.00    -0.506 OA
ATOM     26  H   UNL     1       4.140  -4.637  25.786  0.00  0.00    +0.292 HD
ENDBRANCH  11  25
ENDBRANCH   1   2
BRANCH   1  28
ATOM     27  C   UNL     1       6.867   1.594  26.907  0.00  0.00    +0.221 C 
ATOM     28  C   UNL     1       6.107   0.364  26.317  0.00  0.00    +0.340 C 
ATOM     29  O   UNL     1       4.876   0.079  27.018  0.00  0.00    -0.337 OA
ATOM     30  C   UNL     1       4.998  -0.072  28.422  0.00  0.00    +0.198 C 
ATOM     31  C   UNL     1       5.617   1.159  29.068  0.00  0.00    +0.171 C 
ATOM     32  C   UNL     1       6.985   1.410  28.434  0.00  0.00    +0.180 C 
BRANCH  31  33
ATOM     33  O   UNL     1       5.766   0.988  30.480  0.00  0.00    -0.387 OA
ATOM     34  H   UNL     1       4.987   1.372  30.923  0.00  0.00    +0.210 HD
ENDBRANCH  31  33
BRANCH  32  35
ATOM     35  O   UNL     1       7.654   2.498  29.085  0.00  0.00    -0.386 OA
ATOM     36  H   UNL     1       8.102   3.016  28.385  0.00  0.00    +0.210 HD
ENDBRANCH  32  35
BRANCH  27  37
ATOM     37  O   UNL     1       6.227   2.818  26.486  0.00  0.00    -0.337 OA
BRANCH  37  41
ATOM     38  C   UNL     1       9.203   5.059  24.594  0.00  0.00    +0.041 C 
ATOM     39  C   UNL     1       7.734   5.502  24.546  0.00  0.00    +0.149 C 
ATOM     40  O   UNL     1       6.954   4.847  25.566  0.00  0.00    -0.343 OA
ATOM     41  C   UNL     1       6.789   3.440  25.326  0.00  0.00    +0.282 C 
ATOM     42  C   UNL     1       5.977   3.257  24.020  0.00  0.00    +0.201 C 
ATOM     43  C   UNL     1       6.778   3.860  22.866  0.00  0.00    +0.179 C 
ATOM     44  C   UNL     1       7.109   5.334  23.147  0.00  0.00    +0.174 C 
BRANCH  42  45
ATOM     45  O   UNL     1       4.701   3.929  24.064  0.00  0.00    -0.384 OA
ATOM     46  H   UNL     1       4.297   3.706  24.930  0.00  0.00    +0.210 HD
ENDBRANCH  42  45
BRANCH  43  47
ATOM     47  O   UNL     1       6.039   3.759  21.639  0.00  0.00    -0.386 OA
ATOM     48  H   UNL     1       5.754   2.822  21.589  0.00  0.00    +0.210 HD
ENDBRANCH  43  47
BRANCH  44  49
ATOM     49  O   UNL     1       7.994   5.860  22.149  0.00  0.00    -0.387 OA
ATOM     50  H   UNL     1       8.404   5.101  21.692  0.00  0.00    +0.210 HD
ENDBRANCH  44  49
ENDBRANCH  37  41
ENDBRANCH  27  37
ENDBRANCH   1  28
TORSDOF 14
ENDMDL
MODEL 6
REMARK VINA RESULT:      -7.5      2.451      7.692
REMARK  Name = 
REMARK  15 active torsions:
REMARK  status: ('A' for Active; 'I' for Inactive)
REMARK    1  A    between atoms: C_1  and  C_2
REMARK    2  A    between atoms: C_3  and  O_41
REMARK    3  A    between atoms: C_4  and  O_40
REMARK    4  A    between atoms: C_5  and  O_39
REMARK    5  A    between atoms: C_6  and  O_8
REMARK    6  A    between atoms: O_8  and  C_9
REMARK    7  A    between atoms: C_10  and  O_38
REMARK    8  A    between atoms: C_11  and  O_37
REMARK    9  A    between atoms: C_14  and  O_15
REMARK   10  A    between atoms: O_15  and  C_16
REMARK   11  A    between atoms: C_17  and  C_29
REMARK   12  A    between atoms: C_21  and  O_28
REMARK   13  A    between atoms: C_23  and  O_27
REMARK   14  A    between atoms: C_31  and  O_36
REMARK   15  A    between atoms: C_32  and  O_35
REMARK                            x       y       z     vdW  Elec       q    Type
REMARK                         _______ _______ _______ _____ _____    ______ ____
ROOT
ATOM      1  O   UNL     1       6.953   1.820  25.255  0.00  0.00    -0.453 OA
ENDROOT
BRANCH   1   2
ATOM      2  C   UNL     1       8.127   2.376  24.745  0.00  0.00    +0.214 A 
ATOM      3  C   UNL     1       8.541   3.790  25.029  0.00  0.00    +0.238 A 
ATOM      4  O   UNL     1       7.935   4.482  25.838  0.00  0.00    -0.283 OA
ATOM      5  C   UNL     1       9.750   4.310  24.394  0.00  0.00    +0.109 A 
ATOM      6  C   UNL     1      10.542   3.412  23.692  0.00  0.00    +0.147 A 
ATOM      7  C   UNL     1      11.768   3.826  23.169  0.00  0.00    +0.092 A 
ATOM      8  C   UNL     1      12.180   5.147  23.342  0.00  0.00    +0.124 A 
ATOM      9  C   UNL     1      11.378   6.065  24.010  0.00  0.00    +0.091 A 
ATOM     10  O   UNL     1      10.186   2.107  23.496  0.00  0.00    -0.451 OA
ATOM     11  C   UNL     1      10.157   5.646  24.532  0.00  0.00    +0.135 A 
ATOM     12  C   UNL     1       8.966   1.634  23.993  0.00  0.00    +0.181 A 
BRANCH  12  13
ATOM     13  C   UNL     1       8.736   0.197  23.633  0.00  0.00    +0.025 A 
ATOM     14  C   UNL     1       7.641  -0.165  22.813  0.00  0.00    +0.015 A 
ATOM     15  C   UNL     1       7.398  -1.500  22.459  0.00  0.00    +0.050 A 
ATOM     16  C   UNL     1       8.257  -2.487  22.907  0.00  0.00    +0.158 A 
ATOM     17  C   UNL     1       9.333  -2.161  23.726  0.00  0.00    +0.159 A 
ATOM     18  C   UNL     1       9.556  -0.841  24.111  0.00  0.00    +0.060 A 
BRANCH  16  19
ATOM     19  O   UNL     1       8.041  -3.783  22.539  0.00  0.00    -0.503 OA
ATOM     20  H   UNL     1       7.070  -3.848  22.419  0.00  0.00    +0.292 HD
ENDBRANCH  16  19
BRANCH  17  21
ATOM     21  O   UNL     1      10.154  -3.180  24.125  0.00  0.00    -0.503 OA
ATOM     22  H   UNL     1      10.795  -2.823  24.765  0.00  0.00    +0.292 HD
ENDBRANCH  17  21
ENDBRANCH  12  13
BRANCH   8  23
ATOM     23  O   UNL     1      13.369   5.603  22.867  0.00  0.00    -0.507 OA
ATOM     24  H   UNL     1      13.465   5.344  21.935  0.00  0.00    +0.292 HD
ENDBRANCH   8  23
BRANCH  11  25
ATOM     25  O   UNL     1       9.368   6.565  25.161  0.00  0.00    -0.506 OA
ATOM     26  H   UNL     1       9.244   7.348  24.602  0.00  0.00    +0.292 HD
ENDBRANCH  11  25
ENDBRANCH   1   2
BRANCH   1  28
ATOM     27  C   UNL     1       5.858  -0.175  26.202  0.00  0.00    +0.221 C 
ATOM     28  C   UNL     1       7.025   0.855  26.326  0.00  0.00    +0.340 C 
ATOM     29  O   UNL     1       7.028   1.547  27.595  0.00  0.00    -0.337 OA
ATOM     30  C   UNL     1       5.806   2.174  27.948  0.00  0.00    +0.198 C 
ATOM     31  C   UNL     1       4.652   1.182  27.970  0.00  0.00    +0.171 C 
ATOM     32  C   UNL     1       4.542   0.527  26.593  0.00  0.00    +0.180 C 
BRANCH  31  33
ATOM     33  O   UNL     1       3.418   1.826  28.295  0.00  0.00    -0.387 OA
ATOM     34  H   UNL     1       3.368   2.668  27.806  0.00  0.00    +0.210 HD
ENDBRANCH  31  33
BRANCH  32  35
ATOM     35  O   UNL     1       3.399  -0.338  26.532  0.00  0.00    -0.386 OA
ATOM     36  H   UNL     1       3.592  -1.104  27.110  0.00  0.00    +0.210 HD
ENDBRANCH  32  35
BRANCH  27  37
ATOM     37  O   UNL     1       6.166  -1.363  26.962  0.00  0.00    -0.337 OA
BRANCH  37  41
ATOM     38  C   UNL     1       4.766  -3.698  23.792  0.00  0.00    +0.041 C 
ATOM     39  C   UNL     1       4.577  -4.151  25.247  0.00  0.00    +0.149 C 
ATOM     40  O   UNL     1       4.753  -3.055  26.165  0.00  0.00    -0.343 OA
ATOM     41  C   UNL     1       6.112  -2.594  26.232  0.00  0.00    +0.282 C 
ATOM     42  C   UNL     1       6.992  -3.736  26.796  0.00  0.00    +0.201 C 
ATOM     43  C   UNL     1       6.923  -4.919  25.831  0.00  0.00    +0.179 C 
ATOM     44  C   UNL     1       5.466  -5.357  25.612  0.00  0.00    +0.174 C 
BRANCH  42  45
ATOM     45  O   UNL     1       6.537  -4.197  28.086  0.00  0.00    -0.384 OA
ATOM     46  H   UNL     1       5.928  -4.947  27.917  0.00  0.00    +0.210 HD
ENDBRANCH  42  45
BRANCH  43  47
ATOM     47  O   UNL     1       7.685  -6.025  26.341  0.00  0.00    -0.386 OA
ATOM     48  H   UNL     1       8.614  -5.711  26.351  0.00  0.00    +0.210 HD
ENDBRANCH  43  47
BRANCH  44  49
ATOM     49  O   UNL     1       5.380  -6.356  24.588  0.00  0.00    -0.387 OA
ATOM     50  H   UNL     1       4.675  -6.979  24.845  0.00  0.00    +0.210 HD
ENDBRANCH  44  49
ENDBRANCH  37  41
ENDBRANCH  27  37
ENDBRANCH   1  28
TORSDOF 14
ENDMDL
MODEL 7
REMARK VINA RESULT:      -7.4      1.770      6.010
REMARK  Name = 
REMARK  15 active torsions:
REMARK  status: ('A' for Active; 'I' for Inactive)
REMARK    1  A    between atoms: C_1  and  C_2
REMARK    2  A    between atoms: C_3  and  O_41
REMARK    3  A    between atoms: C_4  and  O_40
REMARK    4  A    between atoms: C_5  and  O_39
REMARK    5  A    between atoms: C_6  and  O_8
REMARK    6  A    between atoms: O_8  and  C_9
REMARK    7  A    between atoms: C_10  and  O_38
REMARK    8  A    between atoms: C_11  and  O_37
REMARK    9  A    between atoms: C_14  and  O_15
REMARK   10  A    between atoms: O_15  and  C_16
REMARK   11  A    between atoms: C_17  and  C_29
REMARK   12  A    between atoms: C_21  and  O_28
REMARK   13  A    between atoms: C_23  and  O_27
REMARK   14  A    between atoms: C_31  and  O_36
REMARK   15  A    between atoms: C_32  and  O_35
REMARK                            x       y       z     vdW  Elec       q    Type
REMARK                         _______ _______ _______ _____ _____    ______ ____
ROOT
ATOM      1  O   UNL     1       5.639  -2.573  26.706  0.00  0.00    -0.453 OA
ENDROOT
BRANCH   1   2
ATOM      2  C   UNL     1       5.085  -3.749  26.200  0.00  0.00    +0.214 A 
ATOM      3  C   UNL     1       3.967  -4.477  26.887  0.00  0.00    +0.238 A 
ATOM      4  O   UNL     1       3.393  -3.995  27.856  0.00  0.00    -0.283 OA
ATOM      5  C   UNL     1       3.498  -5.741  26.322  0.00  0.00    +0.109 A 
ATOM      6  C   UNL     1       4.002  -6.115  25.084  0.00  0.00    +0.147 A 
ATOM      7  C   UNL     1       3.500  -7.249  24.443  0.00  0.00    +0.092 A 
ATOM      8  C   UNL     1       2.505  -8.006  25.061  0.00  0.00    +0.124 A 
ATOM      9  C   UNL     1       2.020  -7.663  26.317  0.00  0.00    +0.091 A 
ATOM     10  O   UNL     1       4.974  -5.408  24.436  0.00  0.00    -0.451 OA
ATOM     11  C   UNL     1       2.523  -6.530  26.951  0.00  0.00    +0.135 A 
ATOM     12  C   UNL     1       5.521  -4.265  25.031  0.00  0.00    +0.181 A 
BRANCH  12  13
ATOM     13  C   UNL     1       6.604  -3.660  24.189  0.00  0.00    +0.025 A 
ATOM     14  C   UNL     1       6.277  -2.966  22.999  0.00  0.00    +0.015 A 
ATOM     15  C   UNL     1       7.266  -2.389  22.191  0.00  0.00    +0.050 A 
ATOM     16  C   UNL     1       8.592  -2.483  22.570  0.00  0.00    +0.158 A 
ATOM     17  C   UNL     1       8.943  -3.171  23.727  0.00  0.00    +0.159 A 
ATOM     18  C   UNL     1       7.967  -3.779  24.513  0.00  0.00    +0.060 A 
BRANCH  16  19
ATOM     19  O   UNL     1       9.555  -1.897  21.801  0.00  0.00    -0.503 OA
ATOM     20  H   UNL     1       9.225  -0.988  21.642  0.00  0.00    +0.292 HD
ENDBRANCH  16  19
BRANCH  17  21
ATOM     21  O   UNL     1      10.270  -3.219  24.056  0.00  0.00    -0.503 OA
ATOM     22  H   UNL     1      10.732  -2.518  23.562  0.00  0.00    +0.292 HD
ENDBRANCH  17  21
ENDBRANCH  12  13
BRANCH   8  23
ATOM     23  O   UNL     1       1.969  -9.111  24.477  0.00  0.00    -0.507 OA
ATOM     24  H   UNL     1       2.360  -9.907  24.874  0.00  0.00    +0.292 HD
ENDBRANCH   8  23
BRANCH  11  25
ATOM     25  O   UNL     1       2.057  -6.219  28.196  0.00  0.00    -0.506 OA
ATOM     26  H   UNL     1       1.414  -6.882  28.495  0.00  0.00    +0.292 HD
ENDBRANCH  11  25
ENDBRANCH   1   2
BRANCH   1  28
ATOM     27  C   UNL     1       6.527  -0.349  26.122  0.00  0.00    +0.221 C 
ATOM     28  C   UNL     1       5.292  -1.305  26.109  0.00  0.00    +0.340 C 
ATOM     29  O   UNL     1       4.148  -0.750  26.794  0.00  0.00    -0.337 OA
ATOM     30  C   UNL     1       4.388  -0.309  28.120  0.00  0.00    +0.198 C 
ATOM     31  C   UNL     1       5.501   0.728  28.173  0.00  0.00    +0.171 C 
ATOM     32  C   UNL     1       6.767   0.121  27.571  0.00  0.00    +0.180 C 
BRANCH  31  33
ATOM     33  O   UNL     1       5.760   1.146  29.516  0.00  0.00    -0.387 OA
ATOM     34  H   UNL     1       5.166   1.889  29.730  0.00  0.00    +0.210 HD
ENDBRANCH  31  33
BRANCH  32  35
ATOM     35  O   UNL     1       7.874   1.024  27.698  0.00  0.00    -0.386 OA
ATOM     36  H   UNL     1       7.500   1.903  27.911  0.00  0.00    +0.210 HD
ENDBRANCH  32  35
BRANCH  27  37
ATOM     37  O   UNL     1       6.340   0.711  25.159  0.00  0.00    -0.337 OA
BRANCH  37  41
ATOM     38  C   UNL     1      10.440   0.986  24.402  0.00  0.00    +0.041 C 
ATOM     39  C   UNL     1       9.504   2.166  24.106  0.00  0.00    +0.149 C 
ATOM     40  O   UNL     1       8.247   2.025  24.795  0.00  0.00    -0.343 OA
ATOM     41  C   UNL     1       7.445   0.949  24.281  0.00  0.00    +0.282 C 
ATOM     42  C   UNL     1       7.066   1.274  22.815  0.00  0.00    +0.201 C 
ATOM     43  C   UNL     1       8.352   1.363  21.993  0.00  0.00    +0.179 C 
ATOM     44  C   UNL     1       9.309   2.404  22.595  0.00  0.00    +0.174 C 
BRANCH  42  45
ATOM     45  O   UNL     1       6.379   2.537  22.691  0.00  0.00    -0.384 OA
ATOM     46  H   UNL     1       7.047   3.236  22.853  0.00  0.00    +0.210 HD
ENDBRANCH  42  45
BRANCH  43  47
ATOM     47  O   UNL     1       8.052   1.716  20.634  0.00  0.00    -0.386 OA
ATOM     48  H   UNL     1       7.124   2.035  20.652  0.00  0.00    +0.210 HD
ENDBRANCH  43  47
BRANCH  44  49
ATOM     49  O   UNL     1      10.578   2.379  21.928  0.00  0.00    -0.387 OA
ATOM     50  H   UNL     1      11.252   2.137  22.590  0.00  0.00    +0.210 HD
ENDBRANCH  44  49
ENDBRANCH  37  41
ENDBRANCH  27  37
ENDBRANCH   1  28
TORSDOF 14
ENDMDL
MODEL 8
REMARK VINA RESULT:      -7.4      3.527      8.284
REMARK  Name = 
REMARK  15 active torsions:
REMARK  status: ('A' for Active; 'I' for Inactive)
REMARK    1  A    between atoms: C_1  and  C_2
REMARK    2  A    between atoms: C_3  and  O_41
REMARK    3  A    between atoms: C_4  and  O_40
REMARK    4  A    between atoms: C_5  and  O_39
REMARK    5  A    between atoms: C_6  and  O_8
REMARK    6  A    between atoms: O_8  and  C_9
REMARK    7  A    between atoms: C_10  and  O_38
REMARK    8  A    between atoms: C_11  and  O_37
REMARK    9  A    between atoms: C_14  and  O_15
REMARK   10  A    between atoms: O_15  and  C_16
REMARK   11  A    between atoms: C_17  and  C_29
REMARK   12  A    between atoms: C_21  and  O_28
REMARK   13  A    between atoms: C_23  and  O_27
REMARK   14  A    between atoms: C_31  and  O_36
REMARK   15  A    between atoms: C_32  and  O_35
REMARK                            x       y       z     vdW  Elec       q    Type
REMARK                         _______ _______ _______ _____ _____    ______ ____
ROOT
ATOM      1  O   UNL     1       6.928   2.180  24.700  0.00  0.00    -0.453 OA
ENDROOT
BRANCH   1   2
ATOM      2  C   UNL     1       5.933   3.158  24.745  0.00  0.00    +0.214 A 
ATOM      3  C   UNL     1       4.473   2.822  24.829  0.00  0.00    +0.238 A 
ATOM      4  O   UNL     1       4.091   1.671  25.002  0.00  0.00    -0.283 OA
ATOM      5  C   UNL     1       3.498   3.911  24.798  0.00  0.00    +0.109 A 
ATOM      6  C   UNL     1       3.986   5.209  24.860  0.00  0.00    +0.147 A 
ATOM      7  C   UNL     1       3.097   6.282  24.956  0.00  0.00    +0.092 A 
ATOM      8  C   UNL     1       1.724   6.040  24.972  0.00  0.00    +0.124 A 
ATOM      9  C   UNL     1       1.224   4.747  24.872  0.00  0.00    +0.091 A 
ATOM     10  O   UNL     1       5.320   5.500  24.850  0.00  0.00    -0.451 OA
ATOM     11  C   UNL     1       2.114   3.681  24.779  0.00  0.00    +0.135 A 
ATOM     12  C   UNL     1       6.259   4.467  24.750  0.00  0.00    +0.181 A 
BRANCH  12  13
ATOM     13  C   UNL     1       7.664   4.991  24.705  0.00  0.00    +0.025 A 
ATOM     14  C   UNL     1       8.037   6.097  25.504  0.00  0.00    +0.015 A 
ATOM     15  C   UNL     1       9.342   6.610  25.485  0.00  0.00    +0.050 A 
ATOM     16  C   UNL     1      10.293   6.013  24.679  0.00  0.00    +0.158 A 
ATOM     17  C   UNL     1       9.950   4.933  23.872  0.00  0.00    +0.159 A 
ATOM     18  C   UNL     1       8.645   4.444  23.860  0.00  0.00    +0.060 A 
BRANCH  16  19
ATOM     19  O   UNL     1      11.571   6.491  24.680  0.00  0.00    -0.503 OA
ATOM     20  H   UNL     1      11.497   7.397  24.316  0.00  0.00    +0.292 HD
ENDBRANCH  16  19
BRANCH  17  21
ATOM     21  O   UNL     1      10.938   4.377  23.107  0.00  0.00    -0.503 OA
ATOM     22  H   UNL     1      10.761   4.594  22.175  0.00  0.00    +0.292 HD
ENDBRANCH  17  21
ENDBRANCH  12  13
BRANCH   8  23
ATOM     23  O   UNL     1       0.814   7.044  25.078  0.00  0.00    -0.507 OA
ATOM     24  H   UNL     1       0.460   7.065  25.982  0.00  0.00    +0.292 HD
ENDBRANCH   8  23
BRANCH  11  25
ATOM     25  O   UNL     1       1.608   2.419  24.653  0.00  0.00    -0.506 OA
ATOM     26  H   UNL     1       0.764   2.341  25.124  0.00  0.00    +0.292 HD
ENDBRANCH  11  25
ENDBRANCH   1   2
BRANCH   1  28
ATOM     27  C   UNL     1       8.035   0.124  23.910  0.00  0.00    +0.221 C 
ATOM     28  C   UNL     1       6.819   1.093  23.756  0.00  0.00    +0.340 C 
ATOM     29  O   UNL     1       6.697   1.629  22.420  0.00  0.00    -0.337 OA
ATOM     30  C   UNL     1       7.862   2.250  21.906  0.00  0.00    +0.198 C 
ATOM     31  C   UNL     1       9.053   1.303  21.911  0.00  0.00    +0.171 C 
ATOM     32  C   UNL     1       9.289   0.819  23.341  0.00  0.00    +0.180 C 
BRANCH  31  33
ATOM     33  O   UNL     1      10.232   1.945  21.420  0.00  0.00    -0.387 OA
ATOM     34  H   UNL     1      10.051   2.898  21.326  0.00  0.00    +0.210 HD
ENDBRANCH  31  33
BRANCH  32  35
ATOM     35  O   UNL     1      10.469   0.007  23.414  0.00  0.00    -0.386 OA
ATOM     36  H   UNL     1      10.952   0.131  22.572  0.00  0.00    +0.210 HD
ENDBRANCH  32  35
BRANCH  27  37
ATOM     37  O   UNL     1       7.724  -1.155  23.318  0.00  0.00    -0.337 OA
BRANCH  37  41
ATOM     38  C   UNL     1       6.471  -3.212  26.733  0.00  0.00    +0.041 C 
ATOM     39  C   UNL     1       7.950  -2.854  26.528  0.00  0.00    +0.149 C 
ATOM     40  O   UNL     1       8.108  -1.825  25.531  0.00  0.00    -0.343 OA
ATOM     41  C   UNL     1       7.784  -2.277  24.206  0.00  0.00    +0.282 C 
ATOM     42  C   UNL     1       8.790  -3.384  23.804  0.00  0.00    +0.201 C 
ATOM     43  C   UNL     1       8.629  -4.556  24.773  0.00  0.00    +0.179 C 
ATOM     44  C   UNL     1       8.822  -4.089  26.224  0.00  0.00    +0.174 C 
BRANCH  42  45
ATOM     45  O   UNL     1      10.160  -2.939  23.879  0.00  0.00    -0.384 OA
ATOM     46  H   UNL     1      10.691  -3.713  24.162  0.00  0.00    +0.210 HD
ENDBRANCH  42  45
BRANCH  43  47
ATOM     47  O   UNL     1       9.581  -5.588  24.469  0.00  0.00    -0.386 OA
ATOM     48  H   UNL     1       9.104  -6.429  24.633  0.00  0.00    +0.210 HD
ENDBRANCH  43  47
BRANCH  44  49
ATOM     49  O   UNL     1       8.515  -5.143  27.146  0.00  0.00    -0.387 OA
ATOM     50  H   UNL     1       7.603  -5.437  26.962  0.00  0.00    +0.210 HD
ENDBRANCH  44  49
ENDBRANCH  37  41
ENDBRANCH  27  37
ENDBRANCH   1  28
TORSDOF 14
ENDMDL
MODEL 9
REMARK VINA RESULT:      -7.4      1.770      7.226
REMARK  Name = 
REMARK  15 active torsions:
REMARK  status: ('A' for Active; 'I' for Inactive)
REMARK    1  A    between atoms: C_1  and  C_2
REMARK    2  A    between atoms: C_3  and  O_41
REMARK    3  A    between atoms: C_4  and  O_40
REMARK    4  A    between atoms: C_5  and  O_39
REMARK    5  A    between atoms: C_6  and  O_8
REMARK    6  A    between atoms: O_8  and  C_9
REMARK    7  A    between atoms: C_10  and  O_38
REMARK    8  A    between atoms: C_11  and  O_37
REMARK    9  A    between atoms: C_14  and  O_15
REMARK   10  A    between atoms: O_15  and  C_16
REMARK   11  A    between atoms: C_17  and  C_29
REMARK   12  A    between atoms: C_21  and  O_28
REMARK   13  A    between atoms: C_23  and  O_27
REMARK   14  A    between atoms: C_31  and  O_36
REMARK   15  A    between atoms: C_32  and  O_35
REMARK                            x       y       z     vdW  Elec       q    Type
REMARK                         _______ _______ _______ _____ _____    ______ ____
ROOT
ATOM      1  O   UNL     1       5.383  -0.576  25.059  0.00  0.00    -0.453 OA
ENDROOT
BRANCH   1   2
ATOM      2  C   UNL     1       6.516   0.095  24.596  0.00  0.00    +0.214 A 
ATOM      3  C   UNL     1       6.802   1.528  24.937  0.00  0.00    +0.238 A 
ATOM      4  O   UNL     1       6.122   2.138  25.752  0.00  0.00    -0.283 OA
ATOM      5  C   UNL     1       7.976   2.171  24.349  0.00  0.00    +0.109 A 
ATOM      6  C   UNL     1       8.856   1.367  23.638  0.00  0.00    +0.147 A 
ATOM      7  C   UNL     1      10.054   1.902  23.158  0.00  0.00    +0.092 A 
ATOM      8  C   UNL     1      10.348   3.246  23.385  0.00  0.00    +0.124 A 
ATOM      9  C   UNL     1       9.456   4.069  24.062  0.00  0.00    +0.091 A 
ATOM     10  O   UNL     1       8.618   0.045  23.390  0.00  0.00    -0.451 OA
ATOM     11  C   UNL     1       8.264   3.530  24.540  0.00  0.00    +0.135 A 
ATOM     12  C   UNL     1       7.432  -0.546  23.841  0.00  0.00    +0.181 A 
BRANCH  12  13
ATOM     13  C   UNL     1       7.333  -1.985  23.429  0.00  0.00    +0.025 A 
ATOM     14  C   UNL     1       6.419  -2.376  22.421  0.00  0.00    +0.015 A 
ATOM     15  C   UNL     1       6.303  -3.712  22.014  0.00  0.00    +0.050 A 
ATOM     16  C   UNL     1       7.110  -4.671  22.597  0.00  0.00    +0.158 A 
ATOM     17  C   UNL     1       8.007  -4.318  23.599  0.00  0.00    +0.159 A 
ATOM     18  C   UNL     1       8.099  -2.997  24.034  0.00  0.00    +0.060 A 
BRANCH  16  19
ATOM     19  O   UNL     1       7.020  -5.968  22.181  0.00  0.00    -0.503 OA
ATOM     20  H   UNL     1       6.270  -5.975  21.551  0.00  0.00    +0.292 HD
ENDBRANCH  16  19
BRANCH  17  21
ATOM     21  O   UNL     1       8.787  -5.309  24.128  0.00  0.00    -0.503 OA
ATOM     22  H   UNL     1       9.070  -5.894  23.403  0.00  0.00    +0.292 HD
ENDBRANCH  17  21
ENDBRANCH  12  13
BRANCH   8  23
ATOM     23  O   UNL     1      11.504   3.817  22.954  0.00  0.00    -0.507 OA
ATOM     24  H   UNL     1      12.073   4.008  23.717  0.00  0.00    +0.292 HD
ENDBRANCH   8  23
BRANCH  11  25
ATOM     25  O   UNL     1       7.386   4.357  25.180  0.00  0.00    -0.506 OA
ATOM     26  H   UNL     1       7.233   4.054  26.089  0.00  0.00    +0.292 HD
ENDBRANCH  11  25
ENDBRANCH   1   2
BRANCH   1  28
ATOM     27  C   UNL     1       4.189  -2.381  26.237  0.00  0.00    +0.221 C 
ATOM     28  C   UNL     1       5.514  -1.566  26.100  0.00  0.00    +0.340 C 
ATOM     29  O   UNL     1       5.902  -0.918  27.332  0.00  0.00    -0.337 OA
ATOM     30  C   UNL     1       4.908  -0.103  27.929  0.00  0.00    +0.198 C 
ATOM     31  C   UNL     1       3.632  -0.886  28.206  0.00  0.00    +0.171 C 
ATOM     32  C   UNL     1       3.124  -1.477  26.891  0.00  0.00    +0.180 C 
BRANCH  31  33
ATOM     33  O   UNL     1       2.622  -0.051  28.779  0.00  0.00    -0.387 OA
ATOM     34  H   UNL     1       3.055   0.709  29.208  0.00  0.00    +0.210 HD
ENDBRANCH  31  33
BRANCH  32  35
ATOM     35  O   UNL     1       1.864  -2.134  27.083  0.00  0.00    -0.386 OA
ATOM     36  H   UNL     1       2.057  -3.008  27.482  0.00  0.00    +0.210 HD
ENDBRANCH  32  35
BRANCH  27  37
ATOM     37  O   UNL     1       4.443  -3.624  26.927  0.00  0.00    -0.337 OA
BRANCH  37  41
ATOM     38  C   UNL     1       1.422  -6.463  26.401  0.00  0.00    +0.041 C 
ATOM     39  C   UNL     1       2.847  -6.890  26.784  0.00  0.00    +0.149 C 
ATOM     40  O   UNL     1       3.607  -5.781  27.302  0.00  0.00    -0.343 OA
ATOM     41  C   UNL     1       3.912  -4.797  26.301  0.00  0.00    +0.282 C 
ATOM     42  C   UNL     1       4.827  -5.447  25.234  0.00  0.00    +0.201 C 
ATOM     43  C   UNL     1       4.059  -6.594  24.575  0.00  0.00    +0.179 C 
ATOM     44  C   UNL     1       3.581  -7.603  25.631  0.00  0.00    +0.174 C 
BRANCH  42  45
ATOM     45  O   UNL     1       6.032  -5.999  25.804  0.00  0.00    -0.384 OA
ATOM     46  H   UNL     1       6.334  -6.704  25.192  0.00  0.00    +0.210 HD
ENDBRANCH  42  45
BRANCH  43  47
ATOM     47  O   UNL     1       4.889  -7.262  23.613  0.00  0.00    -0.386 OA
ATOM     48  H   UNL     1       5.654  -6.663  23.476  0.00  0.00    +0.210 HD
ENDBRANCH  43  47
BRANCH  44  49
ATOM     49  O   UNL     1       2.725  -8.592  25.043  0.00  0.00    -0.387 OA
ATOM     50  H   UNL     1       1.851  -8.181  24.911  0.00  0.00    +0.210 HD
ENDBRANCH  44  49
ENDBRANCH  37  41
ENDBRANCH  27  37
ENDBRANCH   1  28
TORSDOF 14
ENDMDL
