MODEL 1
REMARK VINA RESULT:      -7.5      0.000      0.000
REMARK  Name = 
REMARK  17 active torsions:
REMARK  status: ('A' for Active; 'I' for Inactive)
REMARK    1  A    between atoms: C_1  and  C_2
REMARK    2  A    between atoms: C_3  and  O_43
REMARK    3  A    between atoms: C_4  and  O_42
REMARK    4  A    between atoms: C_5  and  O_41
REMARK    5  A    between atoms: C_6  and  O_8
REMARK    6  A    between atoms: O_8  and  C_9
REMARK    7  A    between atoms: C_9  and  C_10
REMARK    8  A    between atoms: C_11  and  O_40
REMARK    9  A    between atoms: C_12  and  O_39
REMARK   10  A    between atoms: C_13  and  O_38
REMARK   11  A    between atoms: C_14  and  O_16
REMARK   12  A    between atoms: O_16  and  C_17
REMARK   13  A    between atoms: C_19  and  O_37
REMARK   14  A    between atoms: C_24  and  C_29
REMARK   15  A    between atoms: C_25  and  O_28
REMARK   16  A    between atoms: C_31  and  O_36
REMARK   17  A    between atoms: C_32  and  O_35
REMARK                            x       y       z     vdW  Elec       q    Type
REMARK                         _______ _______ _______ _____ _____    ______ ____
ROOT
ATOM      1  C   UNL     1       3.207  -5.445  26.631  0.00  0.00    +0.179 C 
ATOM      2  O   UNL     1       4.292  -4.602  27.056  0.00  0.00    -0.331 OA
ATOM      3  C   UNL     1       5.430  -5.288  27.600  0.00  0.00    +0.339 C 
ATOM      4  C   UNL     1       4.998  -6.121  28.828  0.00  0.00    +0.214 C 
ATOM      5  C   UNL     1       3.882  -7.094  28.417  0.00  0.00    +0.180 C 
ATOM      6  C   UNL     1       2.704  -6.308  27.808  0.00  0.00    +0.177 C 
ENDROOT
BRANCH   6   7
ATOM      7  O   UNL     1       1.615  -7.153  27.449  0.00  0.00    -0.386 OA
ATOM      8  H   UNL     1       1.915  -7.796  26.785  0.00  0.00    +0.210 HD
ENDBRANCH   6   7
BRANCH   5   9
ATOM      9  O   UNL     1       3.450  -7.847  29.553  0.00  0.00    -0.386 OA
ATOM     10  H   UNL     1       2.479  -7.932  29.468  0.00  0.00    +0.210 HD
ENDBRANCH   5   9
BRANCH   4  11
ATOM     11  O   UNL     1       4.485  -5.292  29.890  0.00  0.00    -0.383 OA
ATOM     12  H   UNL     1       5.177  -4.637  30.106  0.00  0.00    +0.210 HD
ENDBRANCH   4  11
BRANCH   3  13
ATOM     13  O   UNL     1       6.434  -4.336  28.003  0.00  0.00    -0.461 OA
BRANCH  13  14
ATOM     14  C   UNL     1       7.290  -3.900  27.021  0.00  0.00    +0.131 A 
ATOM     15  C   UNL     1       7.191  -2.548  26.661  0.00  0.00    +0.093 A 
ATOM     16  C   UNL     1       8.002  -2.016  25.646  0.00  0.00    +0.147 A 
ATOM     17  O   UNL     1       7.802  -0.695  25.314  0.00  0.00    -0.451 OA
ATOM     18  C   UNL     1       8.610  -0.111  24.338  0.00  0.00    +0.181 A 
ATOM     19  C   UNL     1       9.600  -0.765  23.701  0.00  0.00    +0.208 A 
ATOM     20  C   UNL     1       9.781  -2.223  23.957  0.00  0.00    +0.238 A 
ATOM     21  O   UNL     1      10.597  -2.870  23.311  0.00  0.00    -0.283 OA
ATOM     22  C   UNL     1       8.944  -2.821  25.013  0.00  0.00    +0.109 A 
ATOM     23  C   UNL     1       9.066  -4.162  25.398  0.00  0.00    +0.135 A 
ATOM     24  C   UNL     1       8.247  -4.698  26.395  0.00  0.00    +0.092 A 
BRANCH  18  25
ATOM     25  C   UNL     1       8.276   1.322  24.068  0.00  0.00    +0.025 A 
ATOM     26  C   UNL     1       8.824   2.364  24.847  0.00  0.00    +0.015 A 
ATOM     27  C   UNL     1       8.462   3.702  24.639  0.00  0.00    +0.050 A 
ATOM     28  C   UNL     1       7.600   4.014  23.600  0.00  0.00    +0.158 A 
ATOM     29  C   UNL     1       7.100   3.014  22.777  0.00  0.00    +0.159 A 
ATOM     30  C   UNL     1       7.422   1.673  23.004  0.00  0.00    +0.060 A 
BRANCH  29  31
ATOM     31  O   UNL     1       6.290   3.405  21.751  0.00  0.00    -0.503 OA
ATOM     32  H   UNL     1       6.437   4.360  21.591  0.00  0.00    +0.292 HD
ENDBRANCH  29  31
BRANCH  28  33
ATOM     33  O   UNL     1       7.257   5.317  23.399  0.00  0.00    -0.503 OA
ATOM     34  H   UNL     1       7.608   5.531  22.510  0.00  0.00    +0.292 HD
ENDBRANCH  28  33
ENDBRANCH  18  25
BRANCH  23  35
ATOM     35  O   UNL     1      10.001  -4.977  24.824  0.00  0.00    -0.506 OA
ATOM     36  H   UNL     1      10.788  -4.477  24.558  0.00  0.00    +0.292 HD
ENDBRANCH  23  35
BRANCH  19  37
ATOM     37  O   UNL     1      10.492  -0.194  22.808  0.00  0.00    -0.501 OA
ATOM     38  H   UNL     1      11.361  -0.614  22.917  0.00  0.00    +0.292 HD
ENDBRANCH  19  37
ENDBRANCH  13  14
ENDBRANCH   3  13
BRANCH   1  39
ATOM     39  C   UNL     1       3.590  -6.218  25.352  0.00  0.00    +0.197 C 
BRANCH  39  40
ATOM     40  O   UNL     1       3.129  -5.560  24.173  0.00  0.00    -0.346 OA
BRANCH  40  44
ATOM     41  C   UNL     1       6.482  -6.299  21.591  0.00  0.00    +0.041 C 
ATOM     42  C   UNL     1       6.564  -5.581  22.941  0.00  0.00    +0.149 C 
ATOM     43  O   UNL     1       5.406  -5.861  23.741  0.00  0.00    -0.343 OA
ATOM     44  C   UNL     1       4.207  -5.233  23.287  0.00  0.00    +0.282 C 
ATOM     45  C   UNL     1       4.378  -3.699  23.270  0.00  0.00    +0.201 C 
ATOM     46  C   UNL     1       5.550  -3.338  22.360  0.00  0.00    +0.179 C 
ATOM     47  C   UNL     1       6.824  -4.072  22.811  0.00  0.00    +0.174 C 
BRANCH  47  48
ATOM     48  O   UNL     1       7.897  -3.844  21.895  0.00  0.00    -0.387 OA
ATOM     49  H   UNL     1       7.945  -4.621  21.306  0.00  0.00    +0.210 HD
ENDBRANCH  47  48
BRANCH  46  50
ATOM     50  O   UNL     1       5.790  -1.924  22.385  0.00  0.00    -0.386 OA
ATOM     51  H   UNL     1       4.966  -1.525  22.738  0.00  0.00    +0.210 HD
ENDBRANCH  46  50
BRANCH  45  52
ATOM     52  O   UNL     1       4.678  -3.180  24.583  0.00  0.00    -0.384 OA
ATOM     53  H   UNL     1       4.470  -3.895  25.217  0.00  0.00    +0.210 HD
ENDBRANCH  45  52
ENDBRANCH  40  44
ENDBRANCH  39  40
ENDBRANCH   1  39
TORSDOF 16
ENDMDL
MODEL 2
REMARK VINA RESULT:      -7.5      2.695      5.626
REMARK  Name = 
REMARK  17 active torsions:
REMARK  status: ('A' for Active; 'I' for Inactive)
REMARK    1  A    between atoms: C_1  and  C_2
REMARK    2  A    between atoms: C_3  and  O_43
REMARK    3  A    between atoms: C_4  and  O_42
REMARK    4  A    between atoms: C_5  and  O_41
REMARK    5  A    between atoms: C_6  and  O_8
REMARK    6  A    between atoms: O_8  and  C_9
REMARK    7  A    between atoms: C_9  and  C_10
REMARK    8  A    between atoms: C_11  and  O_40
REMARK    9  A    between atoms: C_12  and  O_39
REMARK   10  A    between atoms: C_13  and  O_38
REMARK   11  A    between atoms: C_14  and  O_16
REMARK   12  A    between atoms: O_16  and  C_17
REMARK   13  A    between atoms: C_19  and  O_37
REMARK   14  A    between atoms: C_24  and  C_29
REMARK   15  A    between atoms: C_25  and  O_28
REMARK   16  A    between atoms: C_31  and  O_36
REMARK   17  A    between atoms: C_32  and  O_35
REMARK                            x       y       z     vdW  Elec       q    Type
REMARK                         _______ _______ _______ _____ _____    ______ ____
ROOT
ATOM      1  C   UNL     1       8.401  -4.550  24.359  0.00  0.00    +0.179 C 
ATOM      2  O   UNL     1       7.058  -4.043  24.258  0.00  0.00    -0.331 OA
ATOM      3  C   UNL     1       6.513  -3.496  25.469  0.00  0.00    +0.339 C 
ATOM      4  C   UNL     1       6.505  -4.577  26.573  0.00  0.00    +0.214 C 
ATOM      5  C   UNL     1       7.932  -5.111  26.774  0.00  0.00    +0.180 C 
ATOM      6  C   UNL     1       8.479  -5.651  25.438  0.00  0.00    +0.177 C 
ENDROOT
BRANCH   6   7
ATOM      7  O   UNL     1       9.786  -6.204  25.570  0.00  0.00    -0.386 OA
ATOM      8  H   UNL     1      10.361  -5.834  24.880  0.00  0.00    +0.210 HD
ENDBRANCH   6   7
BRANCH   5   9
ATOM      9  O   UNL     1       7.932  -6.137  27.770  0.00  0.00    -0.386 OA
ATOM     10  H   UNL     1       7.777  -6.977  27.292  0.00  0.00    +0.210 HD
ENDBRANCH   5   9
BRANCH   4  11
ATOM     11  O   UNL     1       5.666  -5.697  26.225  0.00  0.00    -0.383 OA
ATOM     12  H   UNL     1       5.641  -5.748  25.250  0.00  0.00    +0.210 HD
ENDBRANCH   4  11
BRANCH   3  13
ATOM     13  O   UNL     1       5.164  -3.042  25.241  0.00  0.00    -0.461 OA
BRANCH  13  14
ATOM     14  C   UNL     1       4.845  -1.802  25.742  0.00  0.00    +0.131 A 
ATOM     15  C   UNL     1       5.556  -0.715  25.215  0.00  0.00    +0.093 A 
ATOM     16  C   UNL     1       5.323   0.588  25.684  0.00  0.00    +0.147 A 
ATOM     17  O   UNL     1       6.104   1.591  25.156  0.00  0.00    -0.451 OA
ATOM     18  C   UNL     1       5.884   2.908  25.563  0.00  0.00    +0.181 A 
ATOM     19  C   UNL     1       4.929   3.266  26.443  0.00  0.00    +0.208 A 
ATOM     20  C   UNL     1       4.133   2.199  27.115  0.00  0.00    +0.238 A 
ATOM     21  O   UNL     1       3.337   2.484  28.003  0.00  0.00    -0.283 OA
ATOM     22  C   UNL     1       4.352   0.816  26.653  0.00  0.00    +0.109 A 
ATOM     23  C   UNL     1       3.619  -0.267  27.154  0.00  0.00    +0.135 A 
ATOM     24  C   UNL     1       3.861  -1.566  26.702  0.00  0.00    +0.092 A 
BRANCH  18  25
ATOM     25  C   UNL     1       6.809   3.893  24.920  0.00  0.00    +0.025 A 
ATOM     26  C   UNL     1       7.894   4.452  25.629  0.00  0.00    +0.015 A 
ATOM     27  C   UNL     1       8.723   5.424  25.051  0.00  0.00    +0.050 A 
ATOM     28  C   UNL     1       8.512   5.793  23.732  0.00  0.00    +0.158 A 
ATOM     29  C   UNL     1       7.493   5.208  22.993  0.00  0.00    +0.159 A 
ATOM     30  C   UNL     1       6.636   4.269  23.574  0.00  0.00    +0.060 A 
BRANCH  29  31
ATOM     31  O   UNL     1       7.374   5.593  21.689  0.00  0.00    -0.503 OA
ATOM     32  H   UNL     1       7.235   4.791  21.144  0.00  0.00    +0.292 HD
ENDBRANCH  29  31
BRANCH  28  33
ATOM     33  O   UNL     1       9.325   6.732  23.174  0.00  0.00    -0.503 OA
ATOM     34  H   UNL     1       9.818   7.113  23.928  0.00  0.00    +0.292 HD
ENDBRANCH  28  33
ENDBRANCH  18  25
BRANCH  23  35
ATOM     35  O   UNL     1       2.633  -0.082  28.082  0.00  0.00    -0.506 OA
ATOM     36  H   UNL     1       2.969   0.384  28.864  0.00  0.00    +0.292 HD
ENDBRANCH  23  35
BRANCH  19  37
ATOM     37  O   UNL     1       4.608   4.567  26.790  0.00  0.00    -0.501 OA
ATOM     38  H   UNL     1       3.699   4.589  27.132  0.00  0.00    +0.292 HD
ENDBRANCH  19  37
ENDBRANCH  13  14
ENDBRANCH   3  13
BRANCH   1  39
ATOM     39  C   UNL     1       9.407  -3.391  24.512  0.00  0.00    +0.197 C 
BRANCH  39  40
ATOM     40  O   UNL     1       9.976  -3.010  23.261  0.00  0.00    -0.346 OA
BRANCH  40  44
ATOM     41  C   UNL     1      11.443   0.799  24.601  0.00  0.00    +0.041 C 
ATOM     42  C   UNL     1       9.962   0.444  24.435  0.00  0.00    +0.149 C 
ATOM     43  O   UNL     1       9.778  -0.977  24.397  0.00  0.00    -0.343 OA
ATOM     44  C   UNL     1      10.237  -1.603  23.199  0.00  0.00    +0.282 C 
ATOM     45  C   UNL     1       9.498  -1.023  21.974  0.00  0.00    +0.201 C 
ATOM     46  C   UNL     1       9.733   0.486  21.916  0.00  0.00    +0.179 C 
ATOM     47  C   UNL     1       9.302   1.144  23.237  0.00  0.00    +0.174 C 
BRANCH  47  48
ATOM     48  O   UNL     1       9.634   2.535  23.247  0.00  0.00    -0.387 OA
ATOM     49  H   UNL     1       8.799   3.031  23.345  0.00  0.00    +0.210 HD
ENDBRANCH  47  48
BRANCH  46  50
ATOM     50  O   UNL     1       8.993   1.071  20.837  0.00  0.00    -0.386 OA
ATOM     51  H   UNL     1       8.054   1.050  21.121  0.00  0.00    +0.210 HD
ENDBRANCH  46  50
BRANCH  45  52
ATOM     52  O   UNL     1       8.072  -1.231  22.061  0.00  0.00    -0.384 OA
ATOM     53  H   UNL     1       7.812  -1.706  21.246  0.00  0.00    +0.210 HD
ENDBRANCH  45  52
ENDBRANCH  40  44
ENDBRANCH  39  40
ENDBRANCH   1  39
TORSDOF 16
ENDMDL
MODEL 3
REMARK VINA RESULT:      -7.5      2.592      5.508
REMARK  Name = 
REMARK  17 active torsions:
REMARK  status: ('A' for Active; 'I' for Inactive)
REMARK    1  A    between atoms: C_1  and  C_2
REMARK    2  A    between atoms: C_3  and  O_43
REMARK    3  A    between atoms: C_4  and  O_42
REMARK    4  A    between atoms: C_5  and  O_41
REMARK    5  A    between atoms: C_6  and  O_8
REMARK    6  A    between atoms: O_8  and  C_9
REMARK    7  A    between atoms: C_9  and  C_10
REMARK    8  A    between atoms: C_11  and  O_40
REMARK    9  A    between atoms: C_12  and  O_39
REMARK   10  A    between atoms: C_13  and  O_38
REMARK   11  A    between atoms: C_14  and  O_16
REMARK   12  A    between atoms: O_16  and  C_17
REMARK   13  A    between atoms: C_19  and  O_37
REMARK   14  A    between atoms: C_24  and  C_29
REMARK   15  A    between atoms: C_25  and  O_28
REMARK   16  A    between atoms: C_31  and  O_36
REMARK   17  A    between atoms: C_32  and  O_35
REMARK                            x       y       z     vdW  Elec       q    Type
REMARK                         _______ _______ _______ _____ _____    ______ ____
ROOT
ATOM      1  C   UNL     1       6.195  -4.294  23.214  0.00  0.00    +0.179 C 
ATOM      2  O   UNL     1       5.629  -4.012  24.507  0.00  0.00    -0.331 OA
ATOM      3  C   UNL     1       6.545  -3.491  25.481  0.00  0.00    +0.339 C 
ATOM      4  C   UNL     1       7.698  -4.495  25.703  0.00  0.00    +0.214 C 
ATOM      5  C   UNL     1       8.388  -4.784  24.360  0.00  0.00    +0.180 C 
ATOM      6  C   UNL     1       7.353  -5.305  23.344  0.00  0.00    +0.177 C 
ENDROOT
BRANCH   6   7
ATOM      7  O   UNL     1       7.943  -5.637  22.090  0.00  0.00    -0.386 OA
ATOM      8  H   UNL     1       7.507  -5.127  21.388  0.00  0.00    +0.210 HD
ENDBRANCH   6   7
BRANCH   5   9
ATOM      9  O   UNL     1       9.436  -5.740  24.548  0.00  0.00    -0.386 OA
ATOM     10  H   UNL     1      10.248  -5.221  24.713  0.00  0.00    +0.210 HD
ENDBRANCH   5   9
BRANCH   4  11
ATOM     11  O   UNL     1       7.225  -5.752  26.229  0.00  0.00    -0.383 OA
ATOM     12  H   UNL     1       7.832  -6.447  25.907  0.00  0.00    +0.210 HD
ENDBRANCH   4  11
BRANCH   3  13
ATOM     13  O   UNL     1       5.863  -3.269  26.731  0.00  0.00    -0.461 OA
BRANCH  13  14
ATOM     14  C   UNL     1       5.466  -1.979  26.988  0.00  0.00    +0.131 A 
ATOM     15  C   UNL     1       6.107  -0.971  26.255  0.00  0.00    +0.093 A 
ATOM     16  C   UNL     1       5.791   0.381  26.467  0.00  0.00    +0.147 A 
ATOM     17  O   UNL     1       6.507   1.311  25.748  0.00  0.00    -0.451 OA
ATOM     18  C   UNL     1       6.203   2.664  25.897  0.00  0.00    +0.181 A 
ATOM     19  C   UNL     1       5.226   3.124  26.702  0.00  0.00    +0.208 A 
ATOM     20  C   UNL     1       4.499   2.159  27.575  0.00  0.00    +0.238 A 
ATOM     21  O   UNL     1       3.685   2.559  28.400  0.00  0.00    -0.283 OA
ATOM     22  C   UNL     1       4.806   0.730  27.385  0.00  0.00    +0.109 A 
ATOM     23  C   UNL     1       4.141  -0.281  28.092  0.00  0.00    +0.135 A 
ATOM     24  C   UNL     1       4.467  -1.625  27.895  0.00  0.00    +0.092 A 
BRANCH  18  25
ATOM     25  C   UNL     1       7.065   3.563  25.068  0.00  0.00    +0.025 A 
ATOM     26  C   UNL     1       8.254   4.122  25.583  0.00  0.00    +0.015 A 
ATOM     27  C   UNL     1       9.029   5.017  24.832  0.00  0.00    +0.050 A 
ATOM     28  C   UNL     1       8.653   5.304  23.529  0.00  0.00    +0.158 A 
ATOM     29  C   UNL     1       7.524   4.715  22.976  0.00  0.00    +0.159 A 
ATOM     30  C   UNL     1       6.723   3.855  23.733  0.00  0.00    +0.060 A 
BRANCH  29  31
ATOM     31  O   UNL     1       7.243   5.016  21.675  0.00  0.00    -0.503 OA
ATOM     32  H   UNL     1       8.036   5.432  21.279  0.00  0.00    +0.292 HD
ENDBRANCH  29  31
BRANCH  28  33
ATOM     33  O   UNL     1       9.414   6.169  22.801  0.00  0.00    -0.503 OA
ATOM     34  H   UNL     1       9.666   6.871  23.435  0.00  0.00    +0.292 HD
ENDBRANCH  28  33
ENDBRANCH  18  25
BRANCH  23  35
ATOM     35  O   UNL     1       3.145   0.017  28.978  0.00  0.00    -0.506 OA
ATOM     36  H   UNL     1       2.511   0.645  28.596  0.00  0.00    +0.292 HD
ENDBRANCH  23  35
BRANCH  19  37
ATOM     37  O   UNL     1       4.823   4.446  26.797  0.00  0.00    -0.501 OA
ATOM     38  H   UNL     1       5.355   4.984  26.187  0.00  0.00    +0.292 HD
ENDBRANCH  19  37
ENDBRANCH  13  14
ENDBRANCH   3  13
BRANCH   1  39
ATOM     39  C   UNL     1       6.533  -2.983  22.473  0.00  0.00    +0.197 C 
BRANCH  39  40
ATOM     40  O   UNL     1       7.939  -2.745  22.427  0.00  0.00    -0.346 OA
BRANCH  40  44
ATOM     41  C   UNL     1       8.326   1.398  21.360  0.00  0.00    +0.041 C 
ATOM     42  C   UNL     1       9.501   0.461  21.656  0.00  0.00    +0.149 C 
ATOM     43  O   UNL     1       9.098  -0.912  21.555  0.00  0.00    -0.343 OA
ATOM     44  C   UNL     1       8.252  -1.360  22.615  0.00  0.00    +0.282 C 
ATOM     45  C   UNL     1       8.967  -1.201  23.975  0.00  0.00    +0.201 C 
ATOM     46  C   UNL     1       9.344   0.266  24.172  0.00  0.00    +0.179 C 
ATOM     47  C   UNL     1      10.196   0.763  22.992  0.00  0.00    +0.174 C 
BRANCH  47  48
ATOM     48  O   UNL     1      10.449   2.165  23.099  0.00  0.00    -0.387 OA
ATOM     49  H   UNL     1      11.224   2.363  22.540  0.00  0.00    +0.210 HD
ENDBRANCH  47  48
BRANCH  46  50
ATOM     50  O   UNL     1      10.083   0.437  25.389  0.00  0.00    -0.386 OA
ATOM     51  H   UNL     1      10.112   1.405  25.545  0.00  0.00    +0.210 HD
ENDBRANCH  46  50
BRANCH  45  52
ATOM     52  O   UNL     1      10.188  -1.969  24.030  0.00  0.00    -0.384 OA
ATOM     53  H   UNL     1      10.910  -1.359  23.774  0.00  0.00    +0.210 HD
ENDBRANCH  45  52
ENDBRANCH  40  44
ENDBRANCH  39  40
ENDBRANCH   1  39
TORSDOF 16
ENDMDL
MODEL 4
REMARK VINA RESULT:      -7.2      2.412      8.372
REMARK  Name = 
REMARK  17 active torsions:
REMARK  status: ('A' for Active; 'I' for Inactive)
REMARK    1  A    between atoms: C_1  and  C_2
REMARK    2  A    between atoms: C_3  and  O_43
REMARK    3  A    between atoms: C_4  and  O_42
REMARK    4  A    between atoms: C_5  and  O_41
REMARK    5  A    between atoms: C_6  and  O_8
REMARK    6  A    between atoms: O_8  and  C_9
REMARK    7  A    between atoms: C_9  and  C_10
REMARK    8  A    between atoms: C_11  and  O_40
REMARK    9  A    between atoms: C_12  and  O_39
REMARK   10  A    between atoms: C_13  and  O_38
REMARK   11  A    between atoms: C_14  and  O_16
REMARK   12  A    between atoms: O_16  and  C_17
REMARK   13  A    between atoms: C_19  and  O_37
REMARK   14  A    between atoms: C_24  and  C_29
REMARK   15  A    between atoms: C_25  and  O_28
REMARK   16  A    between atoms: C_31  and  O_36
REMARK   17  A    between atoms: C_32  and  O_35
REMARK                            x       y       z     vdW  Elec       q    Type
REMARK                         _______ _______ _______ _____ _____    ______ ____
ROOT
ATOM      1  C   UNL     1       9.962  -0.508  24.267  0.00  0.00    +0.179 C 
ATOM      2  O   UNL     1       9.343  -0.536  25.566  0.00  0.00    -0.331 OA
ATOM      3  C   UNL     1       7.916  -0.381  25.573  0.00  0.00    +0.339 C 
ATOM      4  C   UNL     1       7.534   0.966  24.920  0.00  0.00    +0.214 C 
ATOM      5  C   UNL     1       8.113   1.026  23.497  0.00  0.00    +0.180 C 
ATOM      6  C   UNL     1       9.639   0.818  23.547  0.00  0.00    +0.177 C 
ENDROOT
BRANCH   6   7
ATOM      7  O   UNL     1      10.242   0.910  22.259  0.00  0.00    -0.386 OA
ATOM      8  H   UNL     1      10.164   0.053  21.808  0.00  0.00    +0.210 HD
ENDBRANCH   6   7
BRANCH   5   9
ATOM      9  O   UNL     1       7.795   2.283  22.895  0.00  0.00    -0.386 OA
ATOM     10  H   UNL     1       8.650   2.690  22.651  0.00  0.00    +0.210 HD
ENDBRANCH   5   9
BRANCH   4  11
ATOM     11  O   UNL     1       8.063   2.090  25.653  0.00  0.00    -0.383 OA
ATOM     12  H   UNL     1       7.303   2.561  26.048  0.00  0.00    +0.210 HD
ENDBRANCH   4  11
BRANCH   3  13
ATOM     13  O   UNL     1       7.423  -0.408  26.927  0.00  0.00    -0.461 OA
BRANCH  13  14
ATOM     14  C   UNL     1       6.103  -0.754  27.089  0.00  0.00    +0.131 A 
ATOM     15  C   UNL     1       5.674  -1.908  26.417  0.00  0.00    +0.093 A 
ATOM     16  C   UNL     1       4.336  -2.327  26.497  0.00  0.00    +0.147 A 
ATOM     17  O   UNL     1       3.984  -3.436  25.762  0.00  0.00    -0.451 OA
ATOM     18  C   UNL     1       2.675  -3.913  25.838  0.00  0.00    +0.181 A 
ATOM     19  C   UNL     1       1.723  -3.356  26.611  0.00  0.00    +0.208 A 
ATOM     20  C   UNL     1       2.036  -2.093  27.340  0.00  0.00    +0.238 A 
ATOM     21  O   UNL     1       1.159  -1.501  27.960  0.00  0.00    -0.283 OA
ATOM     22  C   UNL     1       3.429  -1.618  27.278  0.00  0.00    +0.109 A 
ATOM     23  C   UNL     1       3.868  -0.485  27.976  0.00  0.00    +0.135 A 
ATOM     24  C   UNL     1       5.194  -0.057  27.884  0.00  0.00    +0.092 A 
BRANCH  18  25
ATOM     25  C   UNL     1       2.428  -5.114  24.981  0.00  0.00    +0.025 A 
ATOM     26  C   UNL     1       1.967  -4.988  23.653  0.00  0.00    +0.015 A 
ATOM     27  C   UNL     1       1.671  -6.112  22.870  0.00  0.00    +0.050 A 
ATOM     28  C   UNL     1       1.902  -7.376  23.390  0.00  0.00    +0.158 A 
ATOM     29  C   UNL     1       2.418  -7.526  24.670  0.00  0.00    +0.159 A 
ATOM     30  C   UNL     1       2.676  -6.411  25.472  0.00  0.00    +0.060 A 
BRANCH  29  31
ATOM     31  O   UNL     1       2.657  -8.801  25.095  0.00  0.00    -0.503 OA
ATOM     32  H   UNL     1       1.802  -9.278  25.126  0.00  0.00    +0.292 HD
ENDBRANCH  29  31
BRANCH  28  33
ATOM     33  O   UNL     1       1.619  -8.464  22.621  0.00  0.00    -0.503 OA
ATOM     34  H   UNL     1       2.486  -8.749  22.267  0.00  0.00    +0.292 HD
ENDBRANCH  28  33
ENDBRANCH  18  25
BRANCH  23  35
ATOM     35  O   UNL     1       3.017   0.219  28.780  0.00  0.00    -0.506 OA
ATOM     36  H   UNL     1       2.732  -0.311  29.541  0.00  0.00    +0.292 HD
ENDBRANCH  23  35
BRANCH  19  37
ATOM     37  O   UNL     1       0.446  -3.860  26.797  0.00  0.00    -0.501 OA
ATOM     38  H   UNL     1       0.019  -3.967  25.931  0.00  0.00    +0.292 HD
ENDBRANCH  19  37
ENDBRANCH  13  14
ENDBRANCH   3  13
BRANCH   1  39
ATOM     39  C   UNL     1       9.629  -1.793  23.481  0.00  0.00    +0.197 C 
BRANCH  39  40
ATOM     40  O   UNL     1      10.204  -2.951  24.084  0.00  0.00    -0.346 OA
BRANCH  40  44
ATOM     41  C   UNL     1       7.032  -5.618  22.954  0.00  0.00    +0.041 C 
ATOM     42  C   UNL     1       6.903  -4.501  23.994  0.00  0.00    +0.149 C 
ATOM     43  O   UNL     1       7.955  -3.538  23.844  0.00  0.00    -0.343 OA
ATOM     44  C   UNL     1       9.243  -4.000  24.251  0.00  0.00    +0.282 C 
ATOM     45  C   UNL     1       9.221  -4.410  25.739  0.00  0.00    +0.201 C 
ATOM     46  C   UNL     1       8.171  -5.502  25.941  0.00  0.00    +0.179 C 
ATOM     47  C   UNL     1       6.799  -5.024  25.436  0.00  0.00    +0.174 C 
BRANCH  47  48
ATOM     48  O   UNL     1       5.835  -6.077  25.500  0.00  0.00    -0.387 OA
ATOM     49  H   UNL     1       5.860  -6.545  24.643  0.00  0.00    +0.210 HD
ENDBRANCH  47  48
BRANCH  46  50
ATOM     50  O   UNL     1       8.065  -5.849  27.328  0.00  0.00    -0.386 OA
ATOM     51  H   UNL     1       8.680  -5.245  27.797  0.00  0.00    +0.210 HD
ENDBRANCH  46  50
BRANCH  45  52
ATOM     52  O   UNL     1       8.859  -3.304  26.594  0.00  0.00    -0.384 OA
ATOM     53  H   UNL     1       8.538  -2.593  26.003  0.00  0.00    +0.210 HD
ENDBRANCH  45  52
ENDBRANCH  40  44
ENDBRANCH  39  40
ENDBRANCH   1  39
TORSDOF 16
ENDMDL
MODEL 5
REMARK VINA RESULT:      -7.1      2.134      4.224
REMARK  Name = 
REMARK  17 active torsions:
REMARK  status: ('A' for Active; 'I' for Inactive)
REMARK    1  A    between atoms: C_1  and  C_2
REMARK    2  A    between atoms: C_3  and  O_43
REMARK    3  A    between atoms: C_4  and  O_42
REMARK    4  A    between atoms: C_5  and  O_41
REMARK    5  A    between atoms: C_6  and  O_8
REMARK    6  A    between atoms: O_8  and  C_9
REMARK    7  A    between atoms: C_9  and  C_10
REMARK    8  A    between atoms: C_11  and  O_40
REMARK    9  A    between atoms: C_12  and  O_39
REMARK   10  A    between atoms: C_13  and  O_38
REMARK   11  A    between atoms: C_14  and  O_16
REMARK   12  A    between atoms: O_16  and  C_17
REMARK   13  A    between atoms: C_19  and  O_37
REMARK   14  A    between atoms: C_24  and  C_29
REMARK   15  A    between atoms: C_25  and  O_28
REMARK   16  A    between atoms: C_31  and  O_36
REMARK   17  A    between atoms: C_32  and  O_35
REMARK                            x       y       z     vdW  Elec       q    Type
REMARK                         _______ _______ _______ _____ _____    ______ ____
ROOT
ATOM      1  C   UNL     1       2.975  -4.992  25.873  0.00  0.00    +0.179 C 
ATOM      2  O   UNL     1       3.892  -5.033  24.765  0.00  0.00    -0.331 OA
ATOM      3  C   UNL     1       3.290  -5.198  23.473  0.00  0.00    +0.339 C 
ATOM      4  C   UNL     1       2.481  -6.515  23.437  0.00  0.00    +0.214 C 
ATOM      5  C   UNL     1       1.434  -6.499  24.562  0.00  0.00    +0.180 C 
ATOM      6  C   UNL     1       2.130  -6.283  25.920  0.00  0.00    +0.177 C 
ENDROOT
BRANCH   6   7
ATOM      7  O   UNL     1       1.213  -6.307  27.010  0.00  0.00    -0.386 OA
ATOM      8  H   UNL     1       0.420  -5.800  26.771  0.00  0.00    +0.210 HD
ENDBRANCH   6   7
BRANCH   5   9
ATOM      9  O   UNL     1       0.702  -7.728  24.561  0.00  0.00    -0.386 OA
ATOM     10  H   UNL     1       0.221  -7.755  23.709  0.00  0.00    +0.210 HD
ENDBRANCH   5   9
BRANCH   4  11
ATOM     11  O   UNL     1       3.321  -7.669  23.640  0.00  0.00    -0.383 OA
ATOM     12  H   UNL     1       2.733  -8.447  23.701  0.00  0.00    +0.210 HD
ENDBRANCH   4  11
BRANCH   3  13
ATOM     13  O   UNL     1       4.311  -5.242  22.456  0.00  0.00    -0.461 OA
BRANCH  13  14
ATOM     14  C   UNL     1       5.527  -4.697  22.789  0.00  0.00    +0.131 A 
ATOM     15  C   UNL     1       5.632  -3.302  22.701  0.00  0.00    +0.093 A 
ATOM     16  C   UNL     1       6.843  -2.654  22.993  0.00  0.00    +0.147 A 
ATOM     17  O   UNL     1       6.878  -1.288  22.825  0.00  0.00    -0.451 OA
ATOM     18  C   UNL     1       8.048  -0.596  23.140  0.00  0.00    +0.181 A 
ATOM     19  C   UNL     1       9.158  -1.188  23.619  0.00  0.00    +0.208 A 
ATOM     20  C   UNL     1       9.196  -2.676  23.716  0.00  0.00    +0.238 A 
ATOM     21  O   UNL     1      10.229  -3.251  24.040  0.00  0.00    -0.283 OA
ATOM     22  C   UNL     1       7.944  -3.393  23.413  0.00  0.00    +0.109 A 
ATOM     23  C   UNL     1       7.828  -4.784  23.534  0.00  0.00    +0.135 A 
ATOM     24  C   UNL     1       6.629  -5.432  23.227  0.00  0.00    +0.092 A 
BRANCH  18  25
ATOM     25  C   UNL     1       7.950   0.877  22.900  0.00  0.00    +0.025 A 
ATOM     26  C   UNL     1       6.754   1.471  22.443  0.00  0.00    +0.015 A 
ATOM     27  C   UNL     1       6.679   2.840  22.154  0.00  0.00    +0.050 A 
ATOM     28  C   UNL     1       7.785   3.640  22.387  0.00  0.00    +0.158 A 
ATOM     29  C   UNL     1       8.954   3.092  22.900  0.00  0.00    +0.159 A 
ATOM     30  C   UNL     1       9.050   1.721  23.151  0.00  0.00    +0.060 A 
BRANCH  29  31
ATOM     31  O   UNL     1       9.986   3.952  23.141  0.00  0.00    -0.503 OA
ATOM     32  H   UNL     1      10.235   3.874  24.085  0.00  0.00    +0.292 HD
ENDBRANCH  29  31
BRANCH  28  33
ATOM     33  O   UNL     1       7.704   4.972  22.112  0.00  0.00    -0.503 OA
ATOM     34  H   UNL     1       7.120   5.334  22.808  0.00  0.00    +0.292 HD
ENDBRANCH  28  33
ENDBRANCH  18  25
BRANCH  23  35
ATOM     35  O   UNL     1       8.876  -5.542  23.975  0.00  0.00    -0.506 OA
ATOM     36  H   UNL     1       8.565  -6.333  24.443  0.00  0.00    +0.292 HD
ENDBRANCH  23  35
BRANCH  19  37
ATOM     37  O   UNL     1      10.299  -0.527  24.043  0.00  0.00    -0.501 OA
ATOM     38  H   UNL     1      10.573  -0.888  24.903  0.00  0.00    +0.292 HD
ENDBRANCH  19  37
ENDBRANCH  13  14
ENDBRANCH   3  13
BRANCH   1  39
ATOM     39  C   UNL     1       2.176  -3.672  25.867  0.00  0.00    +0.197 C 
BRANCH  39  40
ATOM     40  O   UNL     1       2.979  -2.566  25.458  0.00  0.00    -0.346 OA
BRANCH  40  44
ATOM     41  C   UNL     1       3.807  -1.237  29.458  0.00  0.00    +0.041 C 
ATOM     42  C   UNL     1       3.792  -0.330  28.224  0.00  0.00    +0.149 C 
ATOM     43  O   UNL     1       3.082  -0.949  27.143  0.00  0.00    -0.343 OA
ATOM     44  C   UNL     1       3.765  -2.048  26.537  0.00  0.00    +0.282 C 
ATOM     45  C   UNL     1       5.126  -1.588  25.973  0.00  0.00    +0.201 C 
ATOM     46  C   UNL     1       5.962  -0.995  27.107  0.00  0.00    +0.179 C 
ATOM     47  C   UNL     1       5.192   0.141  27.801  0.00  0.00    +0.174 C 
BRANCH  47  48
ATOM     48  O   UNL     1       5.906   0.620  28.942  0.00  0.00    -0.387 OA
ATOM     49  H   UNL     1       6.856   0.474  28.772  0.00  0.00    +0.210 HD
ENDBRANCH  47  48
BRANCH  46  50
ATOM     50  O   UNL     1       7.202  -0.482  26.603  0.00  0.00    -0.386 OA
ATOM     51  H   UNL     1       7.186  -0.658  25.638  0.00  0.00    +0.210 HD
ENDBRANCH  46  50
BRANCH  45  52
ATOM     52  O   UNL     1       4.971  -0.559  24.972  0.00  0.00    -0.384 OA
ATOM     53  H   UNL     1       5.814  -0.528  24.475  0.00  0.00    +0.210 HD
ENDBRANCH  45  52
ENDBRANCH  40  44
ENDBRANCH  39  40
ENDBRANCH   1  39
TORSDOF 16
ENDMDL
MODEL 6
REMARK VINA RESULT:      -7.0      2.531      8.424
REMARK  Name = 
REMARK  17 active torsions:
REMARK  status: ('A' for Active; 'I' for Inactive)
REMARK    1  A    between atoms: C_1  and  C_2
REMARK    2  A    between atoms: C_3  and  O_43
REMARK    3  A    between atoms: C_4  and  O_42
REMARK    4  A    between atoms: C_5  and  O_41
REMARK    5  A    between atoms: C_6  and  O_8
REMARK    6  A    between atoms: O_8  and  C_9
REMARK    7  A    between atoms: C_9  and  C_10
REMARK    8  A    between atoms: C_11  and  O_40
REMARK    9  A    between atoms: C_12  and  O_39
REMARK   10  A    between atoms: C_13  and  O_38
REMARK   11  A    between atoms: C_14  and  O_16
REMARK   12  A    between atoms: O_16  and  C_17
REMARK   13  A    between atoms: C_19  and  O_37
REMARK   14  A    between atoms: C_24  and  C_29
REMARK   15  A    between atoms: C_25  and  O_28
REMARK   16  A    between atoms: C_31  and  O_36
REMARK   17  A    between atoms: C_32  and  O_35
REMARK                            x       y       z     vdW  Elec       q    Type
REMARK                         _______ _______ _______ _____ _____    ______ ____
ROOT
ATOM      1  C   UNL     1      10.145   0.863  23.584  0.00  0.00    +0.179 C 
ATOM      2  O   UNL     1       9.609   0.876  24.919  0.00  0.00    -0.331 OA
ATOM      3  C   UNL     1       8.195   1.105  25.014  0.00  0.00    +0.339 C 
ATOM      4  C   UNL     1       7.843   2.468  24.375  0.00  0.00    +0.214 C 
ATOM      5  C   UNL     1       8.333   2.488  22.918  0.00  0.00    +0.180 C 
ATOM      6  C   UNL     1       9.847   2.200  22.873  0.00  0.00    +0.177 C 
ENDROOT
BRANCH   6   7
ATOM      7  O   UNL     1      10.371   2.253  21.549  0.00  0.00    -0.386 OA
ATOM      8  H   UNL     1      10.703   1.374  21.303  0.00  0.00    +0.210 HD
ENDBRANCH   6   7
BRANCH   5   9
ATOM      9  O   UNL     1       8.044   3.757  22.325  0.00  0.00    -0.386 OA
ATOM     10  H   UNL     1       8.533   4.420  22.854  0.00  0.00    +0.210 HD
ENDBRANCH   5   9
BRANCH   4  11
ATOM     11  O   UNL     1       8.475   3.566  25.062  0.00  0.00    -0.383 OA
ATOM     12  H   UNL     1       9.028   3.184  25.771  0.00  0.00    +0.210 HD
ENDBRANCH   4  11
BRANCH   3  13
ATOM     13  O   UNL     1       7.788   1.113  26.397  0.00  0.00    -0.461 OA
BRANCH  13  14
ATOM     14  C   UNL     1       6.506   0.692  26.658  0.00  0.00    +0.131 A 
ATOM     15  C   UNL     1       6.185  -0.614  26.261  0.00  0.00    +0.093 A 
ATOM     16  C   UNL     1       4.892  -1.124  26.457  0.00  0.00    +0.147 A 
ATOM     17  O   UNL     1       4.643  -2.394  25.986  0.00  0.00    -0.451 OA
ATOM     18  C   UNL     1       3.384  -2.958  26.192  0.00  0.00    +0.181 A 
ATOM     19  C   UNL     1       2.385  -2.335  26.846  0.00  0.00    +0.208 A 
ATOM     20  C   UNL     1       2.581  -0.922  27.278  0.00  0.00    +0.238 A 
ATOM     21  O   UNL     1       1.654  -0.290  27.774  0.00  0.00    -0.283 OA
ATOM     22  C   UNL     1       3.924  -0.347  27.085  0.00  0.00    +0.109 A 
ATOM     23  C   UNL     1       4.257   0.944  27.513  0.00  0.00    +0.135 A 
ATOM     24  C   UNL     1       5.538   1.461  27.303  0.00  0.00    +0.092 A 
BRANCH  18  25
ATOM     25  C   UNL     1       3.248  -4.334  25.620  0.00  0.00    +0.025 A 
ATOM     26  C   UNL     1       3.569  -5.481  26.378  0.00  0.00    +0.015 A 
ATOM     27  C   UNL     1       3.505  -6.767  25.824  0.00  0.00    +0.050 A 
ATOM     28  C   UNL     1       3.052  -6.920  24.524  0.00  0.00    +0.158 A 
ATOM     29  C   UNL     1       2.667  -5.813  23.779  0.00  0.00    +0.159 A 
ATOM     30  C   UNL     1       2.767  -4.524  24.309  0.00  0.00    +0.060 A 
BRANCH  29  31
ATOM     31  O   UNL     1       2.192  -6.048  22.521  0.00  0.00    -0.503 OA
ATOM     32  H   UNL     1       1.225  -5.900  22.526  0.00  0.00    +0.292 HD
ENDBRANCH  29  31
BRANCH  28  33
ATOM     33  O   UNL     1       2.986  -8.172  23.993  0.00  0.00    -0.503 OA
ATOM     34  H   UNL     1       3.917  -8.415  23.813  0.00  0.00    +0.292 HD
ENDBRANCH  28  33
ENDBRANCH  18  25
BRANCH  23  35
ATOM     35  O   UNL     1       3.345   1.727  28.164  0.00  0.00    -0.506 OA
ATOM     36  H   UNL     1       3.634   2.653  28.194  0.00  0.00    +0.292 HD
ENDBRANCH  23  35
BRANCH  19  37
ATOM     37  O   UNL     1       1.161  -2.900  27.163  0.00  0.00    -0.501 OA
ATOM     38  H   UNL     1       0.510  -2.191  27.295  0.00  0.00    +0.292 HD
ENDBRANCH  19  37
ENDBRANCH  13  14
ENDBRANCH   3  13
BRANCH   1  39
ATOM     39  C   UNL     1       9.696  -0.407  22.832  0.00  0.00    +0.197 C 
BRANCH  39  40
ATOM     40  O   UNL     1      10.320  -1.581  23.350  0.00  0.00    -0.346 OA
BRANCH  40  44
ATOM     41  C   UNL     1       9.040  -4.230  26.481  0.00  0.00    +0.041 C 
ATOM     42  C   UNL     1       9.101  -4.600  24.996  0.00  0.00    +0.149 C 
ATOM     43  O   UNL     1       9.949  -3.694  24.276  0.00  0.00    -0.343 OA
ATOM     44  C   UNL     1       9.405  -2.386  24.102  0.00  0.00    +0.282 C 
ATOM     45  C   UNL     1       8.070  -2.458  23.330  0.00  0.00    +0.201 C 
ATOM     46  C   UNL     1       7.095  -3.347  24.100  0.00  0.00    +0.179 C 
ATOM     47  C   UNL     1       7.715  -4.733  24.346  0.00  0.00    +0.174 C 
BRANCH  47  48
ATOM     48  O   UNL     1       6.868  -5.532  25.175  0.00  0.00    -0.387 OA
ATOM     49  H   UNL     1       5.946  -5.290  24.966  0.00  0.00    +0.210 HD
ENDBRANCH  47  48
BRANCH  46  50
ATOM     50  O   UNL     1       5.871  -3.504  23.370  0.00  0.00    -0.386 OA
ATOM     51  H   UNL     1       5.968  -4.344  22.872  0.00  0.00    +0.210 HD
ENDBRANCH  46  50
BRANCH  45  52
ATOM     52  O   UNL     1       8.240  -3.043  22.021  0.00  0.00    -0.384 OA
ATOM     53  H   UNL     1       9.100  -2.719  21.683  0.00  0.00    +0.210 HD
ENDBRANCH  45  52
ENDBRANCH  40  44
ENDBRANCH  39  40
ENDBRANCH   1  39
TORSDOF 16
ENDMDL
MODEL 7
REMARK VINA RESULT:      -7.0      2.286      4.489
REMARK  Name = 
REMARK  17 active torsions:
REMARK  status: ('A' for Active; 'I' for Inactive)
REMARK    1  A    between atoms: C_1  and  C_2
REMARK    2  A    between atoms: C_3  and  O_43
REMARK    3  A    between atoms: C_4  and  O_42
REMARK    4  A    between atoms: C_5  and  O_41
REMARK    5  A    between atoms: C_6  and  O_8
REMARK    6  A    between atoms: O_8  and  C_9
REMARK    7  A    between atoms: C_9  and  C_10
REMARK    8  A    between atoms: C_11  and  O_40
REMARK    9  A    between atoms: C_12  and  O_39
REMARK   10  A    between atoms: C_13  and  O_38
REMARK   11  A    between atoms: C_14  and  O_16
REMARK   12  A    between atoms: O_16  and  C_17
REMARK   13  A    between atoms: C_19  and  O_37
REMARK   14  A    between atoms: C_24  and  C_29
REMARK   15  A    between atoms: C_25  and  O_28
REMARK   16  A    between atoms: C_31  and  O_36
REMARK   17  A    between atoms: C_32  and  O_35
REMARK                            x       y       z     vdW  Elec       q    Type
REMARK                         _______ _______ _______ _____ _____    ______ ____
ROOT
ATOM      1  C   UNL     1       4.494  -4.718  25.474  0.00  0.00    +0.179 C 
ATOM      2  O   UNL     1       5.339  -4.269  24.399  0.00  0.00    -0.331 OA
ATOM      3  C   UNL     1       4.806  -4.448  23.079  0.00  0.00    +0.339 C 
ATOM      4  C   UNL     1       4.521  -5.947  22.831  0.00  0.00    +0.214 C 
ATOM      5  C   UNL     1       3.564  -6.469  23.914  0.00  0.00    +0.180 C 
ATOM      6  C   UNL     1       4.168  -6.218  25.309  0.00  0.00    +0.177 C 
ENDROOT
BRANCH   6   7
ATOM      7  O   UNL     1       3.346  -6.725  26.356  0.00  0.00    -0.386 OA
ATOM      8  H   UNL     1       3.267  -7.688  26.262  0.00  0.00    +0.210 HD
ENDBRANCH   6   7
BRANCH   5   9
ATOM      9  O   UNL     1       3.319  -7.864  23.715  0.00  0.00    -0.386 OA
ATOM     10  H   UNL     1       2.435  -8.041  24.095  0.00  0.00    +0.210 HD
ENDBRANCH   5   9
BRANCH   4  11
ATOM     11  O   UNL     1       5.722  -6.742  22.890  0.00  0.00    -0.383 OA
ATOM     12  H   UNL     1       5.942  -6.863  23.834  0.00  0.00    +0.210 HD
ENDBRANCH   4  11
BRANCH   3  13
ATOM     13  O   UNL     1       5.751  -3.978  22.097  0.00  0.00    -0.461 OA
BRANCH  13  14
ATOM     14  C   UNL     1       6.715  -3.108  22.547  0.00  0.00    +0.131 A 
ATOM     15  C   UNL     1       6.355  -1.753  22.605  0.00  0.00    +0.093 A 
ATOM     16  C   UNL     1       7.280  -0.784  23.024  0.00  0.00    +0.147 A 
ATOM     17  O   UNL     1       6.865   0.529  22.996  0.00  0.00    -0.451 OA
ATOM     18  C   UNL     1       7.737   1.524  23.439  0.00  0.00    +0.181 A 
ATOM     19  C   UNL     1       8.972   1.276  23.914  0.00  0.00    +0.208 A 
ATOM     20  C   UNL     1       9.496  -0.119  23.863  0.00  0.00    +0.238 A 
ATOM     21  O   UNL     1      10.656  -0.359  24.181  0.00  0.00    -0.283 OA
ATOM     22  C   UNL     1       8.556  -1.166  23.424  0.00  0.00    +0.109 A 
ATOM     23  C   UNL     1       8.903  -2.523  23.399  0.00  0.00    +0.135 A 
ATOM     24  C   UNL     1       7.990  -3.487  22.966  0.00  0.00    +0.092 A 
BRANCH  18  25
ATOM     25  C   UNL     1       7.164   2.903  23.343  0.00  0.00    +0.025 A 
ATOM     26  C   UNL     1       6.149   3.340  24.222  0.00  0.00    +0.015 A 
ATOM     27  C   UNL     1       5.563   4.607  24.093  0.00  0.00    +0.050 A 
ATOM     28  C   UNL     1       6.040   5.475  23.123  0.00  0.00    +0.158 A 
ATOM     29  C   UNL     1       7.084   5.093  22.291  0.00  0.00    +0.159 A 
ATOM     30  C   UNL     1       7.644   3.816  22.385  0.00  0.00    +0.060 A 
BRANCH  29  31
ATOM     31  O   UNL     1       7.526   6.018  21.389  0.00  0.00    -0.503 OA
ATOM     32  H   UNL     1       7.155   5.792  20.512  0.00  0.00    +0.292 HD
ENDBRANCH  29  31
BRANCH  28  33
ATOM     33  O   UNL     1       5.473   6.708  23.007  0.00  0.00    -0.503 OA
ATOM     34  H   UNL     1       6.010   7.165  22.328  0.00  0.00    +0.292 HD
ENDBRANCH  28  33
ENDBRANCH  18  25
BRANCH  23  35
ATOM     35  O   UNL     1      10.134  -2.943  23.816  0.00  0.00    -0.506 OA
ATOM     36  H   UNL     1      10.719  -2.191  24.001  0.00  0.00    +0.292 HD
ENDBRANCH  23  35
BRANCH  19  37
ATOM     37  O   UNL     1       9.824   2.221  24.462  0.00  0.00    -0.501 OA
ATOM     38  H   UNL     1      10.169   2.787  23.750  0.00  0.00    +0.292 HD
ENDBRANCH  19  37
ENDBRANCH  13  14
ENDBRANCH   3  13
BRANCH   1  39
ATOM     39  C   UNL     1       3.276  -3.784  25.632  0.00  0.00    +0.197 C 
BRANCH  39  40
ATOM     40  O   UNL     1       3.625  -2.415  25.434  0.00  0.00    -0.346 OA
BRANCH  40  44
ATOM     41  C   UNL     1       3.935  -1.432  29.604  0.00  0.00    +0.041 C 
ATOM     42  C   UNL     1       3.676  -0.418  28.486  0.00  0.00    +0.149 C 
ATOM     43  O   UNL     1       3.206  -1.072  27.300  0.00  0.00    -0.343 OA
ATOM     44  C   UNL     1       4.198  -1.834  26.611  0.00  0.00    +0.282 C 
ATOM     45  C   UNL     1       5.372  -0.925  26.186  0.00  0.00    +0.201 C 
ATOM     46  C   UNL     1       5.968  -0.266  27.428  0.00  0.00    +0.179 C 
ATOM     47  C   UNL     1       4.879   0.494  28.204  0.00  0.00    +0.174 C 
BRANCH  47  48
ATOM     48  O   UNL     1       5.394   1.009  29.434  0.00  0.00    -0.387 OA
ATOM     49  H   UNL     1       4.785   1.712  29.732  0.00  0.00    +0.210 HD
ENDBRANCH  47  48
BRANCH  46  50
ATOM     50  O   UNL     1       7.009   0.650  27.062  0.00  0.00    -0.386 OA
ATOM     51  H   UNL     1       7.072   1.287  27.806  0.00  0.00    +0.210 HD
ENDBRANCH  46  50
BRANCH  45  52
ATOM     52  O   UNL     1       4.937   0.133  25.305  0.00  0.00    -0.384 OA
ATOM     53  H   UNL     1       4.499  -0.302  24.545  0.00  0.00    +0.210 HD
ENDBRANCH  45  52
ENDBRANCH  40  44
ENDBRANCH  39  40
ENDBRANCH   1  39
TORSDOF 16
ENDMDL
MODEL 8
REMARK VINA RESULT:      -7.0      2.415      8.813
REMARK  Name = 
REMARK  17 active torsions:
REMARK  status: ('A' for Active; 'I' for Inactive)
REMARK    1  A    between atoms: C_1  and  C_2
REMARK    2  A    between atoms: C_3  and  O_43
REMARK    3  A    between atoms: C_4  and  O_42
REMARK    4  A    between atoms: C_5  and  O_41
REMARK    5  A    between atoms: C_6  and  O_8
REMARK    6  A    between atoms: O_8  and  C_9
REMARK    7  A    between atoms: C_9  and  C_10
REMARK    8  A    between atoms: C_11  and  O_40
REMARK    9  A    between atoms: C_12  and  O_39
REMARK   10  A    between atoms: C_13  and  O_38
REMARK   11  A    between atoms: C_14  and  O_16
REMARK   12  A    between atoms: O_16  and  C_17
REMARK   13  A    between atoms: C_19  and  O_37
REMARK   14  A    between atoms: C_24  and  C_29
REMARK   15  A    between atoms: C_25  and  O_28
REMARK   16  A    between atoms: C_31  and  O_36
REMARK   17  A    between atoms: C_32  and  O_35
REMARK                            x       y       z     vdW  Elec       q    Type
REMARK                         _______ _______ _______ _____ _____    ______ ____
ROOT
ATOM      1  C   UNL     1       6.965   4.224  23.600  0.00  0.00    +0.179 C 
ATOM      2  O   UNL     1       6.591   2.928  23.098  0.00  0.00    -0.331 OA
ATOM      3  C   UNL     1       7.467   1.850  23.460  0.00  0.00    +0.339 C 
ATOM      4  C   UNL     1       8.894   2.140  22.941  0.00  0.00    +0.214 C 
ATOM      5  C   UNL     1       9.376   3.487  23.502  0.00  0.00    +0.180 C 
ATOM      6  C   UNL     1       8.382   4.599  23.115  0.00  0.00    +0.177 C 
ENDROOT
BRANCH   6   7
ATOM      7  O   UNL     1       8.800   5.883  23.567  0.00  0.00    -0.386 OA
ATOM      8  H   UNL     1       9.010   6.440  22.799  0.00  0.00    +0.210 HD
ENDBRANCH   6   7
BRANCH   5   9
ATOM      9  O   UNL     1      10.682   3.782  23.001  0.00  0.00    -0.386 OA
ATOM     10  H   UNL     1      11.075   2.923  22.747  0.00  0.00    +0.210 HD
ENDBRANCH   5   9
BRANCH   4  11
ATOM     11  O   UNL     1       8.937   2.226  21.502  0.00  0.00    -0.383 OA
ATOM     12  H   UNL     1       8.256   1.618  21.155  0.00  0.00    +0.210 HD
ENDBRANCH   4  11
BRANCH   3  13
ATOM     13  O   UNL     1       6.995   0.616  22.884  0.00  0.00    -0.461 OA
BRANCH  13  14
ATOM     14  C   UNL     1       7.625  -0.532  23.301  0.00  0.00    +0.131 A 
ATOM     15  C   UNL     1       6.860  -1.418  24.073  0.00  0.00    +0.093 A 
ATOM     16  C   UNL     1       7.424  -2.604  24.570  0.00  0.00    +0.147 A 
ATOM     17  O   UNL     1       6.623  -3.390  25.368  0.00  0.00    -0.451 OA
ATOM     18  C   UNL     1       7.127  -4.597  25.854  0.00  0.00    +0.181 A 
ATOM     19  C   UNL     1       8.362  -5.055  25.577  0.00  0.00    +0.208 A 
ATOM     20  C   UNL     1       9.296  -4.186  24.804  0.00  0.00    +0.238 A 
ATOM     21  O   UNL     1      10.461  -4.524  24.632  0.00  0.00    -0.283 OA
ATOM     22  C   UNL     1       8.742  -2.929  24.268  0.00  0.00    +0.109 A 
ATOM     23  C   UNL     1       9.494  -2.059  23.468  0.00  0.00    +0.135 A 
ATOM     24  C   UNL     1       8.941  -0.870  22.986  0.00  0.00    +0.092 A 
BRANCH  18  25
ATOM     25  C   UNL     1       6.157  -5.343  26.715  0.00  0.00    +0.025 A 
ATOM     26  C   UNL     1       6.213  -5.267  28.123  0.00  0.00    +0.015 A 
ATOM     27  C   UNL     1       5.348  -6.016  28.933  0.00  0.00    +0.050 A 
ATOM     28  C   UNL     1       4.372  -6.797  28.335  0.00  0.00    +0.158 A 
ATOM     29  C   UNL     1       4.252  -6.837  26.952  0.00  0.00    +0.159 A 
ATOM     30  C   UNL     1       5.138  -6.126  26.137  0.00  0.00    +0.060 A 
BRANCH  29  31
ATOM     31  O   UNL     1       3.240  -7.596  26.440  0.00  0.00    -0.503 OA
ATOM     32  H   UNL     1       3.098  -7.328  25.509  0.00  0.00    +0.292 HD
ENDBRANCH  29  31
BRANCH  28  33
ATOM     33  O   UNL     1       3.529  -7.517  29.127  0.00  0.00    -0.503 OA
ATOM     34  H   UNL     1       3.574  -8.428  28.772  0.00  0.00    +0.292 HD
ENDBRANCH  28  33
ENDBRANCH  18  25
BRANCH  23  35
ATOM     35  O   UNL     1      10.781  -2.358  23.120  0.00  0.00    -0.506 OA
ATOM     36  H   UNL     1      11.375  -2.301  23.885  0.00  0.00    +0.292 HD
ENDBRANCH  23  35
BRANCH  19  37
ATOM     37  O   UNL     1       8.860  -6.292  25.950  0.00  0.00    -0.501 OA
ATOM     38  H   UNL     1       9.281  -6.214  26.822  0.00  0.00    +0.292 HD
ENDBRANCH  19  37
ENDBRANCH  13  14
ENDBRANCH   3  13
BRANCH   1  39
ATOM     39  C   UNL     1       6.739   4.300  25.123  0.00  0.00    +0.197 C 
BRANCH  39  40
ATOM     40  O   UNL     1       5.374   4.072  25.472  0.00  0.00    -0.346 OA
BRANCH  40  44
ATOM     41  C   UNL     1       6.357   1.753  28.953  0.00  0.00    +0.041 C 
ATOM     42  C   UNL     1       6.461   1.248  27.510  0.00  0.00    +0.149 C 
ATOM     43  O   UNL     1       6.486   2.343  26.585  0.00  0.00    -0.343 OA
ATOM     44  C   UNL     1       5.238   3.021  26.437  0.00  0.00    +0.282 C 
ATOM     45  C   UNL     1       4.151   2.043  25.943  0.00  0.00    +0.201 C 
ATOM     46  C   UNL     1       4.022   0.895  26.943  0.00  0.00    +0.179 C 
ATOM     47  C   UNL     1       5.384   0.212  27.151  0.00  0.00    +0.174 C 
BRANCH  47  48
ATOM     48  O   UNL     1       5.307  -0.780  28.177  0.00  0.00    -0.387 OA
ATOM     49  H   UNL     1       5.495  -0.336  29.026  0.00  0.00    +0.210 HD
ENDBRANCH  47  48
BRANCH  46  50
ATOM     50  O   UNL     1       3.077  -0.077  26.474  0.00  0.00    -0.386 OA
ATOM     51  H   UNL     1       2.295   0.438  26.181  0.00  0.00    +0.210 HD
ENDBRANCH  46  50
BRANCH  45  52
ATOM     52  O   UNL     1       4.492   1.464  24.666  0.00  0.00    -0.384 OA
ATOM     53  H   UNL     1       5.467   1.507  24.594  0.00  0.00    +0.210 HD
ENDBRANCH  45  52
ENDBRANCH  40  44
ENDBRANCH  39  40
ENDBRANCH   1  39
TORSDOF 16
ENDMDL
MODEL 9
REMARK VINA RESULT:      -7.0      2.546      8.179
REMARK  Name = 
REMARK  17 active torsions:
REMARK  status: ('A' for Active; 'I' for Inactive)
REMARK    1  A    between atoms: C_1  and  C_2
REMARK    2  A    between atoms: C_3  and  O_43
REMARK    3  A    between atoms: C_4  and  O_42
REMARK    4  A    between atoms: C_5  and  O_41
REMARK    5  A    between atoms: C_6  and  O_8
REMARK    6  A    between atoms: O_8  and  C_9
REMARK    7  A    between atoms: C_9  and  C_10
REMARK    8  A    between atoms: C_11  and  O_40
REMARK    9  A    between atoms: C_12  and  O_39
REMARK   10  A    between atoms: C_13  and  O_38
REMARK   11  A    between atoms: C_14  and  O_16
REMARK   12  A    between atoms: O_16  and  C_17
REMARK   13  A    between atoms: C_19  and  O_37
REMARK   14  A    between atoms: C_24  and  C_29
REMARK   15  A    between atoms: C_25  and  O_28
REMARK   16  A    between atoms: C_31  and  O_36
REMARK   17  A    between atoms: C_32  and  O_35
REMARK                            x       y       z     vdW  Elec       q    Type
REMARK                         _______ _______ _______ _____ _____    ______ ____
ROOT
ATOM      1  C   UNL     1       9.958  -1.238  24.057  0.00  0.00    +0.179 C 
ATOM      2  O   UNL     1       9.557  -0.235  25.008  0.00  0.00    -0.331 OA
ATOM      3  C   UNL     1       8.327   0.442  24.709  0.00  0.00    +0.339 C 
ATOM      4  C   UNL     1       8.437   1.142  23.336  0.00  0.00    +0.214 C 
ATOM      5  C   UNL     1       8.799   0.104  22.262  0.00  0.00    +0.180 C 
ATOM      6  C   UNL     1      10.104  -0.616  22.651  0.00  0.00    +0.177 C 
ENDROOT
BRANCH   6   7
ATOM      7  O   UNL     1      10.518  -1.561  21.668  0.00  0.00    -0.386 OA
ATOM      8  H   UNL     1      11.459  -1.763  21.795  0.00  0.00    +0.210 HD
ENDBRANCH   6   7
BRANCH   5   9
ATOM      9  O   UNL     1       8.937   0.746  20.992  0.00  0.00    -0.386 OA
ATOM     10  H   UNL     1       8.221   1.412  20.946  0.00  0.00    +0.210 HD
ENDBRANCH   5   9
BRANCH   4  11
ATOM     11  O   UNL     1       9.465   2.154  23.327  0.00  0.00    -0.383 OA
ATOM     12  H   UNL     1      10.135   1.880  22.671  0.00  0.00    +0.210 HD
ENDBRANCH   4  11
BRANCH   3  13
ATOM     13  O   UNL     1       8.048   1.428  25.723  0.00  0.00    -0.461 OA
BRANCH  13  14
ATOM     14  C   UNL     1       7.142   1.067  26.691  0.00  0.00    +0.131 A 
ATOM     15  C   UNL     1       6.651  -0.244  26.628  0.00  0.00    +0.093 A 
ATOM     16  C   UNL     1       5.699  -0.698  27.556  0.00  0.00    +0.147 A 
ATOM     17  O   UNL     1       5.225  -1.980  27.389  0.00  0.00    -0.451 OA
ATOM     18  C   UNL     1       4.307  -2.488  28.308  0.00  0.00    +0.181 A 
ATOM     19  C   UNL     1       3.859  -1.797  29.374  0.00  0.00    +0.208 A 
ATOM     20  C   UNL     1       4.267  -0.372  29.531  0.00  0.00    +0.238 A 
ATOM     21  O   UNL     1       3.788   0.317  30.425  0.00  0.00    -0.283 OA
ATOM     22  C   UNL     1       5.262   0.144  28.574  0.00  0.00    +0.109 A 
ATOM     23  C   UNL     1       5.780   1.443  28.656  0.00  0.00    +0.135 A 
ATOM     24  C   UNL     1       6.714   1.902  27.723  0.00  0.00    +0.092 A 
BRANCH  18  25
ATOM     25  C   UNL     1       3.868  -3.885  28.001  0.00  0.00    +0.025 A 
ATOM     26  C   UNL     1       2.611  -4.148  27.415  0.00  0.00    +0.015 A 
ATOM     27  C   UNL     1       2.170  -5.459  27.186  0.00  0.00    +0.050 A 
ATOM     28  C   UNL     1       3.015  -6.517  27.481  0.00  0.00    +0.158 A 
ATOM     29  C   UNL     1       4.283  -6.281  27.996  0.00  0.00    +0.159 A 
ATOM     30  C   UNL     1       4.715  -4.979  28.265  0.00  0.00    +0.060 A 
BRANCH  29  31
ATOM     31  O   UNL     1       5.072  -7.371  28.221  0.00  0.00    -0.503 OA
ATOM     32  H   UNL     1       4.602  -8.163  27.889  0.00  0.00    +0.292 HD
ENDBRANCH  29  31
BRANCH  28  33
ATOM     33  O   UNL     1       2.584  -7.788  27.250  0.00  0.00    -0.503 OA
ATOM     34  H   UNL     1       3.309  -8.359  27.575  0.00  0.00    +0.292 HD
ENDBRANCH  28  33
ENDBRANCH  18  25
BRANCH  23  35
ATOM     35  O   UNL     1       5.403   2.289  29.660  0.00  0.00    -0.506 OA
ATOM     36  H   UNL     1       5.650   1.937  30.529  0.00  0.00    +0.292 HD
ENDBRANCH  23  35
BRANCH  19  37
ATOM     37  O   UNL     1       3.033  -2.301  30.365  0.00  0.00    -0.501 OA
ATOM     38  H   UNL     1       3.291  -1.915  31.219  0.00  0.00    +0.292 HD
ENDBRANCH  19  37
ENDBRANCH  13  14
ENDBRANCH   3  13
BRANCH   1  39
ATOM     39  C   UNL     1       9.036  -2.471  24.148  0.00  0.00    +0.197 C 
BRANCH  39  40
ATOM     40  O   UNL     1       8.448  -2.792  22.888  0.00  0.00    -0.346 OA
BRANCH  40  44
ATOM     41  C   UNL     1       4.431  -3.325  24.313  0.00  0.00    +0.041 C 
ATOM     42  C   UNL     1       5.618  -4.210  24.702  0.00  0.00    +0.149 C 
ATOM     43  O   UNL     1       6.861  -3.550  24.427  0.00  0.00    -0.343 OA
ATOM     44  C   UNL     1       7.180  -3.439  23.040  0.00  0.00    +0.282 C 
ATOM     45  C   UNL     1       7.266  -4.840  22.396  0.00  0.00    +0.201 C 
ATOM     46  C   UNL     1       5.931  -5.559  22.585  0.00  0.00    +0.179 C 
ATOM     47  C   UNL     1       5.559  -5.613  24.077  0.00  0.00    +0.174 C 
BRANCH  47  48
ATOM     48  O   UNL     1       4.255  -6.168  24.259  0.00  0.00    -0.387 OA
ATOM     49  H   UNL     1       4.126  -6.840  23.562  0.00  0.00    +0.210 HD
ENDBRANCH  47  48
BRANCH  46  50
ATOM     50  O   UNL     1       6.002  -6.896  22.072  0.00  0.00    -0.386 OA
ATOM     51  H   UNL     1       6.473  -6.822  21.213  0.00  0.00    +0.210 HD
ENDBRANCH  46  50
BRANCH  45  52
ATOM     52  O   UNL     1       8.284  -5.653  23.019  0.00  0.00    -0.384 OA
ATOM     53  H   UNL     1       8.450  -6.401  22.410  0.00  0.00    +0.210 HD
ENDBRANCH  45  52
ENDBRANCH  40  44
ENDBRANCH  39  40
ENDBRANCH   1  39
TORSDOF 16
ENDMDL
