MODEL 1
REMARK VINA RESULT:      -7.1      0.000      0.000
REMARK  Name = 
REMARK  23 active torsions:
REMARK  status: ('A' for Active; 'I' for Inactive)
REMARK    1  A    between atoms: C_1  and  C_2
REMARK    2  A    between atoms: C_4  and  O_53
REMARK    3  A    between atoms: C_6  and  O_52
REMARK    4  A    between atoms: C_8  and  O_51
REMARK    5  A    between atoms: C_10  and  O_13
REMARK    6  A    between atoms: O_13  and  C_14
REMARK    7  A    between atoms: C_14  and  C_15
REMARK    8  A    between atoms: C_17  and  O_50
REMARK    9  A    between atoms: C_19  and  O_49
REMARK   10  A    between atoms: C_21  and  O_48
REMARK   11  A    between atoms: C_23  and  O_26
REMARK   12  A    between atoms: O_26  and  C_27
REMARK   13  A    between atoms: C_28  and  C_40
REMARK   14  A    between atoms: C_32  and  O_39
REMARK   15  A    between atoms: C_34  and  O_38
REMARK   16  A    between atoms: C_42  and  O_47
REMARK   17  A    between atoms: C_43  and  O_46
REMARK   18  A    between atoms: O_53  and  C_54
REMARK   19  A    between atoms: C_56  and  O_69
REMARK   20  A    between atoms: C_58  and  O_68
REMARK   21  A    between atoms: C_60  and  O_67
REMARK   22  A    between atoms: C_62  and  C_65
REMARK   23  A    between atoms: C_65  and  O_66
REMARK                            x       y       z     vdW  Elec       q    Type
REMARK                         _______ _______ _______ _____ _____    ______ ____
ROOT
ATOM      1  C   UNL     1       5.476   0.086  25.873  0.00  0.00    +0.179 C 
ATOM      2  O   UNL     1       5.691   0.582  24.540  0.00  0.00    -0.331 OA
ATOM      3  C   UNL     1       6.087   1.955  24.566  0.00  0.00    +0.340 C 
ATOM      4  C   UNL     1       4.834   2.775  24.958  0.00  0.00    +0.214 C 
ATOM      5  C   UNL     1       4.407   2.261  26.370  0.00  0.00    +0.180 C 
ATOM      6  C   UNL     1       4.201   0.733  26.409  0.00  0.00    +0.177 C 
ENDROOT
BRANCH   4   7
ATOM      7  O   UNL     1       5.147   4.177  24.997  0.00  0.00    -0.383 OA
ATOM      8  H   UNL     1       5.288   4.476  24.082  0.00  0.00    +0.210 HD
ENDBRANCH   4   7
BRANCH   6   9
ATOM      9  O   UNL     1       3.934   0.346  27.764  0.00  0.00    -0.386 OA
ATOM     10  H   UNL     1       3.572   1.137  28.206  0.00  0.00    +0.210 HD
ENDBRANCH   6   9
BRANCH   5  11
ATOM     11  O   UNL     1       3.233   2.916  26.859  0.00  0.00    -0.386 OA
ATOM     12  H   UNL     1       2.788   3.257  26.055  0.00  0.00    +0.210 HD
ENDBRANCH   5  11
BRANCH   3  13
ATOM     13  O   UNL     1       6.747   2.308  23.324  0.00  0.00    -0.453 OA
BRANCH  13  14
ATOM     14  C   UNL     1       8.128   2.559  23.475  0.00  0.00    +0.214 A 
ATOM     15  C   UNL     1       8.617   3.908  23.952  0.00  0.00    +0.238 A 
ATOM     16  O   UNL     1       7.965   4.659  24.663  0.00  0.00    -0.283 OA
ATOM     17  C   UNL     1       9.969   4.318  23.651  0.00  0.00    +0.109 A 
ATOM     18  C   UNL     1      10.868   3.305  23.415  0.00  0.00    +0.147 A 
ATOM     19  C   UNL     1      12.222   3.608  23.292  0.00  0.00    +0.092 A 
ATOM     20  C   UNL     1      12.635   4.935  23.411  0.00  0.00    +0.124 A 
ATOM     21  C   UNL     1      11.728   5.966  23.639  0.00  0.00    +0.091 A 
ATOM     22  O   UNL     1      10.484   1.994  23.363  0.00  0.00    -0.451 OA
ATOM     23  C   UNL     1      10.384   5.659  23.741  0.00  0.00    +0.135 A 
ATOM     24  C   UNL     1       9.120   1.635  23.321  0.00  0.00    +0.181 A 
BRANCH  24  25
ATOM     25  C   UNL     1       8.992   0.129  23.213  0.00  0.00    +0.025 A 
ATOM     26  C   UNL     1       9.830  -0.680  24.035  0.00  0.00    +0.015 A 
ATOM     27  C   UNL     1       9.633  -2.057  24.201  0.00  0.00    +0.050 A 
ATOM     28  C   UNL     1       8.609  -2.668  23.516  0.00  0.00    +0.158 A 
ATOM     29  C   UNL     1       7.845  -1.937  22.611  0.00  0.00    +0.159 A 
ATOM     30  C   UNL     1       8.021  -0.551  22.460  0.00  0.00    +0.060 A 
BRANCH  29  31
ATOM     31  O   UNL     1       6.911  -2.632  21.891  0.00  0.00    -0.503 OA
ATOM     32  H   UNL     1       6.181  -2.018  21.695  0.00  0.00    +0.292 HD
ENDBRANCH  29  31
BRANCH  28  33
ATOM     33  O   UNL     1       8.345  -3.987  23.746  0.00  0.00    -0.503 OA
ATOM     34  H   UNL     1       7.578  -4.190  23.175  0.00  0.00    +0.292 HD
ENDBRANCH  28  33
ENDBRANCH  24  25
BRANCH  23  35
ATOM     35  O   UNL     1       9.481   6.671  23.911  0.00  0.00    -0.506 OA
ATOM     36  H   UNL     1       8.624   6.304  24.179  0.00  0.00    +0.292 HD
ENDBRANCH  23  35
BRANCH  20  37
ATOM     37  O   UNL     1      13.951   5.289  23.344  0.00  0.00    -0.507 OA
ATOM     38  H   UNL     1      14.309   5.431  24.234  0.00  0.00    +0.292 HD
ENDBRANCH  20  37
ENDBRANCH  13  14
ENDBRANCH   3  13
BRANCH   1  39
ATOM     39  C   UNL     1       5.453  -1.439  25.842  0.00  0.00    +0.197 C 
BRANCH  39  40
ATOM     40  O   UNL     1       5.286  -1.913  27.168  0.00  0.00    -0.346 OA
BRANCH  40  44
ATOM     41  C   UNL     1       8.102  -5.262  26.892  0.00  0.00    +0.041 C 
ATOM     42  C   UNL     1       6.737  -5.124  26.223  0.00  0.00    +0.150 C 
ATOM     43  O   UNL     1       6.303  -3.769  26.158  0.00  0.00    -0.343 OA
ATOM     44  C   UNL     1       5.871  -3.196  27.385  0.00  0.00    +0.282 C 
ATOM     45  C   UNL     1       4.787  -4.021  28.105  0.00  0.00    +0.201 C 
ATOM     46  C   UNL     1       5.164  -5.501  28.181  0.00  0.00    +0.179 C 
ATOM     47  C   UNL     1       5.637  -6.024  26.817  0.00  0.00    +0.181 C 
BRANCH  46  48
ATOM     48  O   UNL     1       6.131  -5.748  29.209  0.00  0.00    -0.386 OA
ATOM     49  H   UNL     1       5.954  -6.612  29.622  0.00  0.00    +0.210 HD
ENDBRANCH  46  48
BRANCH  45  50
ATOM     50  O   UNL     1       4.590  -3.501  29.436  0.00  0.00    -0.384 OA
ATOM     51  H   UNL     1       3.667  -3.197  29.510  0.00  0.00    +0.210 HD
ENDBRANCH  45  50
BRANCH  47  52
ATOM     52  O   UNL     1       4.444  -6.071  26.004  0.00  0.00    -0.340 OA
BRANCH  52  53
ATOM     53  C   UNL     1       4.163  -7.281  25.312  0.00  0.00    +0.282 C 
ATOM     54  O   UNL     1       4.410  -7.134  23.902  0.00  0.00    -0.341 OA
ATOM     55  C   UNL     1       3.580  -6.196  23.202  0.00  0.00    +0.178 C 
ATOM     56  C   UNL     1       2.079  -6.445  23.454  0.00  0.00    +0.177 C 
ATOM     57  C   UNL     1       1.746  -6.726  24.925  0.00  0.00    +0.179 C 
ATOM     58  C   UNL     1       2.712  -7.760  25.518  0.00  0.00    +0.201 C 
BRANCH  58  59
ATOM     59  O   UNL     1       2.504  -9.042  24.913  0.00  0.00    -0.384 OA
ATOM     60  H   UNL     1       1.543  -9.218  24.902  0.00  0.00    +0.210 HD
ENDBRANCH  58  59
BRANCH  57  61
ATOM     61  O   UNL     1       1.737  -5.486  25.643  0.00  0.00    -0.386 OA
ATOM     62  H   UNL     1       2.129  -4.790  25.074  0.00  0.00    +0.210 HD
ENDBRANCH  57  61
BRANCH  56  63
ATOM     63  O   UNL     1       1.278  -5.367  22.968  0.00  0.00    -0.386 OA
ATOM     64  H   UNL     1       1.099  -5.560  22.024  0.00  0.00    +0.210 HD
ENDBRANCH  56  63
BRANCH  55  65
ATOM     65  C   UNL     1       4.033  -4.731  23.373  0.00  0.00    +0.190 C 
BRANCH  65  66
ATOM     66  O   UNL     1       5.452  -4.597  23.331  0.00  0.00    -0.392 OA
ATOM     67  H   UNL     1       5.784  -5.087  22.560  0.00  0.00    +0.210 HD
ENDBRANCH  65  66
ENDBRANCH  55  65
ENDBRANCH  52  53
ENDBRANCH  47  52
ENDBRANCH  40  44
ENDBRANCH  39  40
ENDBRANCH   1  39
TORSDOF 22
ENDMDL
MODEL 2
REMARK VINA RESULT:      -7.1      1.626      2.312
REMARK  Name = 
REMARK  23 active torsions:
REMARK  status: ('A' for Active; 'I' for Inactive)
REMARK    1  A    between atoms: C_1  and  C_2
REMARK    2  A    between atoms: C_4  and  O_53
REMARK    3  A    between atoms: C_6  and  O_52
REMARK    4  A    between atoms: C_8  and  O_51
REMARK    5  A    between atoms: C_10  and  O_13
REMARK    6  A    between atoms: O_13  and  C_14
REMARK    7  A    between atoms: C_14  and  C_15
REMARK    8  A    between atoms: C_17  and  O_50
REMARK    9  A    between atoms: C_19  and  O_49
REMARK   10  A    between atoms: C_21  and  O_48
REMARK   11  A    between atoms: C_23  and  O_26
REMARK   12  A    between atoms: O_26  and  C_27
REMARK   13  A    between atoms: C_28  and  C_40
REMARK   14  A    between atoms: C_32  and  O_39
REMARK   15  A    between atoms: C_34  and  O_38
REMARK   16  A    between atoms: C_42  and  O_47
REMARK   17  A    between atoms: C_43  and  O_46
REMARK   18  A    between atoms: O_53  and  C_54
REMARK   19  A    between atoms: C_56  and  O_69
REMARK   20  A    between atoms: C_58  and  O_68
REMARK   21  A    between atoms: C_60  and  O_67
REMARK   22  A    between atoms: C_62  and  C_65
REMARK   23  A    between atoms: C_65  and  O_66
REMARK                            x       y       z     vdW  Elec       q    Type
REMARK                         _______ _______ _______ _____ _____    ______ ____
ROOT
ATOM      1  C   UNL     1       5.589   0.343  26.797  0.00  0.00    +0.179 C 
ATOM      2  O   UNL     1       5.845   0.420  25.384  0.00  0.00    -0.331 OA
ATOM      3  C   UNL     1       5.988   1.779  24.966  0.00  0.00    +0.340 C 
ATOM      4  C   UNL     1       4.576   2.413  25.017  0.00  0.00    +0.214 C 
ATOM      5  C   UNL     1       4.108   2.303  26.504  0.00  0.00    +0.180 C 
ATOM      6  C   UNL     1       4.172   0.859  27.040  0.00  0.00    +0.177 C 
ENDROOT
BRANCH   4   7
ATOM      7  O   UNL     1       4.630   3.787  24.599  0.00  0.00    -0.383 OA
ATOM      8  H   UNL     1       4.161   4.320  25.264  0.00  0.00    +0.210 HD
ENDBRANCH   4   7
BRANCH   6   9
ATOM      9  O   UNL     1       3.844   0.879  28.437  0.00  0.00    -0.386 OA
ATOM     10  H   UNL     1       3.668  -0.048  28.687  0.00  0.00    +0.210 HD
ENDBRANCH   6   9
BRANCH   5  11
ATOM     11  O   UNL     1       2.792   2.830  26.703  0.00  0.00    -0.386 OA
ATOM     12  H   UNL     1       2.192   2.099  26.446  0.00  0.00    +0.210 HD
ENDBRANCH   5  11
BRANCH   3  13
ATOM     13  O   UNL     1       6.696   1.842  23.702  0.00  0.00    -0.453 OA
BRANCH  13  14
ATOM     14  C   UNL     1       8.032   2.282  23.830  0.00  0.00    +0.214 A 
ATOM     15  C   UNL     1       8.339   3.740  24.086  0.00  0.00    +0.238 A 
ATOM     16  O   UNL     1       7.579   4.511  24.654  0.00  0.00    -0.283 OA
ATOM     17  C   UNL     1       9.643   4.259  23.741  0.00  0.00    +0.109 A 
ATOM     18  C   UNL     1      10.663   3.340  23.687  0.00  0.00    +0.147 A 
ATOM     19  C   UNL     1      11.975   3.783  23.535  0.00  0.00    +0.092 A 
ATOM     20  C   UNL     1      12.223   5.153  23.441  0.00  0.00    +0.124 A 
ATOM     21  C   UNL     1      11.193   6.087  23.482  0.00  0.00    +0.091 A 
ATOM     22  O   UNL     1      10.440   2.000  23.846  0.00  0.00    -0.451 OA
ATOM     23  C   UNL     1       9.891   5.638  23.614  0.00  0.00    +0.135 A 
ATOM     24  C   UNL     1       9.131   1.474  23.844  0.00  0.00    +0.181 A 
BRANCH  24  25
ATOM     25  C   UNL     1       9.187  -0.034  23.984  0.00  0.00    +0.025 A 
ATOM     26  C   UNL     1       9.798  -0.785  22.938  0.00  0.00    +0.015 A 
ATOM     27  C   UNL     1      10.125  -2.141  23.066  0.00  0.00    +0.050 A 
ATOM     28  C   UNL     1       9.814  -2.791  24.238  0.00  0.00    +0.158 A 
ATOM     29  C   UNL     1       9.110  -2.125  25.236  0.00  0.00    +0.159 A 
ATOM     30  C   UNL     1       8.802  -0.758  25.124  0.00  0.00    +0.060 A 
BRANCH  29  31
ATOM     31  O   UNL     1       8.748  -2.861  26.331  0.00  0.00    -0.503 OA
ATOM     32  H   UNL     1       7.983  -2.418  26.739  0.00  0.00    +0.292 HD
ENDBRANCH  29  31
BRANCH  28  33
ATOM     33  O   UNL     1      10.218  -4.083  24.412  0.00  0.00    -0.503 OA
ATOM     34  H   UNL     1      11.167  -4.018  24.637  0.00  0.00    +0.292 HD
ENDBRANCH  28  33
ENDBRANCH  24  25
BRANCH  23  35
ATOM     35  O   UNL     1       8.870   6.545  23.602  0.00  0.00    -0.506 OA
ATOM     36  H   UNL     1       9.189   7.402  23.928  0.00  0.00    +0.292 HD
ENDBRANCH  23  35
BRANCH  20  37
ATOM     37  O   UNL     1      13.489   5.650  23.334  0.00  0.00    -0.507 OA
ATOM     38  H   UNL     1      14.069   5.242  23.996  0.00  0.00    +0.292 HD
ENDBRANCH  20  37
ENDBRANCH  13  14
ENDBRANCH   3  13
BRANCH   1  39
ATOM     39  C   UNL     1       5.839  -1.084  27.275  0.00  0.00    +0.197 C 
BRANCH  39  40
ATOM     40  O   UNL     1       4.599  -1.654  27.659  0.00  0.00    -0.346 OA
BRANCH  40  44
ATOM     41  C   UNL     1       6.080  -5.639  28.728  0.00  0.00    +0.041 C 
ATOM     42  C   UNL     1       6.040  -4.990  27.347  0.00  0.00    +0.150 C 
ATOM     43  O   UNL     1       5.926  -3.572  27.421  0.00  0.00    -0.343 OA
ATOM     44  C   UNL     1       4.651  -3.072  27.803  0.00  0.00    +0.282 C 
ATOM     45  C   UNL     1       3.492  -3.610  26.943  0.00  0.00    +0.201 C 
ATOM     46  C   UNL     1       3.568  -5.130  26.784  0.00  0.00    +0.179 C 
ATOM     47  C   UNL     1       4.983  -5.577  26.392  0.00  0.00    +0.181 C 
BRANCH  46  48
ATOM     48  O   UNL     1       3.101  -5.807  27.957  0.00  0.00    -0.386 OA
ATOM     49  H   UNL     1       2.220  -6.185  27.787  0.00  0.00    +0.210 HD
ENDBRANCH  46  48
BRANCH  45  50
ATOM     50  O   UNL     1       2.233  -3.247  27.547  0.00  0.00    -0.384 OA
ATOM     51  H   UNL     1       2.223  -3.591  28.458  0.00  0.00    +0.210 HD
ENDBRANCH  45  50
BRANCH  47  52
ATOM     52  O   UNL     1       5.147  -5.135  25.027  0.00  0.00    -0.340 OA
BRANCH  52  53
ATOM     53  C   UNL     1       6.197  -5.717  24.265  0.00  0.00    +0.282 C 
ATOM     54  O   UNL     1       7.166  -4.723  23.887  0.00  0.00    -0.341 OA
ATOM     55  C   UNL     1       6.708  -3.686  23.007  0.00  0.00    +0.178 C 
ATOM     56  C   UNL     1       6.009  -4.250  21.755  0.00  0.00    +0.177 C 
ATOM     57  C   UNL     1       5.038  -5.397  22.062  0.00  0.00    +0.179 C 
ATOM     58  C   UNL     1       5.686  -6.428  22.996  0.00  0.00    +0.201 C 
BRANCH  58  59
ATOM     59  O   UNL     1       6.754  -7.108  22.325  0.00  0.00    -0.384 OA
ATOM     60  H   UNL     1       7.474  -6.465  22.174  0.00  0.00    +0.210 HD
ENDBRANCH  58  59
BRANCH  57  61
ATOM     61  O   UNL     1       3.822  -4.849  22.585  0.00  0.00    -0.386 OA
ATOM     62  H   UNL     1       3.884  -4.825  23.563  0.00  0.00    +0.210 HD
ENDBRANCH  57  61
BRANCH  56  63
ATOM     63  O   UNL     1       5.337  -3.224  21.021  0.00  0.00    -0.386 OA
ATOM     64  H   UNL     1       4.819  -2.711  21.676  0.00  0.00    +0.210 HD
ENDBRANCH  56  63
BRANCH  55  65
ATOM     65  C   UNL     1       5.934  -2.566  23.735  0.00  0.00    +0.190 C 
BRANCH  65  66
ATOM     66  O   UNL     1       6.083  -1.302  23.093  0.00  0.00    -0.392 OA
ATOM     67  H   UNL     1       6.963  -0.950  23.310  0.00  0.00    +0.210 HD
ENDBRANCH  65  66
ENDBRANCH  55  65
ENDBRANCH  52  53
ENDBRANCH  47  52
ENDBRANCH  40  44
ENDBRANCH  39  40
ENDBRANCH   1  39
TORSDOF 22
ENDMDL
MODEL 3
REMARK VINA RESULT:      -7.0      2.043     10.030
REMARK  Name = 
REMARK  23 active torsions:
REMARK  status: ('A' for Active; 'I' for Inactive)
REMARK    1  A    between atoms: C_1  and  C_2
REMARK    2  A    between atoms: C_4  and  O_53
REMARK    3  A    between atoms: C_6  and  O_52
REMARK    4  A    between atoms: C_8  and  O_51
REMARK    5  A    between atoms: C_10  and  O_13
REMARK    6  A    between atoms: O_13  and  C_14
REMARK    7  A    between atoms: C_14  and  C_15
REMARK    8  A    between atoms: C_17  and  O_50
REMARK    9  A    between atoms: C_19  and  O_49
REMARK   10  A    between atoms: C_21  and  O_48
REMARK   11  A    between atoms: C_23  and  O_26
REMARK   12  A    between atoms: O_26  and  C_27
REMARK   13  A    between atoms: C_28  and  C_40
REMARK   14  A    between atoms: C_32  and  O_39
REMARK   15  A    between atoms: C_34  and  O_38
REMARK   16  A    between atoms: C_42  and  O_47
REMARK   17  A    between atoms: C_43  and  O_46
REMARK   18  A    between atoms: O_53  and  C_54
REMARK   19  A    between atoms: C_56  and  O_69
REMARK   20  A    between atoms: C_58  and  O_68
REMARK   21  A    between atoms: C_60  and  O_67
REMARK   22  A    between atoms: C_62  and  C_65
REMARK   23  A    between atoms: C_65  and  O_66
REMARK                            x       y       z     vdW  Elec       q    Type
REMARK                         _______ _______ _______ _____ _____    ______ ____
ROOT
ATOM      1  C   UNL     1       7.807  -2.873  25.003  0.00  0.00    +0.179 C 
ATOM      2  O   UNL     1       6.578  -3.405  25.529  0.00  0.00    -0.331 OA
ATOM      3  C   UNL     1       6.796  -4.036  26.793  0.00  0.00    +0.340 C 
ATOM      4  C   UNL     1       7.558  -5.354  26.508  0.00  0.00    +0.214 C 
ATOM      5  C   UNL     1       8.898  -4.938  25.822  0.00  0.00    +0.180 C 
ATOM      6  C   UNL     1       8.678  -4.054  24.578  0.00  0.00    +0.177 C 
ENDROOT
BRANCH   4   7
ATOM      7  O   UNL     1       7.809  -6.059  27.735  0.00  0.00    -0.383 OA
ATOM      8  H   UNL     1       8.542  -6.679  27.578  0.00  0.00    +0.210 HD
ENDBRANCH   4   7
BRANCH   6   9
ATOM      9  O   UNL     1       9.959  -3.625  24.094  0.00  0.00    -0.386 OA
ATOM     10  H   UNL     1       9.867  -2.676  23.887  0.00  0.00    +0.210 HD
ENDBRANCH   6   9
BRANCH   5  11
ATOM     11  O   UNL     1       9.706  -6.066  25.473  0.00  0.00    -0.386 OA
ATOM     12  H   UNL     1      10.443  -5.688  24.948  0.00  0.00    +0.210 HD
ENDBRANCH   5  11
BRANCH   3  13
ATOM     13  O   UNL     1       5.547  -4.138  27.523  0.00  0.00    -0.453 OA
BRANCH  13  14
ATOM     14  C   UNL     1       4.417  -4.263  26.686  0.00  0.00    +0.214 A 
ATOM     15  C   UNL     1       4.041  -5.604  26.099  0.00  0.00    +0.238 A 
ATOM     16  O   UNL     1       4.310  -6.678  26.617  0.00  0.00    -0.283 OA
ATOM     17  C   UNL     1       3.225  -5.651  24.907  0.00  0.00    +0.109 A 
ATOM     18  C   UNL     1       2.434  -4.551  24.674  0.00  0.00    +0.147 A 
ATOM     19  C   UNL     1       1.493  -4.592  23.648  0.00  0.00    +0.092 A 
ATOM     20  C   UNL     1       1.376  -5.750  22.878  0.00  0.00    +0.124 A 
ATOM     21  C   UNL     1       2.182  -6.861  23.102  0.00  0.00    +0.091 A 
ATOM     22  O   UNL     1       2.493  -3.437  25.464  0.00  0.00    -0.451 OA
ATOM     23  C   UNL     1       3.127  -6.806  24.110  0.00  0.00    +0.135 A 
ATOM     24  C   UNL     1       3.524  -3.269  26.412  0.00  0.00    +0.181 A 
BRANCH  24  25
ATOM     25  C   UNL     1       3.371  -1.927  27.100  0.00  0.00    +0.025 A 
ATOM     26  C   UNL     1       2.387  -1.803  28.124  0.00  0.00    +0.015 A 
ATOM     27  C   UNL     1       2.322  -0.703  28.988  0.00  0.00    +0.050 A 
ATOM     28  C   UNL     1       3.223   0.324  28.823  0.00  0.00    +0.158 A 
ATOM     29  C   UNL     1       4.121   0.297  27.760  0.00  0.00    +0.159 A 
ATOM     30  C   UNL     1       4.208  -0.816  26.907  0.00  0.00    +0.060 A 
BRANCH  29  31
ATOM     31  O   UNL     1       4.918   1.397  27.599  0.00  0.00    -0.503 OA
ATOM     32  H   UNL     1       5.840   1.086  27.574  0.00  0.00    +0.292 HD
ENDBRANCH  29  31
BRANCH  28  33
ATOM     33  O   UNL     1       3.234   1.353  29.720  0.00  0.00    -0.503 OA
ATOM     34  H   UNL     1       2.323   1.383  30.073  0.00  0.00    +0.292 HD
ENDBRANCH  28  33
ENDBRANCH  24  25
BRANCH  23  35
ATOM     35  O   UNL     1       3.959  -7.873  24.302  0.00  0.00    -0.506 OA
ATOM     36  H   UNL     1       4.431  -7.774  25.144  0.00  0.00    +0.292 HD
ENDBRANCH  23  35
BRANCH  20  37
ATOM     37  O   UNL     1       0.444  -5.866  21.889  0.00  0.00    -0.507 OA
ATOM     38  H   UNL     1       0.146  -4.988  21.601  0.00  0.00    +0.292 HD
ENDBRANCH  20  37
ENDBRANCH  13  14
ENDBRANCH   3  13
BRANCH   1  39
ATOM     39  C   UNL     1       7.488  -1.882  23.889  0.00  0.00    +0.197 C 
BRANCH  39  40
ATOM     40  O   UNL     1       8.624  -1.772  23.047  0.00  0.00    -0.346 OA
BRANCH  40  44
ATOM     41  C   UNL     1      10.878   1.722  24.437  0.00  0.00    +0.041 C 
ATOM     42  C   UNL     1       9.363   1.544  24.376  0.00  0.00    +0.150 C 
ATOM     43  O   UNL     1       8.984   0.173  24.307  0.00  0.00    -0.343 OA
ATOM     44  C   UNL     1       9.210  -0.472  23.060  0.00  0.00    +0.282 C 
ATOM     45  C   UNL     1       8.587   0.268  21.860  0.00  0.00    +0.201 C 
ATOM     46  C   UNL     1       8.918   1.761  21.885  0.00  0.00    +0.179 C 
ATOM     47  C   UNL     1       8.663   2.362  23.274  0.00  0.00    +0.181 C 
BRANCH  46  48
ATOM     48  O   UNL     1      10.254   2.013  21.433  0.00  0.00    -0.386 OA
ATOM     49  H   UNL     1      10.856   1.343  21.804  0.00  0.00    +0.210 HD
ENDBRANCH  46  48
BRANCH  45  50
ATOM     50  O   UNL     1       9.067  -0.316  20.631  0.00  0.00    -0.384 OA
ATOM     51  H   UNL     1       9.958   0.036  20.456  0.00  0.00    +0.210 HD
ENDBRANCH  45  50
BRANCH  47  52
ATOM     52  O   UNL     1       7.226   2.383  23.411  0.00  0.00    -0.340 OA
BRANCH  52  53
ATOM     53  C   UNL     1       6.522   3.476  22.834  0.00  0.00    +0.282 C 
ATOM     54  O   UNL     1       6.575   4.629  23.693  0.00  0.00    -0.341 OA
ATOM     55  C   UNL     1       5.929   4.507  24.969  0.00  0.00    +0.178 C 
ATOM     56  C   UNL     1       4.477   4.006  24.841  0.00  0.00    +0.177 C 
ATOM     57  C   UNL     1       4.317   2.845  23.851  0.00  0.00    +0.179 C 
ATOM     58  C   UNL     1       5.047   3.141  22.535  0.00  0.00    +0.201 C 
BRANCH  58  59
ATOM     59  O   UNL     1       4.407   4.219  21.841  0.00  0.00    -0.384 OA
ATOM     60  H   UNL     1       3.442   4.075  21.883  0.00  0.00    +0.210 HD
ENDBRANCH  58  59
BRANCH  57  61
ATOM     61  O   UNL     1       4.756   1.635  24.480  0.00  0.00    -0.386 OA
ATOM     62  H   UNL     1       5.118   1.855  25.365  0.00  0.00    +0.210 HD
ENDBRANCH  57  61
BRANCH  56  63
ATOM     63  O   UNL     1       3.932   3.645  26.111  0.00  0.00    -0.386 OA
ATOM     64  H   UNL     1       4.529   2.963  26.484  0.00  0.00    +0.210 HD
ENDBRANCH  56  63
BRANCH  55  65
ATOM     65  C   UNL     1       6.783   3.762  26.017  0.00  0.00    +0.190 C 
BRANCH  65  66
ATOM     66  O   UNL     1       6.329   3.996  27.348  0.00  0.00    -0.392 OA
ATOM     67  H   UNL     1       7.025   4.476  27.829  0.00  0.00    +0.210 HD
ENDBRANCH  65  66
ENDBRANCH  55  65
ENDBRANCH  52  53
ENDBRANCH  47  52
ENDBRANCH  40  44
ENDBRANCH  39  40
ENDBRANCH   1  39
TORSDOF 22
ENDMDL
MODEL 4
REMARK VINA RESULT:      -6.8      2.134      5.748
REMARK  Name = 
REMARK  23 active torsions:
REMARK  status: ('A' for Active; 'I' for Inactive)
REMARK    1  A    between atoms: C_1  and  C_2
REMARK    2  A    between atoms: C_4  and  O_53
REMARK    3  A    between atoms: C_6  and  O_52
REMARK    4  A    between atoms: C_8  and  O_51
REMARK    5  A    between atoms: C_10  and  O_13
REMARK    6  A    between atoms: O_13  and  C_14
REMARK    7  A    between atoms: C_14  and  C_15
REMARK    8  A    between atoms: C_17  and  O_50
REMARK    9  A    between atoms: C_19  and  O_49
REMARK   10  A    between atoms: C_21  and  O_48
REMARK   11  A    between atoms: C_23  and  O_26
REMARK   12  A    between atoms: O_26  and  C_27
REMARK   13  A    between atoms: C_28  and  C_40
REMARK   14  A    between atoms: C_32  and  O_39
REMARK   15  A    between atoms: C_34  and  O_38
REMARK   16  A    between atoms: C_42  and  O_47
REMARK   17  A    between atoms: C_43  and  O_46
REMARK   18  A    between atoms: O_53  and  C_54
REMARK   19  A    between atoms: C_56  and  O_69
REMARK   20  A    between atoms: C_58  and  O_68
REMARK   21  A    between atoms: C_60  and  O_67
REMARK   22  A    between atoms: C_62  and  C_65
REMARK   23  A    between atoms: C_65  and  O_66
REMARK                            x       y       z     vdW  Elec       q    Type
REMARK                         _______ _______ _______ _____ _____    ______ ____
ROOT
ATOM      1  C   UNL     1       8.007  -0.909  24.519  0.00  0.00    +0.179 C 
ATOM      2  O   UNL     1       8.703   0.265  24.973  0.00  0.00    -0.331 OA
ATOM      3  C   UNL     1       8.552   1.338  24.041  0.00  0.00    +0.340 C 
ATOM      4  C   UNL     1       9.411   0.980  22.804  0.00  0.00    +0.214 C 
ATOM      5  C   UNL     1       8.833  -0.363  22.252  0.00  0.00    +0.180 C 
ATOM      6  C   UNL     1       8.775  -1.470  23.324  0.00  0.00    +0.177 C 
ENDROOT
BRANCH   4   7
ATOM      7  O   UNL     1       9.322   2.020  21.816  0.00  0.00    -0.383 OA
ATOM      8  H   UNL     1       9.588   2.855  22.239  0.00  0.00    +0.210 HD
ENDBRANCH   4   7
BRANCH   6   9
ATOM      9  O   UNL     1       8.122  -2.615  22.758  0.00  0.00    -0.386 OA
ATOM     10  H   UNL     1       7.232  -2.643  23.157  0.00  0.00    +0.210 HD
ENDBRANCH   6   9
BRANCH   5  11
ATOM     11  O   UNL     1       9.551  -0.838  21.109  0.00  0.00    -0.386 OA
ATOM     12  H   UNL     1       9.601  -1.809  21.235  0.00  0.00    +0.210 HD
ENDBRANCH   5  11
BRANCH   3  13
ATOM     13  O   UNL     1       8.823   2.606  24.691  0.00  0.00    -0.453 OA
BRANCH  13  14
ATOM     14  C   UNL     1       7.925   3.630  24.317  0.00  0.00    +0.214 A 
ATOM     15  C   UNL     1       6.436   3.372  24.288  0.00  0.00    +0.238 A 
ATOM     16  O   UNL     1       5.870   2.541  24.984  0.00  0.00    -0.283 OA
ATOM     17  C   UNL     1       5.588   4.213  23.473  0.00  0.00    +0.109 A 
ATOM     18  C   UNL     1       6.076   5.466  23.190  0.00  0.00    +0.147 A 
ATOM     19  C   UNL     1       5.249   6.395  22.563  0.00  0.00    +0.092 A 
ATOM     20  C   UNL     1       3.942   6.030  22.235  0.00  0.00    +0.124 A 
ATOM     21  C   UNL     1       3.448   4.759  22.508  0.00  0.00    +0.091 A 
ATOM     22  O   UNL     1       7.330   5.857  23.567  0.00  0.00    -0.451 OA
ATOM     23  C   UNL     1       4.281   3.837  23.114  0.00  0.00    +0.135 A 
ATOM     24  C   UNL     1       8.267   4.924  24.059  0.00  0.00    +0.181 A 
BRANCH  24  25
ATOM     25  C   UNL     1       9.582   5.624  24.344  0.00  0.00    +0.025 A 
ATOM     26  C   UNL     1       9.629   6.558  25.419  0.00  0.00    +0.015 A 
ATOM     27  C   UNL     1      10.829   7.073  25.927  0.00  0.00    +0.050 A 
ATOM     28  C   UNL     1      12.014   6.691  25.344  0.00  0.00    +0.158 A 
ATOM     29  C   UNL     1      12.004   5.877  24.216  0.00  0.00    +0.159 A 
ATOM     30  C   UNL     1      10.806   5.336  23.718  0.00  0.00    +0.060 A 
BRANCH  29  31
ATOM     31  O   UNL     1      13.213   5.620  23.630  0.00  0.00    -0.503 OA
ATOM     32  H   UNL     1      13.426   4.685  23.800  0.00  0.00    +0.292 HD
ENDBRANCH  29  31
BRANCH  28  33
ATOM     33  O   UNL     1      13.193   7.108  25.893  0.00  0.00    -0.503 OA
ATOM     34  H   UNL     1      13.195   8.078  25.767  0.00  0.00    +0.292 HD
ENDBRANCH  28  33
ENDBRANCH  24  25
BRANCH  23  35
ATOM     35  O   UNL     1       3.820   2.570  23.338  0.00  0.00    -0.506 OA
ATOM     36  H   UNL     1       3.604   2.146  22.492  0.00  0.00    +0.292 HD
ENDBRANCH  23  35
BRANCH  20  37
ATOM     37  O   UNL     1       3.072   6.909  21.659  0.00  0.00    -0.507 OA
ATOM     38  H   UNL     1       3.124   7.773  22.098  0.00  0.00    +0.292 HD
ENDBRANCH  20  37
ENDBRANCH  13  14
ENDBRANCH   3  13
BRANCH   1  39
ATOM     39  C   UNL     1       7.847  -1.879  25.686  0.00  0.00    +0.197 C 
BRANCH  39  40
ATOM     40  O   UNL     1       7.150  -1.217  26.728  0.00  0.00    -0.346 OA
BRANCH  40  44
ATOM     41  C   UNL     1       4.396  -3.905  28.829  0.00  0.00    +0.041 C 
ATOM     42  C   UNL     1       4.973  -4.060  27.424  0.00  0.00    +0.150 C 
ATOM     43  O   UNL     1       6.146  -3.275  27.233  0.00  0.00    -0.343 OA
ATOM     44  C   UNL     1       5.941  -1.874  27.102  0.00  0.00    +0.282 C 
ATOM     45  C   UNL     1       4.920  -1.498  26.012  0.00  0.00    +0.201 C 
ATOM     46  C   UNL     1       3.641  -2.330  26.127  0.00  0.00    +0.179 C 
ATOM     47  C   UNL     1       3.963  -3.822  26.285  0.00  0.00    +0.181 C 
BRANCH  46  48
ATOM     48  O   UNL     1       2.794  -1.854  27.180  0.00  0.00    -0.386 OA
ATOM     49  H   UNL     1       2.090  -1.296  26.804  0.00  0.00    +0.210 HD
ENDBRANCH  46  48
BRANCH  45  50
ATOM     50  O   UNL     1       4.598  -0.095  26.115  0.00  0.00    -0.384 OA
ATOM     51  H   UNL     1       5.002   0.366  25.359  0.00  0.00    +0.210 HD
ENDBRANCH  45  50
BRANCH  47  52
ATOM     52  O   UNL     1       4.460  -4.234  24.993  0.00  0.00    -0.340 OA
BRANCH  52  53
ATOM     53  C   UNL     1       4.070  -5.514  24.511  0.00  0.00    +0.282 C 
ATOM     54  O   UNL     1       5.128  -6.472  24.692  0.00  0.00    -0.341 OA
ATOM     55  C   UNL     1       6.336  -6.238  23.953  0.00  0.00    +0.178 C 
ATOM     56  C   UNL     1       6.067  -6.019  22.451  0.00  0.00    +0.177 C 
ATOM     57  C   UNL     1       4.876  -5.094  22.172  0.00  0.00    +0.179 C 
ATOM     58  C   UNL     1       3.663  -5.490  23.024  0.00  0.00    +0.201 C 
BRANCH  58  59
ATOM     59  O   UNL     1       3.157  -6.766  22.611  0.00  0.00    -0.384 OA
ATOM     60  H   UNL     1       3.866  -7.227  22.122  0.00  0.00    +0.210 HD
ENDBRANCH  58  59
BRANCH  57  61
ATOM     61  O   UNL     1       5.286  -3.736  22.372  0.00  0.00    -0.386 OA
ATOM     62  H   UNL     1       6.070  -3.559  21.809  0.00  0.00    +0.210 HD
ENDBRANCH  57  61
BRANCH  56  63
ATOM     63  O   UNL     1       7.230  -5.538  21.774  0.00  0.00    -0.386 OA
ATOM     64  H   UNL     1       7.243  -4.567  21.907  0.00  0.00    +0.210 HD
ENDBRANCH  56  63
BRANCH  55  65
ATOM     65  C   UNL     1       7.258  -5.188  24.608  0.00  0.00    +0.190 C 
BRANCH  65  66
ATOM     66  O   UNL     1       8.549  -5.151  24.003  0.00  0.00    -0.392 OA
ATOM     67  H   UNL     1       9.218  -5.180  24.707  0.00  0.00    +0.210 HD
ENDBRANCH  65  66
ENDBRANCH  55  65
ENDBRANCH  52  53
ENDBRANCH  47  52
ENDBRANCH  40  44
ENDBRANCH  39  40
ENDBRANCH   1  39
TORSDOF 22
ENDMDL
MODEL 5
REMARK VINA RESULT:      -6.8      1.819      5.278
REMARK  Name = 
REMARK  23 active torsions:
REMARK  status: ('A' for Active; 'I' for Inactive)
REMARK    1  A    between atoms: C_1  and  C_2
REMARK    2  A    between atoms: C_4  and  O_53
REMARK    3  A    between atoms: C_6  and  O_52
REMARK    4  A    between atoms: C_8  and  O_51
REMARK    5  A    between atoms: C_10  and  O_13
REMARK    6  A    between atoms: O_13  and  C_14
REMARK    7  A    between atoms: C_14  and  C_15
REMARK    8  A    between atoms: C_17  and  O_50
REMARK    9  A    between atoms: C_19  and  O_49
REMARK   10  A    between atoms: C_21  and  O_48
REMARK   11  A    between atoms: C_23  and  O_26
REMARK   12  A    between atoms: O_26  and  C_27
REMARK   13  A    between atoms: C_28  and  C_40
REMARK   14  A    between atoms: C_32  and  O_39
REMARK   15  A    between atoms: C_34  and  O_38
REMARK   16  A    between atoms: C_42  and  O_47
REMARK   17  A    between atoms: C_43  and  O_46
REMARK   18  A    between atoms: O_53  and  C_54
REMARK   19  A    between atoms: C_56  and  O_69
REMARK   20  A    between atoms: C_58  and  O_68
REMARK   21  A    between atoms: C_60  and  O_67
REMARK   22  A    between atoms: C_62  and  C_65
REMARK   23  A    between atoms: C_65  and  O_66
REMARK                            x       y       z     vdW  Elec       q    Type
REMARK                         _______ _______ _______ _____ _____    ______ ____
ROOT
ATOM      1  C   UNL     1       6.816  -0.853  23.573  0.00  0.00    +0.179 C 
ATOM      2  O   UNL     1       7.427   0.126  24.432  0.00  0.00    -0.331 OA
ATOM      3  C   UNL     1       8.014   1.179  23.665  0.00  0.00    +0.340 C 
ATOM      4  C   UNL     1       9.277   0.590  22.990  0.00  0.00    +0.214 C 
ATOM      5  C   UNL     1       8.776  -0.583  22.088  0.00  0.00    +0.180 C 
ATOM      6  C   UNL     1       7.937  -1.615  22.868  0.00  0.00    +0.177 C 
ENDROOT
BRANCH   4   7
ATOM      7  O   UNL     1       9.936   1.596  22.202  0.00  0.00    -0.383 OA
ATOM      8  H   UNL     1      10.506   1.142  21.556  0.00  0.00    +0.210 HD
ENDBRANCH   4   7
BRANCH   6   9
ATOM      9  O   UNL     1       7.424  -2.579  21.937  0.00  0.00    -0.386 OA
ATOM     10  H   UNL     1       7.781  -2.329  21.064  0.00  0.00    +0.210 HD
ENDBRANCH   6   9
BRANCH   5  11
ATOM     11  O   UNL     1       9.847  -1.249  21.412  0.00  0.00    -0.386 OA
ATOM     12  H   UNL     1       9.704  -1.047  20.463  0.00  0.00    +0.210 HD
ENDBRANCH   5  11
BRANCH   3  13
ATOM     13  O   UNL     1       8.193   2.359  24.490  0.00  0.00    -0.453 OA
BRANCH  13  14
ATOM     14  C   UNL     1       7.339   3.425  24.135  0.00  0.00    +0.214 A 
ATOM     15  C   UNL     1       5.838   3.267  24.217  0.00  0.00    +0.238 A 
ATOM     16  O   UNL     1       5.271   2.502  24.983  0.00  0.00    -0.283 OA
ATOM     17  C   UNL     1       4.991   4.132  23.427  0.00  0.00    +0.109 A 
ATOM     18  C   UNL     1       5.537   5.339  23.060  0.00  0.00    +0.147 A 
ATOM     19  C   UNL     1       4.730   6.297  22.451  0.00  0.00    +0.092 A 
ATOM     20  C   UNL     1       3.383   6.008  22.228  0.00  0.00    +0.124 A 
ATOM     21  C   UNL     1       2.829   4.784  22.586  0.00  0.00    +0.091 A 
ATOM     22  O   UNL     1       6.838   5.658  23.335  0.00  0.00    -0.451 OA
ATOM     23  C   UNL     1       3.641   3.831  23.173  0.00  0.00    +0.135 A 
ATOM     24  C   UNL     1       7.745   4.684  23.801  0.00  0.00    +0.181 A 
BRANCH  24  25
ATOM     25  C   UNL     1       9.118   5.304  23.968  0.00  0.00    +0.025 A 
ATOM     26  C   UNL     1       9.255   6.413  24.853  0.00  0.00    +0.015 A 
ATOM     27  C   UNL     1      10.498   6.904  25.272  0.00  0.00    +0.050 A 
ATOM     28  C   UNL     1      11.642   6.317  24.782  0.00  0.00    +0.158 A 
ATOM     29  C   UNL     1      11.552   5.313  23.823  0.00  0.00    +0.159 A 
ATOM     30  C   UNL     1      10.309   4.798  23.420  0.00  0.00    +0.060 A 
BRANCH  29  31
ATOM     31  O   UNL     1      12.731   4.846  23.309  0.00  0.00    -0.503 OA
ATOM     32  H   UNL     1      12.671   4.913  22.339  0.00  0.00    +0.292 HD
ENDBRANCH  29  31
BRANCH  28  33
ATOM     33  O   UNL     1      12.856   6.721  25.259  0.00  0.00    -0.503 OA
ATOM     34  H   UNL     1      13.007   7.593  24.842  0.00  0.00    +0.292 HD
ENDBRANCH  28  33
ENDBRANCH  24  25
BRANCH  23  35
ATOM     35  O   UNL     1       3.117   2.606  23.479  0.00  0.00    -0.506 OA
ATOM     36  H   UNL     1       2.278   2.482  23.006  0.00  0.00    +0.292 HD
ENDBRANCH  23  35
BRANCH  20  37
ATOM     37  O   UNL     1       2.533   6.921  21.676  0.00  0.00    -0.507 OA
ATOM     38  H   UNL     1       1.926   6.486  21.056  0.00  0.00    +0.292 HD
ENDBRANCH  20  37
ENDBRANCH  13  14
ENDBRANCH   3  13
BRANCH   1  39
ATOM     39  C   UNL     1       5.874  -1.725  24.399  0.00  0.00    +0.197 C 
BRANCH  39  40
ATOM     40  O   UNL     1       6.203  -1.569  25.769  0.00  0.00    -0.346 OA
BRANCH  40  44
ATOM     41  C   UNL     1       8.378  -5.214  26.868  0.00  0.00    +0.041 C 
ATOM     42  C   UNL     1       7.147  -5.087  25.973  0.00  0.00    +0.150 C 
ATOM     43  O   UNL     1       6.977  -3.763  25.476  0.00  0.00    -0.343 OA
ATOM     44  C   UNL     1       6.517  -2.801  26.416  0.00  0.00    +0.282 C 
ATOM     45  C   UNL     1       5.225  -3.218  27.145  0.00  0.00    +0.201 C 
ATOM     46  C   UNL     1       5.316  -4.649  27.678  0.00  0.00    +0.179 C 
ATOM     47  C   UNL     1       5.841  -5.609  26.601  0.00  0.00    +0.181 C 
BRANCH  46  48
ATOM     48  O   UNL     1       6.096  -4.718  28.877  0.00  0.00    -0.386 OA
ATOM     49  H   UNL     1       6.698  -3.953  28.919  0.00  0.00    +0.210 HD
ENDBRANCH  46  48
BRANCH  45  50
ATOM     50  O   UNL     1       4.973  -2.308  28.236  0.00  0.00    -0.384 OA
ATOM     51  H   UNL     1       4.026  -2.080  28.229  0.00  0.00    +0.210 HD
ENDBRANCH  45  50
BRANCH  47  52
ATOM     52  O   UNL     1       4.762  -5.723  25.648  0.00  0.00    -0.340 OA
BRANCH  52  53
ATOM     53  C   UNL     1       4.435  -7.023  25.171  0.00  0.00    +0.282 C 
ATOM     54  O   UNL     1       4.641  -7.113  23.750  0.00  0.00    -0.341 OA
ATOM     55  C   UNL     1       3.807  -6.282  22.929  0.00  0.00    +0.178 C 
ATOM     56  C   UNL     1       2.310  -6.450  23.261  0.00  0.00    +0.177 C 
ATOM     57  C   UNL     1       2.019  -6.479  24.767  0.00  0.00    +0.179 C 
ATOM     58  C   UNL     1       2.983  -7.426  25.494  0.00  0.00    +0.201 C 
BRANCH  58  59
ATOM     59  O   UNL     1       2.731  -8.785  25.112  0.00  0.00    -0.384 OA
ATOM     60  H   UNL     1       3.510  -9.318  25.366  0.00  0.00    +0.210 HD
ENDBRANCH  58  59
BRANCH  57  61
ATOM     61  O   UNL     1       2.056  -5.140  25.273  0.00  0.00    -0.386 OA
ATOM     62  H   UNL     1       2.752  -5.083  25.962  0.00  0.00    +0.210 HD
ENDBRANCH  57  61
BRANCH  56  63
ATOM     63  O   UNL     1       1.516  -5.446  22.628  0.00  0.00    -0.386 OA
ATOM     64  H   UNL     1       0.810  -5.210  23.266  0.00  0.00    +0.210 HD
ENDBRANCH  56  63
BRANCH  55  65
ATOM     65  C   UNL     1       4.293  -4.820  22.846  0.00  0.00    +0.190 C 
BRANCH  65  66
ATOM     66  O   UNL     1       5.716  -4.722  22.865  0.00  0.00    -0.392 OA
ATOM     67  H   UNL     1       6.048  -4.919  21.972  0.00  0.00    +0.210 HD
ENDBRANCH  65  66
ENDBRANCH  55  65
ENDBRANCH  52  53
ENDBRANCH  47  52
ENDBRANCH  40  44
ENDBRANCH  39  40
ENDBRANCH   1  39
TORSDOF 22
ENDMDL
MODEL 6
REMARK VINA RESULT:      -6.7      2.677      8.959
REMARK  Name = 
REMARK  23 active torsions:
REMARK  status: ('A' for Active; 'I' for Inactive)
REMARK    1  A    between atoms: C_1  and  C_2
REMARK    2  A    between atoms: C_4  and  O_53
REMARK    3  A    between atoms: C_6  and  O_52
REMARK    4  A    between atoms: C_8  and  O_51
REMARK    5  A    between atoms: C_10  and  O_13
REMARK    6  A    between atoms: O_13  and  C_14
REMARK    7  A    between atoms: C_14  and  C_15
REMARK    8  A    between atoms: C_17  and  O_50
REMARK    9  A    between atoms: C_19  and  O_49
REMARK   10  A    between atoms: C_21  and  O_48
REMARK   11  A    between atoms: C_23  and  O_26
REMARK   12  A    between atoms: O_26  and  C_27
REMARK   13  A    between atoms: C_28  and  C_40
REMARK   14  A    between atoms: C_32  and  O_39
REMARK   15  A    between atoms: C_34  and  O_38
REMARK   16  A    between atoms: C_42  and  O_47
REMARK   17  A    between atoms: C_43  and  O_46
REMARK   18  A    between atoms: O_53  and  C_54
REMARK   19  A    between atoms: C_56  and  O_69
REMARK   20  A    between atoms: C_58  and  O_68
REMARK   21  A    between atoms: C_60  and  O_67
REMARK   22  A    between atoms: C_62  and  C_65
REMARK   23  A    between atoms: C_65  and  O_66
REMARK                            x       y       z     vdW  Elec       q    Type
REMARK                         _______ _______ _______ _____ _____    ______ ____
ROOT
ATOM      1  C   UNL     1       9.202   0.485  24.524  0.00  0.00    +0.179 C 
ATOM      2  O   UNL     1       8.291  -0.457  25.117  0.00  0.00    -0.331 OA
ATOM      3  C   UNL     1       8.939  -1.707  25.362  0.00  0.00    +0.340 C 
ATOM      4  C   UNL     1       9.155  -2.376  23.983  0.00  0.00    +0.214 C 
ATOM      5  C   UNL     1      10.058  -1.397  23.165  0.00  0.00    +0.180 C 
ATOM      6  C   UNL     1       9.474   0.028  23.092  0.00  0.00    +0.177 C 
ENDROOT
BRANCH   4   7
ATOM      7  O   UNL     1       9.798  -3.651  24.142  0.00  0.00    -0.383 OA
ATOM      8  H   UNL     1       9.498  -4.033  24.986  0.00  0.00    +0.210 HD
ENDBRANCH   4   7
BRANCH   6   9
ATOM      9  O   UNL     1      10.426   0.875  22.433  0.00  0.00    -0.386 OA
ATOM     10  H   UNL     1      10.069   1.781  22.491  0.00  0.00    +0.210 HD
ENDBRANCH   6   9
BRANCH   5  11
ATOM     11  O   UNL     1      10.325  -1.875  21.843  0.00  0.00    -0.386 OA
ATOM     12  H   UNL     1      11.083  -1.336  21.534  0.00  0.00    +0.210 HD
ENDBRANCH   5  11
BRANCH   3  13
ATOM     13  O   UNL     1       8.206  -2.464  26.358  0.00  0.00    -0.453 OA
BRANCH  13  14
ATOM     14  C   UNL     1       6.838  -2.120  26.427  0.00  0.00    +0.214 A 
ATOM     15  C   UNL     1       6.375  -0.983  27.309  0.00  0.00    +0.238 A 
ATOM     16  O   UNL     1       7.072  -0.027  27.615  0.00  0.00    -0.283 OA
ATOM     17  C   UNL     1       4.999  -0.944  27.750  0.00  0.00    +0.109 A 
ATOM     18  C   UNL     1       4.095  -1.617  26.963  0.00  0.00    +0.147 A 
ATOM     19  C   UNL     1       2.733  -1.482  27.220  0.00  0.00    +0.092 A 
ATOM     20  C   UNL     1       2.317  -0.666  28.273  0.00  0.00    +0.124 A 
ATOM     21  C   UNL     1       3.229   0.008  29.079  0.00  0.00    +0.091 A 
ATOM     22  O   UNL     1       4.487  -2.365  25.888  0.00  0.00    -0.451 OA
ATOM     23  C   UNL     1       4.580  -0.147  28.829  0.00  0.00    +0.135 A 
ATOM     24  C   UNL     1       5.847  -2.671  25.669  0.00  0.00    +0.181 A 
BRANCH  24  25
ATOM     25  C   UNL     1       5.980  -3.553  24.444  0.00  0.00    +0.025 A 
ATOM     26  C   UNL     1       6.143  -4.956  24.638  0.00  0.00    +0.015 A 
ATOM     27  C   UNL     1       6.030  -5.887  23.597  0.00  0.00    +0.050 A 
ATOM     28  C   UNL     1       5.786  -5.430  22.323  0.00  0.00    +0.158 A 
ATOM     29  C   UNL     1       5.741  -4.062  22.071  0.00  0.00    +0.159 A 
ATOM     30  C   UNL     1       5.827  -3.125  23.115  0.00  0.00    +0.060 A 
BRANCH  29  31
ATOM     31  O   UNL     1       5.595  -3.680  20.765  0.00  0.00    -0.503 OA
ATOM     32  H   UNL     1       4.671  -3.395  20.648  0.00  0.00    +0.292 HD
ENDBRANCH  29  31
BRANCH  28  33
ATOM     33  O   UNL     1       5.575  -6.331  21.319  0.00  0.00    -0.503 OA
ATOM     34  H   UNL     1       6.031  -5.949  20.543  0.00  0.00    +0.292 HD
ENDBRANCH  28  33
ENDBRANCH  24  25
BRANCH  23  35
ATOM     35  O   UNL     1       5.483   0.469  29.650  0.00  0.00    -0.506 OA
ATOM     36  H   UNL     1       5.753   1.317  29.263  0.00  0.00    +0.292 HD
ENDBRANCH  23  35
BRANCH  20  37
ATOM     37  O   UNL     1       0.997  -0.460  28.546  0.00  0.00    -0.507 OA
ATOM     38  H   UNL     1       0.443  -1.011  27.972  0.00  0.00    +0.292 HD
ENDBRANCH  20  37
ENDBRANCH  13  14
ENDBRANCH   3  13
BRANCH   1  39
ATOM     39  C   UNL     1       8.620   1.890  24.645  0.00  0.00    +0.197 C 
BRANCH  39  40
ATOM     40  O   UNL     1       9.584   2.818  24.176  0.00  0.00    -0.346 OA
BRANCH  40  44
ATOM     41  C   UNL     1       8.693   7.108  24.010  0.00  0.00    +0.041 C 
ATOM     42  C   UNL     1       7.814   5.986  24.558  0.00  0.00    +0.150 C 
ATOM     43  O   UNL     1       8.566   4.815  24.866  0.00  0.00    -0.343 OA
ATOM     44  C   UNL     1       9.015   4.055  23.751  0.00  0.00    +0.282 C 
ATOM     45  C   UNL     1       7.889   3.669  22.773  0.00  0.00    +0.201 C 
ATOM     46  C   UNL     1       7.010   4.871  22.423  0.00  0.00    +0.179 C 
ATOM     47  C   UNL     1       6.594   5.640  23.685  0.00  0.00    +0.181 C 
BRANCH  46  48
ATOM     48  O   UNL     1       7.643   5.726  21.463  0.00  0.00    -0.386 OA
ATOM     49  H   UNL     1       6.996   5.989  20.785  0.00  0.00    +0.210 HD
ENDBRANCH  46  48
BRANCH  45  50
ATOM     50  O   UNL     1       8.463   3.120  21.569  0.00  0.00    -0.384 OA
ATOM     51  H   UNL     1       8.598   3.848  20.937  0.00  0.00    +0.210 HD
ENDBRANCH  45  50
BRANCH  47  52
ATOM     52  O   UNL     1       5.649   4.775  24.351  0.00  0.00    -0.340 OA
BRANCH  52  53
ATOM     53  C   UNL     1       5.689   4.720  25.772  0.00  0.00    +0.282 C 
ATOM     54  O   UNL     1       6.025   3.396  26.223  0.00  0.00    -0.341 OA
ATOM     55  C   UNL     1       5.082   2.358  25.918  0.00  0.00    +0.178 C 
ATOM     56  C   UNL     1       3.650   2.724  26.360  0.00  0.00    +0.177 C 
ATOM     57  C   UNL     1       3.255   4.165  26.015  0.00  0.00    +0.179 C 
ATOM     58  C   UNL     1       4.359   5.149  26.422  0.00  0.00    +0.201 C 
BRANCH  58  59
ATOM     59  O   UNL     1       4.479   5.203  27.849  0.00  0.00    -0.384 OA
ATOM     60  H   UNL     1       5.058   4.468  28.130  0.00  0.00    +0.210 HD
ENDBRANCH  58  59
BRANCH  57  61
ATOM     61  O   UNL     1       2.922   4.234  24.623  0.00  0.00    -0.386 OA
ATOM     62  H   UNL     1       3.690   3.921  24.101  0.00  0.00    +0.210 HD
ENDBRANCH  57  61
BRANCH  56  63
ATOM     63  O   UNL     1       2.688   1.811  25.829  0.00  0.00    -0.386 OA
ATOM     64  H   UNL     1       1.919   2.352  25.551  0.00  0.00    +0.210 HD
ENDBRANCH  56  63
BRANCH  55  65
ATOM     65  C   UNL     1       5.201   1.830  24.473  0.00  0.00    +0.190 C 
BRANCH  65  66
ATOM     66  O   UNL     1       5.303   0.409  24.424  0.00  0.00    -0.392 OA
ATOM     67  H   UNL     1       6.118   0.144  24.885  0.00  0.00    +0.210 HD
ENDBRANCH  65  66
ENDBRANCH  55  65
ENDBRANCH  52  53
ENDBRANCH  47  52
ENDBRANCH  40  44
ENDBRANCH  39  40
ENDBRANCH   1  39
TORSDOF 22
ENDMDL
MODEL 7
REMARK VINA RESULT:      -6.7      2.227      8.906
REMARK  Name = 
REMARK  23 active torsions:
REMARK  status: ('A' for Active; 'I' for Inactive)
REMARK    1  A    between atoms: C_1  and  C_2
REMARK    2  A    between atoms: C_4  and  O_53
REMARK    3  A    between atoms: C_6  and  O_52
REMARK    4  A    between atoms: C_8  and  O_51
REMARK    5  A    between atoms: C_10  and  O_13
REMARK    6  A    between atoms: O_13  and  C_14
REMARK    7  A    between atoms: C_14  and  C_15
REMARK    8  A    between atoms: C_17  and  O_50
REMARK    9  A    between atoms: C_19  and  O_49
REMARK   10  A    between atoms: C_21  and  O_48
REMARK   11  A    between atoms: C_23  and  O_26
REMARK   12  A    between atoms: O_26  and  C_27
REMARK   13  A    between atoms: C_28  and  C_40
REMARK   14  A    between atoms: C_32  and  O_39
REMARK   15  A    between atoms: C_34  and  O_38
REMARK   16  A    between atoms: C_42  and  O_47
REMARK   17  A    between atoms: C_43  and  O_46
REMARK   18  A    between atoms: O_53  and  C_54
REMARK   19  A    between atoms: C_56  and  O_69
REMARK   20  A    between atoms: C_58  and  O_68
REMARK   21  A    between atoms: C_60  and  O_67
REMARK   22  A    between atoms: C_62  and  C_65
REMARK   23  A    between atoms: C_65  and  O_66
REMARK                            x       y       z     vdW  Elec       q    Type
REMARK                         _______ _______ _______ _____ _____    ______ ____
ROOT
ATOM      1  C   UNL     1       7.869  -2.702  24.483  0.00  0.00    +0.179 C 
ATOM      2  O   UNL     1       6.658  -3.323  24.947  0.00  0.00    -0.331 OA
ATOM      3  C   UNL     1       6.826  -3.843  26.267  0.00  0.00    +0.340 C 
ATOM      4  C   UNL     1       7.736  -5.090  26.144  0.00  0.00    +0.214 C 
ATOM      5  C   UNL     1       9.083  -4.583  25.537  0.00  0.00    +0.180 C 
ATOM      6  C   UNL     1       8.886  -3.810  24.217  0.00  0.00    +0.177 C 
ENDROOT
BRANCH   4   7
ATOM      7  O   UNL     1       7.948  -5.683  27.436  0.00  0.00    -0.383 OA
ATOM      8  H   UNL     1       8.907  -5.726  27.590  0.00  0.00    +0.210 HD
ENDBRANCH   4   7
BRANCH   6   9
ATOM      9  O   UNL     1      10.156  -3.283  23.806  0.00  0.00    -0.386 OA
ATOM     10  H   UNL     1      10.531  -3.936  23.185  0.00  0.00    +0.210 HD
ENDBRANCH   6   9
BRANCH   5  11
ATOM     11  O   UNL     1      10.026  -5.640  25.338  0.00  0.00    -0.386 OA
ATOM     12  H   UNL     1       9.588  -6.435  25.710  0.00  0.00    +0.210 HD
ENDBRANCH   5  11
BRANCH   3  13
ATOM     13  O   UNL     1       5.535  -4.026  26.902  0.00  0.00    -0.453 OA
BRANCH  13  14
ATOM     14  C   UNL     1       4.714  -2.878  26.842  0.00  0.00    +0.214 A 
ATOM     15  C   UNL     1       5.210  -1.551  27.367  0.00  0.00    +0.238 A 
ATOM     16  O   UNL     1       6.390  -1.231  27.416  0.00  0.00    -0.283 OA
ATOM     17  C   UNL     1       4.253  -0.538  27.749  0.00  0.00    +0.109 A 
ATOM     18  C   UNL     1       3.016  -0.624  27.155  0.00  0.00    +0.147 A 
ATOM     19  C   UNL     1       2.099   0.409  27.334  0.00  0.00    +0.092 A 
ATOM     20  C   UNL     1       2.459   1.510  28.112  0.00  0.00    +0.124 A 
ATOM     21  C   UNL     1       3.705   1.597  28.724  0.00  0.00    +0.091 A 
ATOM     22  O   UNL     1       2.677  -1.665  26.336  0.00  0.00    -0.451 OA
ATOM     23  C   UNL     1       4.603   0.558  28.558  0.00  0.00    +0.135 A 
ATOM     24  C   UNL     1       3.492  -2.813  26.241  0.00  0.00    +0.181 A 
BRANCH  24  25
ATOM     25  C   UNL     1       2.848  -3.819  25.309  0.00  0.00    +0.025 A 
ATOM     26  C   UNL     1       1.425  -3.851  25.229  0.00  0.00    +0.015 A 
ATOM     27  C   UNL     1       0.733  -4.555  24.236  0.00  0.00    +0.050 A 
ATOM     28  C   UNL     1       1.453  -5.279  23.313  0.00  0.00    +0.158 A 
ATOM     29  C   UNL     1       2.836  -5.373  23.429  0.00  0.00    +0.159 A 
ATOM     30  C   UNL     1       3.537  -4.647  24.407  0.00  0.00    +0.060 A 
BRANCH  29  31
ATOM     31  O   UNL     1       3.475  -6.191  22.537  0.00  0.00    -0.503 OA
ATOM     32  H   UNL     1       3.789  -5.631  21.804  0.00  0.00    +0.292 HD
ENDBRANCH  29  31
BRANCH  28  33
ATOM     33  O   UNL     1       0.796  -5.888  22.283  0.00  0.00    -0.503 OA
ATOM     34  H   UNL     1       0.512  -6.751  22.645  0.00  0.00    +0.292 HD
ENDBRANCH  28  33
ENDBRANCH  24  25
BRANCH  23  35
ATOM     35  O   UNL     1       5.808   0.611  29.199  0.00  0.00    -0.506 OA
ATOM     36  H   UNL     1       5.780   0.058  29.996  0.00  0.00    +0.292 HD
ENDBRANCH  23  35
BRANCH  20  37
ATOM     37  O   UNL     1       1.621   2.572  28.288  0.00  0.00    -0.507 OA
ATOM     38  H   UNL     1       2.017   3.218  28.894  0.00  0.00    +0.292 HD
ENDBRANCH  20  37
ENDBRANCH  13  14
ENDBRANCH   3  13
BRANCH   1  39
ATOM     39  C   UNL     1       7.552  -1.825  23.276  0.00  0.00    +0.197 C 
BRANCH  39  40
ATOM     40  O   UNL     1       8.737  -1.663  22.513  0.00  0.00    -0.346 OA
BRANCH  40  44
ATOM     41  C   UNL     1      11.408   1.276  24.371  0.00  0.00    +0.041 C 
ATOM     42  C   UNL     1       9.893   1.158  24.518  0.00  0.00    +0.150 C 
ATOM     43  O   UNL     1       9.416  -0.136  24.158  0.00  0.00    -0.343 OA
ATOM     44  C   UNL     1       9.405  -0.428  22.767  0.00  0.00    +0.282 C 
ATOM     45  C   UNL     1       8.657   0.620  21.921  0.00  0.00    +0.201 C 
ATOM     46  C   UNL     1       9.088   2.043  22.278  0.00  0.00    +0.179 C 
ATOM     47  C   UNL     1       9.089   2.258  23.797  0.00  0.00    +0.181 C 
BRANCH  46  48
ATOM     48  O   UNL     1      10.353   2.374  21.692  0.00  0.00    -0.386 OA
ATOM     49  H   UNL     1      10.767   1.569  21.335  0.00  0.00    +0.210 HD
ENDBRANCH  46  48
BRANCH  45  50
ATOM     50  O   UNL     1       8.902   0.374  20.521  0.00  0.00    -0.384 OA
ATOM     51  H   UNL     1       8.188   0.793  20.009  0.00  0.00    +0.210 HD
ENDBRANCH  45  50
BRANCH  47  52
ATOM     52  O   UNL     1       7.695   2.276  24.171  0.00  0.00    -0.340 OA
BRANCH  52  53
ATOM     53  C   UNL     1       7.370   2.007  25.530  0.00  0.00    +0.282 C 
ATOM     54  O   UNL     1       6.018   1.532  25.648  0.00  0.00    -0.341 OA
ATOM     55  C   UNL     1       4.982   2.453  25.278  0.00  0.00    +0.178 C 
ATOM     56  C   UNL     1       5.131   3.814  25.987  0.00  0.00    +0.177 C 
ATOM     57  C   UNL     1       6.572   4.338  26.003  0.00  0.00    +0.179 C 
ATOM     58  C   UNL     1       7.550   3.239  26.439  0.00  0.00    +0.201 C 
BRANCH  58  59
ATOM     59  O   UNL     1       7.338   2.897  27.814  0.00  0.00    -0.384 OA
ATOM     60  H   UNL     1       6.651   3.494  28.171  0.00  0.00    +0.210 HD
ENDBRANCH  58  59
BRANCH  57  61
ATOM     61  O   UNL     1       6.880   4.891  24.718  0.00  0.00    -0.386 OA
ATOM     62  H   UNL     1       7.809   5.205  24.726  0.00  0.00    +0.210 HD
ENDBRANCH  57  61
BRANCH  56  63
ATOM     63  O   UNL     1       4.259   4.797  25.425  0.00  0.00    -0.386 OA
ATOM     64  H   UNL     1       4.610   5.668  25.705  0.00  0.00    +0.210 HD
ENDBRANCH  56  63
BRANCH  55  65
ATOM     65  C   UNL     1       4.755   2.536  23.753  0.00  0.00    +0.190 C 
BRANCH  65  66
ATOM     66  O   UNL     1       3.375   2.673  23.419  0.00  0.00    -0.392 OA
ATOM     67  H   UNL     1       2.915   1.856  23.677  0.00  0.00    +0.210 HD
ENDBRANCH  65  66
ENDBRANCH  55  65
ENDBRANCH  52  53
ENDBRANCH  47  52
ENDBRANCH  40  44
ENDBRANCH  39  40
ENDBRANCH   1  39
TORSDOF 22
ENDMDL
MODEL 8
REMARK VINA RESULT:      -6.6      1.927      6.734
REMARK  Name = 
REMARK  23 active torsions:
REMARK  status: ('A' for Active; 'I' for Inactive)
REMARK    1  A    between atoms: C_1  and  C_2
REMARK    2  A    between atoms: C_4  and  O_53
REMARK    3  A    between atoms: C_6  and  O_52
REMARK    4  A    between atoms: C_8  and  O_51
REMARK    5  A    between atoms: C_10  and  O_13
REMARK    6  A    between atoms: O_13  and  C_14
REMARK    7  A    between atoms: C_14  and  C_15
REMARK    8  A    between atoms: C_17  and  O_50
REMARK    9  A    between atoms: C_19  and  O_49
REMARK   10  A    between atoms: C_21  and  O_48
REMARK   11  A    between atoms: C_23  and  O_26
REMARK   12  A    between atoms: O_26  and  C_27
REMARK   13  A    between atoms: C_28  and  C_40
REMARK   14  A    between atoms: C_32  and  O_39
REMARK   15  A    between atoms: C_34  and  O_38
REMARK   16  A    between atoms: C_42  and  O_47
REMARK   17  A    between atoms: C_43  and  O_46
REMARK   18  A    between atoms: O_53  and  C_54
REMARK   19  A    between atoms: C_56  and  O_69
REMARK   20  A    between atoms: C_58  and  O_68
REMARK   21  A    between atoms: C_60  and  O_67
REMARK   22  A    between atoms: C_62  and  C_65
REMARK   23  A    between atoms: C_65  and  O_66
REMARK                            x       y       z     vdW  Elec       q    Type
REMARK                         _______ _______ _______ _____ _____    ______ ____
ROOT
ATOM      1  C   UNL     1       6.871  -2.190  23.727  0.00  0.00    +0.179 C 
ATOM      2  O   UNL     1       7.347  -1.462  24.872  0.00  0.00    -0.331 OA
ATOM      3  C   UNL     1       7.928  -0.217  24.478  0.00  0.00    +0.340 C 
ATOM      4  C   UNL     1       9.275  -0.549  23.793  0.00  0.00    +0.214 C 
ATOM      5  C   UNL     1       8.924  -1.447  22.563  0.00  0.00    +0.180 C 
ATOM      6  C   UNL     1       8.090  -2.685  22.952  0.00  0.00    +0.177 C 
ENDROOT
BRANCH   4   7
ATOM      7  O   UNL     1       9.933   0.658  23.372  0.00  0.00    -0.383 OA
ATOM      8  H   UNL     1      10.507   0.953  24.100  0.00  0.00    +0.210 HD
ENDBRANCH   4   7
BRANCH   6   9
ATOM      9  O   UNL     1       7.716  -3.375  21.751  0.00  0.00    -0.386 OA
ATOM     10  H   UNL     1       7.687  -2.698  21.048  0.00  0.00    +0.210 HD
ENDBRANCH   6   9
BRANCH   5  11
ATOM     11  O   UNL     1      10.086  -1.860  21.838  0.00  0.00    -0.386 OA
ATOM     12  H   UNL     1      10.095  -1.291  21.040  0.00  0.00    +0.210 HD
ENDBRANCH   5  11
BRANCH   3  13
ATOM     13  O   UNL     1       7.965   0.696  25.604  0.00  0.00    -0.453 OA
BRANCH  13  14
ATOM     14  C   UNL     1       6.697   1.209  25.952  0.00  0.00    +0.214 A 
ATOM     15  C   UNL     1       5.821   0.483  26.947  0.00  0.00    +0.238 A 
ATOM     16  O   UNL     1       6.248  -0.240  27.837  0.00  0.00    -0.283 OA
ATOM     17  C   UNL     1       4.395   0.716  26.938  0.00  0.00    +0.109 A 
ATOM     18  C   UNL     1       3.984   1.915  26.406  0.00  0.00    +0.147 A 
ATOM     19  C   UNL     1       2.647   2.291  26.519  0.00  0.00    +0.092 A 
ATOM     20  C   UNL     1       1.755   1.438  27.171  0.00  0.00    +0.124 A 
ATOM     21  C   UNL     1       2.163   0.219  27.700  0.00  0.00    +0.091 A 
ATOM     22  O   UNL     1       4.861   2.788  25.825  0.00  0.00    -0.451 OA
ATOM     23  C   UNL     1       3.488  -0.155  27.567  0.00  0.00    +0.135 A 
ATOM     24  C   UNL     1       6.188   2.405  25.538  0.00  0.00    +0.181 A 
BRANCH  24  25
ATOM     25  C   UNL     1       6.911   3.546  24.851  0.00  0.00    +0.025 A 
ATOM     26  C   UNL     1       7.947   4.215  25.566  0.00  0.00    +0.015 A 
ATOM     27  C   UNL     1       8.839   5.107  24.956  0.00  0.00    +0.050 A 
ATOM     28  C   UNL     1       8.692   5.380  23.616  0.00  0.00    +0.158 A 
ATOM     29  C   UNL     1       7.621   4.841  22.910  0.00  0.00    +0.159 A 
ATOM     30  C   UNL     1       6.740   3.926  23.510  0.00  0.00    +0.060 A 
BRANCH  29  31
ATOM     31  O   UNL     1       7.481   5.235  21.608  0.00  0.00    -0.503 OA
ATOM     32  H   UNL     1       6.546   5.110  21.366  0.00  0.00    +0.292 HD
ENDBRANCH  29  31
BRANCH  28  33
ATOM     33  O   UNL     1       9.615   6.168  22.990  0.00  0.00    -0.503 OA
ATOM     34  H   UNL     1       9.495   5.981  22.038  0.00  0.00    +0.292 HD
ENDBRANCH  28  33
ENDBRANCH  24  25
BRANCH  23  35
ATOM     35  O   UNL     1       3.885  -1.375  28.038  0.00  0.00    -0.506 OA
ATOM     36  H   UNL     1       3.486  -2.079  27.502  0.00  0.00    +0.292 HD
ENDBRANCH  23  35
BRANCH  20  37
ATOM     37  O   UNL     1       0.444   1.770  27.351  0.00  0.00    -0.507 OA
ATOM     38  H   UNL     1       0.371   2.618  27.817  0.00  0.00    +0.292 HD
ENDBRANCH  20  37
ENDBRANCH  13  14
ENDBRANCH   3  13
BRANCH   1  39
ATOM     39  C   UNL     1       5.921  -3.290  24.192  0.00  0.00    +0.197 C 
BRANCH  39  40
ATOM     40  O   UNL     1       5.401  -3.948  23.048  0.00  0.00    -0.346 OA
BRANCH  40  44
ATOM     41  C   UNL     1       1.206  -4.990  23.783  0.00  0.00    +0.041 C 
ATOM     42  C   UNL     1       2.337  -4.868  24.802  0.00  0.00    +0.150 C 
ATOM     43  O   UNL     1       3.428  -4.097  24.306  0.00  0.00    -0.343 OA
ATOM     44  C   UNL     1       4.242  -4.731  23.328  0.00  0.00    +0.282 C 
ATOM     45  C   UNL     1       4.777  -6.107  23.767  0.00  0.00    +0.201 C 
ATOM     46  C   UNL     1       3.667  -6.983  24.349  0.00  0.00    +0.179 C 
ATOM     47  C   UNL     1       2.831  -6.209  25.377  0.00  0.00    +0.181 C 
BRANCH  46  48
ATOM     48  O   UNL     1       2.850  -7.554  23.320  0.00  0.00    -0.386 OA
ATOM     49  H   UNL     1       2.406  -6.843  22.825  0.00  0.00    +0.210 HD
ENDBRANCH  46  48
BRANCH  45  50
ATOM     50  O   UNL     1       5.380  -6.773  22.638  0.00  0.00    -0.384 OA
ATOM     51  H   UNL     1       5.981  -7.461  22.976  0.00  0.00    +0.210 HD
ENDBRANCH  45  50
BRANCH  47  52
ATOM     52  O   UNL     1       3.700  -6.049  26.518  0.00  0.00    -0.340 OA
BRANCH  52  53
ATOM     53  C   UNL     1       3.439  -4.966  27.403  0.00  0.00    +0.282 C 
ATOM     54  O   UNL     1       4.603  -4.133  27.549  0.00  0.00    -0.341 OA
ATOM     55  C   UNL     1       5.750  -4.740  28.162  0.00  0.00    +0.178 C 
ATOM     56  C   UNL     1       5.405  -5.413  29.506  0.00  0.00    +0.177 C 
ATOM     57  C   UNL     1       4.109  -6.231  29.463  0.00  0.00    +0.179 C 
ATOM     58  C   UNL     1       2.979  -5.435  28.797  0.00  0.00    +0.201 C 
BRANCH  58  59
ATOM     59  O   UNL     1       2.605  -4.319  29.616  0.00  0.00    -0.384 OA
ATOM     60  H   UNL     1       2.544  -3.531  29.041  0.00  0.00    +0.210 HD
ENDBRANCH  58  59
BRANCH  57  61
ATOM     61  O   UNL     1       4.371  -7.484  28.819  0.00  0.00    -0.386 OA
ATOM     62  H   UNL     1       5.088  -7.943  29.306  0.00  0.00    +0.210 HD
ENDBRANCH  57  61
BRANCH  56  63
ATOM     63  O   UNL     1       6.482  -6.225  29.978  0.00  0.00    -0.386 OA
ATOM     64  H   UNL     1       6.365  -6.301  30.948  0.00  0.00    +0.210 HD
ENDBRANCH  56  63
BRANCH  55  65
ATOM     65  C   UNL     1       6.572  -5.613  27.190  0.00  0.00    +0.190 C 
BRANCH  65  66
ATOM     66  O   UNL     1       7.962  -5.613  27.508  0.00  0.00    -0.392 OA
ATOM     67  H   UNL     1       8.180  -6.461  27.930  0.00  0.00    +0.210 HD
ENDBRANCH  65  66
ENDBRANCH  55  65
ENDBRANCH  52  53
ENDBRANCH  47  52
ENDBRANCH  40  44
ENDBRANCH  39  40
ENDBRANCH   1  39
TORSDOF 22
ENDMDL
MODEL 9
REMARK VINA RESULT:      -6.5      1.544      2.306
REMARK  Name = 
REMARK  23 active torsions:
REMARK  status: ('A' for Active; 'I' for Inactive)
REMARK    1  A    between atoms: C_1  and  C_2
REMARK    2  A    between atoms: C_4  and  O_53
REMARK    3  A    between atoms: C_6  and  O_52
REMARK    4  A    between atoms: C_8  and  O_51
REMARK    5  A    between atoms: C_10  and  O_13
REMARK    6  A    between atoms: O_13  and  C_14
REMARK    7  A    between atoms: C_14  and  C_15
REMARK    8  A    between atoms: C_17  and  O_50
REMARK    9  A    between atoms: C_19  and  O_49
REMARK   10  A    between atoms: C_21  and  O_48
REMARK   11  A    between atoms: C_23  and  O_26
REMARK   12  A    between atoms: O_26  and  C_27
REMARK   13  A    between atoms: C_28  and  C_40
REMARK   14  A    between atoms: C_32  and  O_39
REMARK   15  A    between atoms: C_34  and  O_38
REMARK   16  A    between atoms: C_42  and  O_47
REMARK   17  A    between atoms: C_43  and  O_46
REMARK   18  A    between atoms: O_53  and  C_54
REMARK   19  A    between atoms: C_56  and  O_69
REMARK   20  A    between atoms: C_58  and  O_68
REMARK   21  A    between atoms: C_60  and  O_67
REMARK   22  A    between atoms: C_62  and  C_65
REMARK   23  A    between atoms: C_65  and  O_66
REMARK                            x       y       z     vdW  Elec       q    Type
REMARK                         _______ _______ _______ _____ _____    ______ ____
ROOT
ATOM      1  C   UNL     1       4.774   1.143  26.302  0.00  0.00    +0.179 C 
ATOM      2  O   UNL     1       5.008   1.398  24.906  0.00  0.00    -0.331 OA
ATOM      3  C   UNL     1       5.504   2.723  24.706  0.00  0.00    +0.340 C 
ATOM      4  C   UNL     1       4.319   3.687  24.959  0.00  0.00    +0.214 C 
ATOM      5  C   UNL     1       3.874   3.444  26.437  0.00  0.00    +0.180 C 
ATOM      6  C   UNL     1       3.556   1.963  26.725  0.00  0.00    +0.177 C 
ENDROOT
BRANCH   4   7
ATOM      7  O   UNL     1       4.735   5.050  24.768  0.00  0.00    -0.383 OA
ATOM      8  H   UNL     1       4.506   5.306  23.858  0.00  0.00    +0.210 HD
ENDBRANCH   4   7
BRANCH   6   9
ATOM      9  O   UNL     1       3.279   1.823  28.125  0.00  0.00    -0.386 OA
ATOM     10  H   UNL     1       2.944   0.914  28.245  0.00  0.00    +0.210 HD
ENDBRANCH   6   9
BRANCH   5  11
ATOM     11  O   UNL     1       2.756   4.255  26.811  0.00  0.00    -0.386 OA
ATOM     12  H   UNL     1       2.524   3.954  27.715  0.00  0.00    +0.210 HD
ENDBRANCH   5  11
BRANCH   3  13
ATOM     13  O   UNL     1       6.174   2.819  23.423  0.00  0.00    -0.453 OA
BRANCH  13  14
ATOM     14  C   UNL     1       7.573   2.974  23.531  0.00  0.00    +0.214 A 
ATOM     15  C   UNL     1       8.161   4.201  24.189  0.00  0.00    +0.238 A 
ATOM     16  O   UNL     1       7.590   4.858  25.049  0.00  0.00    -0.283 OA
ATOM     17  C   UNL     1       9.518   4.589  23.879  0.00  0.00    +0.109 A 
ATOM     18  C   UNL     1      10.344   3.586  23.430  0.00  0.00    +0.147 A 
ATOM     19  C   UNL     1      11.705   3.839  23.278  0.00  0.00    +0.092 A 
ATOM     20  C   UNL     1      12.199   5.107  23.584  0.00  0.00    +0.124 A 
ATOM     21  C   UNL     1      11.366   6.129  24.027  0.00  0.00    +0.091 A 
ATOM     22  O   UNL     1       9.883   2.321  23.191  0.00  0.00    -0.451 OA
ATOM     23  C   UNL     1      10.013   5.876  24.157  0.00  0.00    +0.135 A 
ATOM     24  C   UNL     1       8.500   2.041  23.173  0.00  0.00    +0.181 A 
BRANCH  24  25
ATOM     25  C   UNL     1       8.281   0.581  22.832  0.00  0.00    +0.025 A 
ATOM     26  C   UNL     1       9.422  -0.225  22.549  0.00  0.00    +0.015 A 
ATOM     27  C   UNL     1       9.367  -1.622  22.465  0.00  0.00    +0.050 A 
ATOM     28  C   UNL     1       8.153  -2.248  22.628  0.00  0.00    +0.158 A 
ATOM     29  C   UNL     1       6.996  -1.491  22.785  0.00  0.00    +0.159 A 
ATOM     30  C   UNL     1       7.049  -0.092  22.897  0.00  0.00    +0.060 A 
BRANCH  29  31
ATOM     31  O   UNL     1       5.813  -2.178  22.841  0.00  0.00    -0.503 OA
ATOM     32  H   UNL     1       5.987  -3.081  22.522  0.00  0.00    +0.292 HD
ENDBRANCH  29  31
BRANCH  28  33
ATOM     33  O   UNL     1       8.103  -3.612  22.648  0.00  0.00    -0.503 OA
ATOM     34  H   UNL     1       8.507  -3.862  23.503  0.00  0.00    +0.292 HD
ENDBRANCH  28  33
ENDBRANCH  24  25
BRANCH  23  35
ATOM     35  O   UNL     1       9.180   6.889  24.541  0.00  0.00    -0.506 OA
ATOM     36  H   UNL     1       9.340   7.111  25.472  0.00  0.00    +0.292 HD
ENDBRANCH  23  35
BRANCH  20  37
ATOM     37  O   UNL     1      13.528   5.402  23.497  0.00  0.00    -0.507 OA
ATOM     38  H   UNL     1      13.686   6.328  23.740  0.00  0.00    +0.292 HD
ENDBRANCH  20  37
ENDBRANCH  13  14
ENDBRANCH   3  13
BRANCH   1  39
ATOM     39  C   UNL     1       4.639  -0.360  26.521  0.00  0.00    +0.197 C 
BRANCH  39  40
ATOM     40  O   UNL     1       3.260  -0.691  26.526  0.00  0.00    -0.346 OA
BRANCH  40  44
ATOM     41  C   UNL     1       3.673  -3.887  29.499  0.00  0.00    +0.041 C 
ATOM     42  C   UNL     1       3.888  -3.974  27.990  0.00  0.00    +0.150 C 
ATOM     43  O   UNL     1       4.108  -2.694  27.403  0.00  0.00    -0.343 OA
ATOM     44  C   UNL     1       2.964  -1.857  27.293  0.00  0.00    +0.282 C 
ATOM     45  C   UNL     1       1.775  -2.525  26.575  0.00  0.00    +0.201 C 
ATOM     46  C   UNL     1       1.500  -3.925  27.126  0.00  0.00    +0.179 C 
ATOM     47  C   UNL     1       2.794  -4.745  27.228  0.00  0.00    +0.181 C 
BRANCH  46  48
ATOM     48  O   UNL     1       0.803  -3.873  28.377  0.00  0.00    -0.386 OA
ATOM     49  H   UNL     1       0.586  -4.777  28.666  0.00  0.00    +0.210 HD
ENDBRANCH  46  48
BRANCH  45  50
ATOM     50  O   UNL     1       0.598  -1.704  26.725  0.00  0.00    -0.384 OA
ATOM     51  H   UNL     1      -0.168  -2.210  26.400  0.00  0.00    +0.210 HD
ENDBRANCH  45  50
BRANCH  47  52
ATOM     52  O   UNL     1       3.156  -5.038  25.861  0.00  0.00    -0.340 OA
BRANCH  52  53
ATOM     53  C   UNL     1       3.333  -6.403  25.502  0.00  0.00    +0.282 C 
ATOM     54  O   UNL     1       4.709  -6.796  25.646  0.00  0.00    -0.341 OA
ATOM     55  C   UNL     1       5.654  -6.143  24.786  0.00  0.00    +0.178 C 
ATOM     56  C   UNL     1       5.235  -6.209  23.303  0.00  0.00    +0.177 C 
ATOM     57  C   UNL     1       3.748  -5.912  23.076  0.00  0.00    +0.179 C 
ATOM     58  C   UNL     1       2.875  -6.702  24.060  0.00  0.00    +0.201 C 
BRANCH  58  59
ATOM     59  O   UNL     1       2.949  -8.105  23.780  0.00  0.00    -0.384 OA
ATOM     60  H   UNL     1       3.245  -8.560  24.592  0.00  0.00    +0.210 HD
ENDBRANCH  58  59
BRANCH  57  61
ATOM     61  O   UNL     1       3.540  -4.497  23.148  0.00  0.00    -0.386 OA
ATOM     62  H   UNL     1       2.963  -4.303  23.917  0.00  0.00    +0.210 HD
ENDBRANCH  57  61
BRANCH  56  63
ATOM     63  O   UNL     1       6.036  -5.346  22.493  0.00  0.00    -0.386 OA
ATOM     64  H   UNL     1       6.581  -5.930  21.925  0.00  0.00    +0.210 HD
ENDBRANCH  56  63
BRANCH  55  65
ATOM     65  C   UNL     1       6.065  -4.741  25.283  0.00  0.00    +0.190 C 
BRANCH  65  66
ATOM     66  O   UNL     1       7.472  -4.525  25.188  0.00  0.00    -0.392 OA
ATOM     67  H   UNL     1       7.694  -3.726  25.696  0.00  0.00    +0.210 HD
ENDBRANCH  65  66
ENDBRANCH  55  65
ENDBRANCH  52  53
ENDBRANCH  47  52
ENDBRANCH  40  44
ENDBRANCH  39  40
ENDBRANCH   1  39
TORSDOF 22
ENDMDL
