MODEL 1
REMARK VINA RESULT:      -7.3      0.000      0.000
REMARK  Name = 
REMARK  21 active torsions:
REMARK  status: ('A' for Active; 'I' for Inactive)
REMARK    1  A    between atoms: C_1  and  C_2
REMARK    2  A    between atoms: C_3  and  O_54
REMARK    3  A    between atoms: C_5  and  O_53
REMARK    4  A    between atoms: C_7  and  O_52
REMARK    5  A    between atoms: C_8  and  O_11
REMARK    6  A    between atoms: O_11  and  C_12
REMARK    7  A    between atoms: C_14  and  O_51
REMARK    8  A    between atoms: C_19  and  C_43
REMARK    9  A    between atoms: C_20  and  O_23
REMARK   10  A    between atoms: O_23  and  C_24
REMARK   11  A    between atoms: C_26  and  O_42
REMARK   12  A    between atoms: C_27  and  O_41
REMARK   13  A    between atoms: C_28  and  O_40
REMARK   14  A    between atoms: C_30  and  C_32
REMARK   15  A    between atoms: C_32  and  O_33
REMARK   16  A    between atoms: O_33  and  C_34
REMARK   17  A    between atoms: C_34  and  C_36
REMARK   18  A    between atoms: C_36  and  C_37
REMARK   19  A    between atoms: C_37  and  O_39
REMARK   20  A    between atoms: C_45  and  O_50
REMARK   21  A    between atoms: C_46  and  O_49
REMARK                            x       y       z     vdW  Elec       q    Type
REMARK                         _______ _______ _______ _____ _____    ______ ____
ROOT
ATOM      1  C   UNL     1       5.033  -5.242  25.322  0.00  0.00    +0.131 A 
ATOM      2  C   UNL     1       5.761  -4.300  24.583  0.00  0.00    +0.093 A 
ATOM      3  C   UNL     1       5.947  -3.003  25.084  0.00  0.00    +0.147 A 
ATOM      4  O   UNL     1       6.638  -2.091  24.325  0.00  0.00    -0.451 OA
ATOM      5  C   UNL     1       6.988  -0.850  24.887  0.00  0.00    +0.181 A 
ATOM      6  C   UNL     1       6.459  -0.371  26.046  0.00  0.00    +0.214 A 
ATOM      7  C   UNL     1       5.385  -1.234  26.643  0.00  0.00    +0.238 A 
ATOM      8  O   UNL     1       4.445  -0.792  27.292  0.00  0.00    -0.283 OA
ATOM      9  C   UNL     1       5.391  -2.657  26.306  0.00  0.00    +0.109 A 
ATOM     10  C   UNL     1       4.736  -3.615  27.081  0.00  0.00    +0.135 A 
ATOM     11  C   UNL     1       4.552  -4.901  26.590  0.00  0.00    +0.092 A 
ENDROOT
BRANCH   5  12
ATOM     12  C   UNL     1       7.914  -0.068  24.005  0.00  0.00    +0.025 A 
ATOM     13  C   UNL     1       7.573   0.128  22.645  0.00  0.00    +0.015 A 
ATOM     14  C   UNL     1       8.365   0.909  21.792  0.00  0.00    +0.050 A 
ATOM     15  C   UNL     1       9.506   1.507  22.292  0.00  0.00    +0.158 A 
ATOM     16  C   UNL     1       9.885   1.305  23.612  0.00  0.00    +0.159 A 
ATOM     17  C   UNL     1       9.114   0.510  24.461  0.00  0.00    +0.060 A 
BRANCH  16  18
ATOM     18  O   UNL     1      11.032   1.921  24.035  0.00  0.00    -0.503 OA
ATOM     19  H   UNL     1      10.854   2.366  24.881  0.00  0.00    +0.292 HD
ENDBRANCH  16  18
BRANCH  15  20
ATOM     20  O   UNL     1      10.257   2.304  21.474  0.00  0.00    -0.503 OA
ATOM     21  H   UNL     1      10.238   1.854  20.605  0.00  0.00    +0.292 HD
ENDBRANCH  15  20
ENDBRANCH   5  12
BRANCH  10  22
ATOM     22  O   UNL     1       4.289  -3.312  28.337  0.00  0.00    -0.506 OA
ATOM     23  H   UNL     1       3.940  -4.110  28.767  0.00  0.00    +0.292 HD
ENDBRANCH  10  22
BRANCH   6  24
ATOM     24  O   UNL     1       6.849   0.857  26.601  0.00  0.00    -0.453 OA
BRANCH  24  25
ATOM     25  C   UNL     1       6.040   2.017  26.335  0.00  0.00    +0.340 C 
ATOM     26  O   UNL     1       6.634   2.835  25.328  0.00  0.00    -0.330 OA
ATOM     27  C   UNL     1       7.720   3.668  25.772  0.00  0.00    +0.191 C 
ATOM     28  C   UNL     1       7.262   4.602  26.897  0.00  0.00    +0.178 C 
ATOM     29  C   UNL     1       6.771   3.769  28.075  0.00  0.00    +0.180 C 
ATOM     30  C   UNL     1       5.681   2.797  27.625  0.00  0.00    +0.214 C 
BRANCH  30  31
ATOM     31  O   UNL     1       5.310   1.940  28.716  0.00  0.00    -0.383 OA
ATOM     32  H   UNL     1       5.094   2.510  29.475  0.00  0.00    +0.210 HD
ENDBRANCH  30  31
BRANCH  29  33
ATOM     33  O   UNL     1       6.274   4.672  29.083  0.00  0.00    -0.386 OA
ATOM     34  H   UNL     1       6.906   5.413  29.159  0.00  0.00    +0.210 HD
ENDBRANCH  29  33
BRANCH  28  35
ATOM     35  O   UNL     1       6.193   5.447  26.442  0.00  0.00    -0.386 OA
ATOM     36  H   UNL     1       5.369   5.054  26.788  0.00  0.00    +0.210 HD
ENDBRANCH  28  35
BRANCH  27  37
ATOM     37  C   UNL     1       8.200   4.507  24.575  0.00  0.00    +0.266 C 
BRANCH  37  38
ATOM     38  O   UNL     1       9.632   4.672  24.585  0.00  0.00    -0.462 OA
BRANCH  38  39
ATOM     39  C   UNL     1      10.105   5.740  23.893  0.00  0.00    +0.318 C 
ATOM     40  O   UNL     1       9.435   6.458  23.160  0.00  0.00    -0.250 OA
BRANCH  39  41
ATOM     41  C   UNL     1      11.560   5.947  24.185  0.00  0.00    +0.240 C 
BRANCH  41  42
ATOM     42  C   UNL     1      12.456   5.114  23.343  0.00  0.00    +0.316 C 
ATOM     43  O   UNL     1      13.674   5.137  23.356  0.00  0.00    -0.250 OA
BRANCH  42  44
ATOM     44  O   UNL     1      11.767   4.289  22.503  0.00  0.00    -0.480 OA
ATOM     45  H   UNL     1      12.173   4.184  21.620  0.00  0.00    +0.295 HD
ENDBRANCH  42  44
ENDBRANCH  41  42
ENDBRANCH  39  41
ENDBRANCH  38  39
ENDBRANCH  37  38
ENDBRANCH  27  37
ENDBRANCH  24  25
ENDBRANCH   6  24
BRANCH   1  46
ATOM     46  O   UNL     1       4.690  -6.511  24.949  0.00  0.00    -0.461 OA
BRANCH  46  50
ATOM     47  C   UNL     1       0.944  -8.536  25.545  0.00  0.00    +0.041 C 
ATOM     48  C   UNL     1       1.775  -8.635  24.267  0.00  0.00    +0.150 C 
ATOM     49  O   UNL     1       3.130  -8.233  24.522  0.00  0.00    -0.334 OA
ATOM     50  C   UNL     1       3.309  -6.831  24.754  0.00  0.00    +0.339 C 
ATOM     51  C   UNL     1       2.852  -6.051  23.499  0.00  0.00    +0.214 C 
ATOM     52  C   UNL     1       1.364  -6.347  23.260  0.00  0.00    +0.180 C 
ATOM     53  C   UNL     1       1.143  -7.863  23.094  0.00  0.00    +0.174 C 
BRANCH  53  54
ATOM     54  O   UNL     1       1.707  -8.326  21.859  0.00  0.00    -0.387 OA
ATOM     55  H   UNL     1       2.222  -9.137  22.066  0.00  0.00    +0.210 HD
ENDBRANCH  53  54
BRANCH  52  56
ATOM     56  O   UNL     1       0.866  -5.599  22.148  0.00  0.00    -0.386 OA
ATOM     57  H   UNL     1       0.083  -6.063  21.798  0.00  0.00    +0.210 HD
ENDBRANCH  52  56
BRANCH  51  58
ATOM     58  O   UNL     1       3.623  -6.490  22.354  0.00  0.00    -0.383 OA
ATOM     59  H   UNL     1       4.075  -5.697  22.005  0.00  0.00    +0.210 HD
ENDBRANCH  51  58
ENDBRANCH  46  50
ENDBRANCH   1  46
TORSDOF 20
ENDMDL
MODEL 2
REMARK VINA RESULT:      -7.1      2.021      5.465
REMARK  Name = 
REMARK  21 active torsions:
REMARK  status: ('A' for Active; 'I' for Inactive)
REMARK    1  A    between atoms: C_1  and  C_2
REMARK    2  A    between atoms: C_3  and  O_54
REMARK    3  A    between atoms: C_5  and  O_53
REMARK    4  A    between atoms: C_7  and  O_52
REMARK    5  A    between atoms: C_8  and  O_11
REMARK    6  A    between atoms: O_11  and  C_12
REMARK    7  A    between atoms: C_14  and  O_51
REMARK    8  A    between atoms: C_19  and  C_43
REMARK    9  A    between atoms: C_20  and  O_23
REMARK   10  A    between atoms: O_23  and  C_24
REMARK   11  A    between atoms: C_26  and  O_42
REMARK   12  A    between atoms: C_27  and  O_41
REMARK   13  A    between atoms: C_28  and  O_40
REMARK   14  A    between atoms: C_30  and  C_32
REMARK   15  A    between atoms: C_32  and  O_33
REMARK   16  A    between atoms: O_33  and  C_34
REMARK   17  A    between atoms: C_34  and  C_36
REMARK   18  A    between atoms: C_36  and  C_37
REMARK   19  A    between atoms: C_37  and  O_39
REMARK   20  A    between atoms: C_45  and  O_50
REMARK   21  A    between atoms: C_46  and  O_49
REMARK                            x       y       z     vdW  Elec       q    Type
REMARK                         _______ _______ _______ _____ _____    ______ ____
ROOT
ATOM      1  C   UNL     1       5.399  -4.242  26.931  0.00  0.00    +0.131 A 
ATOM      2  C   UNL     1       4.855  -2.950  26.913  0.00  0.00    +0.093 A 
ATOM      3  C   UNL     1       5.681  -1.842  26.675  0.00  0.00    +0.147 A 
ATOM      4  O   UNL     1       5.127  -0.585  26.693  0.00  0.00    -0.451 OA
ATOM      5  C   UNL     1       5.900   0.515  26.280  0.00  0.00    +0.181 A 
ATOM      6  C   UNL     1       7.250   0.469  26.116  0.00  0.00    +0.214 A 
ATOM      7  C   UNL     1       7.880  -0.837  26.506  0.00  0.00    +0.238 A 
ATOM      8  O   UNL     1       9.014  -0.933  26.959  0.00  0.00    -0.283 OA
ATOM      9  C   UNL     1       7.039  -2.033  26.476  0.00  0.00    +0.109 A 
ATOM     10  C   UNL     1       7.570  -3.322  26.412  0.00  0.00    +0.135 A 
ATOM     11  C   UNL     1       6.755  -4.422  26.644  0.00  0.00    +0.092 A 
ENDROOT
BRANCH   5  12
ATOM     12  C   UNL     1       5.085   1.768  26.160  0.00  0.00    +0.025 A 
ATOM     13  C   UNL     1       4.935   2.607  27.290  0.00  0.00    +0.015 A 
ATOM     14  C   UNL     1       4.244   3.824  27.217  0.00  0.00    +0.050 A 
ATOM     15  C   UNL     1       3.698   4.218  26.010  0.00  0.00    +0.158 A 
ATOM     16  C   UNL     1       3.799   3.401  24.893  0.00  0.00    +0.159 A 
ATOM     17  C   UNL     1       4.466   2.176  24.964  0.00  0.00    +0.060 A 
BRANCH  16  18
ATOM     18  O   UNL     1       3.226   3.851  23.734  0.00  0.00    -0.503 OA
ATOM     19  H   UNL     1       3.399   4.803  23.649  0.00  0.00    +0.292 HD
ENDBRANCH  16  18
BRANCH  15  20
ATOM     20  O   UNL     1       3.062   5.424  25.926  0.00  0.00    -0.503 OA
ATOM     21  H   UNL     1       3.734   6.078  26.205  0.00  0.00    +0.292 HD
ENDBRANCH  15  20
ENDBRANCH   5  12
BRANCH  10  22
ATOM     22  O   UNL     1       8.885  -3.523  26.099  0.00  0.00    -0.506 OA
ATOM     23  H   UNL     1       8.959  -4.132  25.345  0.00  0.00    +0.292 HD
ENDBRANCH  10  22
BRANCH   6  24
ATOM     24  O   UNL     1       7.993   1.573  25.672  0.00  0.00    -0.453 OA
BRANCH  24  25
ATOM     25  C   UNL     1       7.918   1.934  24.280  0.00  0.00    +0.340 C 
ATOM     26  O   UNL     1       8.277   0.832  23.446  0.00  0.00    -0.330 OA
ATOM     27  C   UNL     1       9.689   0.583  23.328  0.00  0.00    +0.191 C 
ATOM     28  C   UNL     1      10.414   1.817  22.779  0.00  0.00    +0.178 C 
ATOM     29  C   UNL     1      10.202   2.990  23.728  0.00  0.00    +0.180 C 
ATOM     30  C   UNL     1       8.710   3.227  23.961  0.00  0.00    +0.214 C 
BRANCH  30  31
ATOM     31  O   UNL     1       8.527   4.257  24.945  0.00  0.00    -0.383 OA
ATOM     32  H   UNL     1       9.000   3.981  25.749  0.00  0.00    +0.210 HD
ENDBRANCH  30  31
BRANCH  29  33
ATOM     33  O   UNL     1      10.826   4.152  23.147  0.00  0.00    -0.386 OA
ATOM     34  H   UNL     1      11.415   3.848  22.430  0.00  0.00    +0.210 HD
ENDBRANCH  29  33
BRANCH  28  35
ATOM     35  O   UNL     1       9.900   2.164  21.483  0.00  0.00    -0.386 OA
ATOM     36  H   UNL     1      10.678   2.305  20.911  0.00  0.00    +0.210 HD
ENDBRANCH  28  35
BRANCH  27  37
ATOM     37  C   UNL     1       9.887  -0.598  22.362  0.00  0.00    +0.266 C 
BRANCH  37  38
ATOM     38  O   UNL     1       8.643  -1.277  22.093  0.00  0.00    -0.462 OA
BRANCH  38  39
ATOM     39  C   UNL     1       8.511  -2.505  22.655  0.00  0.00    +0.318 C 
ATOM     40  O   UNL     1       9.328  -3.031  23.402  0.00  0.00    -0.250 OA
BRANCH  39  41
ATOM     41  C   UNL     1       7.200  -3.117  22.267  0.00  0.00    +0.240 C 
BRANCH  41  42
ATOM     42  C   UNL     1       6.040  -2.536  22.990  0.00  0.00    +0.316 C 
ATOM     43  O   UNL     1       5.075  -3.154  23.408  0.00  0.00    -0.250 OA
BRANCH  42  44
ATOM     44  O   UNL     1       6.142  -1.185  23.146  0.00  0.00    -0.480 OA
ATOM     45  H   UNL     1       5.562  -0.815  23.839  0.00  0.00    +0.295 HD
ENDBRANCH  42  44
ENDBRANCH  41  42
ENDBRANCH  39  41
ENDBRANCH  38  39
ENDBRANCH  37  38
ENDBRANCH  27  37
ENDBRANCH  24  25
ENDBRANCH   6  24
BRANCH   1  46
ATOM     46  O   UNL     1       4.758  -5.412  27.226  0.00  0.00    -0.461 OA
BRANCH  46  50
ATOM     47  C   UNL     1       0.551  -6.137  26.712  0.00  0.00    +0.041 C 
ATOM     48  C   UNL     1       1.627  -7.210  26.560  0.00  0.00    +0.150 C 
ATOM     49  O   UNL     1       2.841  -6.793  27.205  0.00  0.00    -0.334 OA
ATOM     50  C   UNL     1       3.539  -5.730  26.547  0.00  0.00    +0.339 C 
ATOM     51  C   UNL     1       3.940  -6.196  25.127  0.00  0.00    +0.214 C 
ATOM     52  C   UNL     1       2.660  -6.530  24.348  0.00  0.00    +0.180 C 
ATOM     53  C   UNL     1       1.852  -7.613  25.090  0.00  0.00    +0.174 C 
BRANCH  53  54
ATOM     54  O   UNL     1       2.530  -8.876  25.041  0.00  0.00    -0.387 OA
ATOM     55  H   UNL     1       3.435  -8.729  25.394  0.00  0.00    +0.210 HD
ENDBRANCH  53  54
BRANCH  52  56
ATOM     56  O   UNL     1       2.963  -6.904  23.002  0.00  0.00    -0.386 OA
ATOM     57  H   UNL     1       3.333  -7.806  23.014  0.00  0.00    +0.210 HD
ENDBRANCH  52  56
BRANCH  51  58
ATOM     58  O   UNL     1       4.769  -7.380  25.227  0.00  0.00    -0.383 OA
ATOM     59  H   UNL     1       4.546  -7.938  24.456  0.00  0.00    +0.210 HD
ENDBRANCH  51  58
ENDBRANCH  46  50
ENDBRANCH   1  46
TORSDOF 20
ENDMDL
MODEL 3
REMARK VINA RESULT:      -6.9      2.298      9.275
REMARK  Name = 
REMARK  21 active torsions:
REMARK  status: ('A' for Active; 'I' for Inactive)
REMARK    1  A    between atoms: C_1  and  C_2
REMARK    2  A    between atoms: C_3  and  O_54
REMARK    3  A    between atoms: C_5  and  O_53
REMARK    4  A    between atoms: C_7  and  O_52
REMARK    5  A    between atoms: C_8  and  O_11
REMARK    6  A    between atoms: O_11  and  C_12
REMARK    7  A    between atoms: C_14  and  O_51
REMARK    8  A    between atoms: C_19  and  C_43
REMARK    9  A    between atoms: C_20  and  O_23
REMARK   10  A    between atoms: O_23  and  C_24
REMARK   11  A    between atoms: C_26  and  O_42
REMARK   12  A    between atoms: C_27  and  O_41
REMARK   13  A    between atoms: C_28  and  O_40
REMARK   14  A    between atoms: C_30  and  C_32
REMARK   15  A    between atoms: C_32  and  O_33
REMARK   16  A    between atoms: O_33  and  C_34
REMARK   17  A    between atoms: C_34  and  C_36
REMARK   18  A    between atoms: C_36  and  C_37
REMARK   19  A    between atoms: C_37  and  O_39
REMARK   20  A    between atoms: C_45  and  O_50
REMARK   21  A    between atoms: C_46  and  O_49
REMARK                            x       y       z     vdW  Elec       q    Type
REMARK                         _______ _______ _______ _____ _____    ______ ____
ROOT
ATOM      1  C   UNL     1       5.894   2.947  24.800  0.00  0.00    +0.131 A 
ATOM      2  C   UNL     1       6.038   1.702  24.175  0.00  0.00    +0.093 A 
ATOM      3  C   UNL     1       5.643   0.531  24.838  0.00  0.00    +0.147 A 
ATOM      4  O   UNL     1       5.823  -0.680  24.215  0.00  0.00    -0.451 OA
ATOM      5  C   UNL     1       5.270  -1.840  24.787  0.00  0.00    +0.181 A 
ATOM      6  C   UNL     1       4.793  -1.898  26.060  0.00  0.00    +0.214 A 
ATOM      7  C   UNL     1       4.989  -0.641  26.857  0.00  0.00    +0.238 A 
ATOM      8  O   UNL     1       5.161  -0.629  28.070  0.00  0.00    -0.283 OA
ATOM      9  C   UNL     1       5.126   0.615  26.122  0.00  0.00    +0.109 A 
ATOM     10  C   UNL     1       4.905   1.859  26.714  0.00  0.00    +0.135 A 
ATOM     11  C   UNL     1       5.292   3.021  26.059  0.00  0.00    +0.092 A 
ENDROOT
BRANCH   5  12
ATOM     12  C   UNL     1       5.378  -3.027  23.878  0.00  0.00    +0.025 A 
ATOM     13  C   UNL     1       6.521  -3.168  23.055  0.00  0.00    +0.015 A 
ATOM     14  C   UNL     1       6.708  -4.292  22.239  0.00  0.00    +0.050 A 
ATOM     15  C   UNL     1       5.753  -5.291  22.240  0.00  0.00    +0.158 A 
ATOM     16  C   UNL     1       4.605  -5.166  23.010  0.00  0.00    +0.159 A 
ATOM     17  C   UNL     1       4.402  -4.039  23.808  0.00  0.00    +0.060 A 
BRANCH  16  18
ATOM     18  O   UNL     1       3.699  -6.191  22.954  0.00  0.00    -0.503 OA
ATOM     19  H   UNL     1       3.911  -6.754  22.191  0.00  0.00    +0.292 HD
ENDBRANCH  16  18
BRANCH  15  20
ATOM     20  O   UNL     1       5.954  -6.408  21.479  0.00  0.00    -0.503 OA
ATOM     21  H   UNL     1       6.839  -6.732  21.743  0.00  0.00    +0.292 HD
ENDBRANCH  15  20
ENDBRANCH   5  12
BRANCH  10  22
ATOM     22  O   UNL     1       4.287   1.956  27.930  0.00  0.00    -0.506 OA
ATOM     23  H   UNL     1       4.280   2.880  28.228  0.00  0.00    +0.292 HD
ENDBRANCH  10  22
BRANCH   6  24
ATOM     24  O   UNL     1       4.216  -3.060  26.595  0.00  0.00    -0.453 OA
BRANCH  24  25
ATOM     25  C   UNL     1       4.922  -3.757  27.638  0.00  0.00    +0.340 C 
ATOM     26  O   UNL     1       6.330  -3.548  27.531  0.00  0.00    -0.330 OA
ATOM     27  C   UNL     1       6.996  -4.333  26.527  0.00  0.00    +0.191 C 
ATOM     28  C   UNL     1       6.782  -5.830  26.779  0.00  0.00    +0.178 C 
ATOM     29  C   UNL     1       5.291  -6.140  26.735  0.00  0.00    +0.180 C 
ATOM     30  C   UNL     1       4.530  -5.254  27.720  0.00  0.00    +0.214 C 
BRANCH  30  31
ATOM     31  O   UNL     1       3.117  -5.474  27.585  0.00  0.00    -0.383 OA
ATOM     32  H   UNL     1       2.981  -6.018  26.790  0.00  0.00    +0.210 HD
ENDBRANCH  30  31
BRANCH  29  33
ATOM     33  O   UNL     1       5.117  -7.535  27.053  0.00  0.00    -0.386 OA
ATOM     34  H   UNL     1       4.439  -7.898  26.450  0.00  0.00    +0.210 HD
ENDBRANCH  29  33
BRANCH  28  35
ATOM     35  O   UNL     1       7.300  -6.199  28.067  0.00  0.00    -0.386 OA
ATOM     36  H   UNL     1       6.753  -6.947  28.375  0.00  0.00    +0.210 HD
ENDBRANCH  28  35
BRANCH  27  37
ATOM     37  C   UNL     1       8.499  -4.014  26.589  0.00  0.00    +0.266 C 
BRANCH  37  38
ATOM     38  O   UNL     1       8.900  -3.140  25.514  0.00  0.00    -0.462 OA
BRANCH  38  39
ATOM     39  C   UNL     1       8.856  -1.812  25.789  0.00  0.00    +0.318 C 
ATOM     40  O   UNL     1       8.565  -1.326  26.875  0.00  0.00    -0.250 OA
BRANCH  39  41
ATOM     41  C   UNL     1       9.259  -1.017  24.584  0.00  0.00    +0.240 C 
BRANCH  41  42
ATOM     42  C   UNL     1       9.851   0.303  24.918  0.00  0.00    +0.316 C 
ATOM     43  O   UNL     1      10.947   0.704  24.568  0.00  0.00    -0.250 OA
BRANCH  42  44
ATOM     44  O   UNL     1       9.030   1.064  25.698  0.00  0.00    -0.480 OA
ATOM     45  H   UNL     1       8.135   0.692  25.822  0.00  0.00    +0.295 HD
ENDBRANCH  42  44
ENDBRANCH  41  42
ENDBRANCH  39  41
ENDBRANCH  38  39
ENDBRANCH  37  38
ENDBRANCH  27  37
ENDBRANCH  24  25
ENDBRANCH   6  24
BRANCH   1  46
ATOM     46  O   UNL     1       6.300   4.166  24.333  0.00  0.00    -0.461 OA
BRANCH  46  50
ATOM     47  C   UNL     1       9.243   6.642  26.256  0.00  0.00    +0.041 C 
ATOM     48  C   UNL     1       8.995   6.624  24.749  0.00  0.00    +0.150 C 
ATOM     49  O   UNL     1       7.705   6.061  24.463  0.00  0.00    -0.334 OA
ATOM     50  C   UNL     1       7.598   4.651  24.689  0.00  0.00    +0.339 C 
ATOM     51  C   UNL     1       8.605   3.918  23.772  0.00  0.00    +0.214 C 
ATOM     52  C   UNL     1      10.021   4.391  24.131  0.00  0.00    +0.180 C 
ATOM     53  C   UNL     1      10.127   5.921  23.976  0.00  0.00    +0.174 C 
BRANCH  53  54
ATOM     54  O   UNL     1      10.065   6.297  22.593  0.00  0.00    -0.387 OA
ATOM     55  H   UNL     1      10.876   5.946  22.164  0.00  0.00    +0.210 HD
ENDBRANCH  53  54
BRANCH  52  56
ATOM     56  O   UNL     1      11.004   3.696  23.359  0.00  0.00    -0.386 OA
ATOM     57  H   UNL     1      11.804   3.597  23.907  0.00  0.00    +0.210 HD
ENDBRANCH  52  56
BRANCH  51  58
ATOM     58  O   UNL     1       8.321   4.245  22.389  0.00  0.00    -0.383 OA
ATOM     59  H   UNL     1       8.942   3.719  21.848  0.00  0.00    +0.210 HD
ENDBRANCH  51  58
ENDBRANCH  46  50
ENDBRANCH   1  46
TORSDOF 20
ENDMDL
MODEL 4
REMARK VINA RESULT:      -6.6      2.660      5.385
REMARK  Name = 
REMARK  21 active torsions:
REMARK  status: ('A' for Active; 'I' for Inactive)
REMARK    1  A    between atoms: C_1  and  C_2
REMARK    2  A    between atoms: C_3  and  O_54
REMARK    3  A    between atoms: C_5  and  O_53
REMARK    4  A    between atoms: C_7  and  O_52
REMARK    5  A    between atoms: C_8  and  O_11
REMARK    6  A    between atoms: O_11  and  C_12
REMARK    7  A    between atoms: C_14  and  O_51
REMARK    8  A    between atoms: C_19  and  C_43
REMARK    9  A    between atoms: C_20  and  O_23
REMARK   10  A    between atoms: O_23  and  C_24
REMARK   11  A    between atoms: C_26  and  O_42
REMARK   12  A    between atoms: C_27  and  O_41
REMARK   13  A    between atoms: C_28  and  O_40
REMARK   14  A    between atoms: C_30  and  C_32
REMARK   15  A    between atoms: C_32  and  O_33
REMARK   16  A    between atoms: O_33  and  C_34
REMARK   17  A    between atoms: C_34  and  C_36
REMARK   18  A    between atoms: C_36  and  C_37
REMARK   19  A    between atoms: C_37  and  O_39
REMARK   20  A    between atoms: C_45  and  O_50
REMARK   21  A    between atoms: C_46  and  O_49
REMARK                            x       y       z     vdW  Elec       q    Type
REMARK                         _______ _______ _______ _____ _____    ______ ____
ROOT
ATOM      1  C   UNL     1       6.210  -2.498  26.093  0.00  0.00    +0.131 A 
ATOM      2  C   UNL     1       5.284  -1.572  25.594  0.00  0.00    +0.093 A 
ATOM      3  C   UNL     1       5.618  -0.211  25.523  0.00  0.00    +0.147 A 
ATOM      4  O   UNL     1       4.681   0.679  25.058  0.00  0.00    -0.451 OA
ATOM      5  C   UNL     1       5.058   2.012  24.811  0.00  0.00    +0.181 A 
ATOM      6  C   UNL     1       6.223   2.560  25.253  0.00  0.00    +0.214 A 
ATOM      7  C   UNL     1       7.048   1.653  26.120  0.00  0.00    +0.238 A 
ATOM      8  O   UNL     1       7.770   2.054  27.024  0.00  0.00    -0.283 OA
ATOM      9  C   UNL     1       6.862   0.211  25.966  0.00  0.00    +0.109 A 
ATOM     10  C   UNL     1       7.815  -0.718  26.386  0.00  0.00    +0.135 A 
ATOM     11  C   UNL     1       7.489  -2.066  26.455  0.00  0.00    +0.092 A 
ENDROOT
BRANCH   5  12
ATOM     12  C   UNL     1       3.981   2.787  24.114  0.00  0.00    +0.025 A 
ATOM     13  C   UNL     1       2.903   3.306  24.869  0.00  0.00    +0.015 A 
ATOM     14  C   UNL     1       1.905   4.097  24.282  0.00  0.00    +0.050 A 
ATOM     15  C   UNL     1       1.978   4.380  22.931  0.00  0.00    +0.158 A 
ATOM     16  C   UNL     1       3.004   3.856  22.157  0.00  0.00    +0.159 A 
ATOM     17  C   UNL     1       3.988   3.049  22.731  0.00  0.00    +0.060 A 
BRANCH  16  18
ATOM     18  O   UNL     1       3.007   4.171  20.825  0.00  0.00    -0.503 OA
ATOM     19  H   UNL     1       3.928   4.259  20.527  0.00  0.00    +0.292 HD
ENDBRANCH  16  18
BRANCH  15  20
ATOM     20  O   UNL     1       1.031   5.186  22.365  0.00  0.00    -0.503 OA
ATOM     21  H   UNL     1       0.307   4.578  22.114  0.00  0.00    +0.292 HD
ENDBRANCH  15  20
ENDBRANCH   5  12
BRANCH  10  22
ATOM     22  O   UNL     1       9.082  -0.322  26.711  0.00  0.00    -0.506 OA
ATOM     23  H   UNL     1       9.375  -0.776  27.518  0.00  0.00    +0.292 HD
ENDBRANCH  10  22
BRANCH   6  24
ATOM     24  O   UNL     1       6.589   3.883  24.965  0.00  0.00    -0.453 OA
BRANCH  24  25
ATOM     25  C   UNL     1       7.395   4.132  23.798  0.00  0.00    +0.340 C 
ATOM     26  O   UNL     1       8.288   3.047  23.552  0.00  0.00    -0.330 OA
ATOM     27  C   UNL     1       9.463   3.015  24.381  0.00  0.00    +0.191 C 
ATOM     28  C   UNL     1      10.272   4.307  24.226  0.00  0.00    +0.178 C 
ATOM     29  C   UNL     1       9.411   5.494  24.641  0.00  0.00    +0.180 C 
ATOM     30  C   UNL     1       8.103   5.509  23.851  0.00  0.00    +0.214 C 
BRANCH  30  31
ATOM     31  O   UNL     1       7.253   6.562  24.333  0.00  0.00    -0.383 OA
ATOM     32  H   UNL     1       6.842   6.251  25.158  0.00  0.00    +0.210 HD
ENDBRANCH  30  31
BRANCH  29  33
ATOM     33  O   UNL     1      10.170   6.697  24.410  0.00  0.00    -0.386 OA
ATOM     34  H   UNL     1       9.538   7.418  24.222  0.00  0.00    +0.210 HD
ENDBRANCH  29  33
BRANCH  28  35
ATOM     35  O   UNL     1      10.681   4.480  22.860  0.00  0.00    -0.386 OA
ATOM     36  H   UNL     1       9.902   4.828  22.385  0.00  0.00    +0.210 HD
ENDBRANCH  28  35
BRANCH  27  37
ATOM     37  C   UNL     1      10.324   1.817  23.945  0.00  0.00    +0.266 C 
BRANCH  37  38
ATOM     38  O   UNL     1       9.512   0.666  23.636  0.00  0.00    -0.462 OA
BRANCH  38  39
ATOM     39  C   UNL     1       9.680   0.145  22.393  0.00  0.00    +0.318 C 
ATOM     40  O   UNL     1       9.413   0.721  21.346  0.00  0.00    -0.250 OA
BRANCH  39  41
ATOM     41  C   UNL     1      10.280  -1.225  22.480  0.00  0.00    +0.240 C 
BRANCH  41  42
ATOM     42  C   UNL     1       9.465  -2.178  23.276  0.00  0.00    +0.316 C 
ATOM     43  O   UNL     1       9.898  -3.046  24.014  0.00  0.00    -0.250 OA
BRANCH  42  44
ATOM     44  O   UNL     1       8.125  -2.000  23.095  0.00  0.00    -0.480 OA
ATOM     45  H   UNL     1       7.773  -1.173  23.479  0.00  0.00    +0.295 HD
ENDBRANCH  42  44
ENDBRANCH  41  42
ENDBRANCH  39  41
ENDBRANCH  38  39
ENDBRANCH  37  38
ENDBRANCH  27  37
ENDBRANCH  24  25
ENDBRANCH   6  24
BRANCH   1  46
ATOM     46  O   UNL     1       6.020  -3.834  26.306  0.00  0.00    -0.461 OA
BRANCH  46  50
ATOM     47  C   UNL     1       7.508  -5.469  22.619  0.00  0.00    +0.041 C 
ATOM     48  C   UNL     1       6.109  -4.881  22.788  0.00  0.00    +0.150 C 
ATOM     49  O   UNL     1       6.061  -4.041  23.953  0.00  0.00    -0.334 OA
ATOM     50  C   UNL     1       6.124  -4.738  25.202  0.00  0.00    +0.339 C 
ATOM     51  C   UNL     1       4.915  -5.696  25.306  0.00  0.00    +0.214 C 
ATOM     52  C   UNL     1       4.994  -6.703  24.149  0.00  0.00    +0.180 C 
ATOM     53  C   UNL     1       5.013  -5.963  22.798  0.00  0.00    +0.174 C 
BRANCH  53  54
ATOM     54  O   UNL     1       3.741  -5.356  22.533  0.00  0.00    -0.387 OA
ATOM     55  H   UNL     1       3.159  -5.566  23.297  0.00  0.00    +0.210 HD
ENDBRANCH  53  54
BRANCH  52  56
ATOM     56  O   UNL     1       3.935  -7.661  24.231  0.00  0.00    -0.386 OA
ATOM     57  H   UNL     1       4.141  -8.278  24.956  0.00  0.00    +0.210 HD
ENDBRANCH  52  56
BRANCH  51  58
ATOM     58  O   UNL     1       3.688  -4.933  25.199  0.00  0.00    -0.383 OA
ATOM     59  H   UNL     1       3.282  -4.937  26.089  0.00  0.00    +0.210 HD
ENDBRANCH  51  58
ENDBRANCH  46  50
ENDBRANCH   1  46
TORSDOF 20
ENDMDL
MODEL 5
REMARK VINA RESULT:      -6.6      1.529      2.982
REMARK  Name = 
REMARK  21 active torsions:
REMARK  status: ('A' for Active; 'I' for Inactive)
REMARK    1  A    between atoms: C_1  and  C_2
REMARK    2  A    between atoms: C_3  and  O_54
REMARK    3  A    between atoms: C_5  and  O_53
REMARK    4  A    between atoms: C_7  and  O_52
REMARK    5  A    between atoms: C_8  and  O_11
REMARK    6  A    between atoms: O_11  and  C_12
REMARK    7  A    between atoms: C_14  and  O_51
REMARK    8  A    between atoms: C_19  and  C_43
REMARK    9  A    between atoms: C_20  and  O_23
REMARK   10  A    between atoms: O_23  and  C_24
REMARK   11  A    between atoms: C_26  and  O_42
REMARK   12  A    between atoms: C_27  and  O_41
REMARK   13  A    between atoms: C_28  and  O_40
REMARK   14  A    between atoms: C_30  and  C_32
REMARK   15  A    between atoms: C_32  and  O_33
REMARK   16  A    between atoms: O_33  and  C_34
REMARK   17  A    between atoms: C_34  and  C_36
REMARK   18  A    between atoms: C_36  and  C_37
REMARK   19  A    between atoms: C_37  and  O_39
REMARK   20  A    between atoms: C_45  and  O_50
REMARK   21  A    between atoms: C_46  and  O_49
REMARK                            x       y       z     vdW  Elec       q    Type
REMARK                         _______ _______ _______ _____ _____    ______ ____
ROOT
ATOM      1  C   UNL     1       5.211  -5.136  25.312  0.00  0.00    +0.131 A 
ATOM      2  C   UNL     1       5.878  -4.123  24.610  0.00  0.00    +0.093 A 
ATOM      3  C   UNL     1       6.064  -2.864  25.199  0.00  0.00    +0.147 A 
ATOM      4  O   UNL     1       6.694  -1.880  24.477  0.00  0.00    -0.451 OA
ATOM      5  C   UNL     1       7.048  -0.676  25.114  0.00  0.00    +0.181 A 
ATOM      6  C   UNL     1       6.573  -0.300  26.332  0.00  0.00    +0.214 A 
ATOM      7  C   UNL     1       5.551  -1.233  26.917  0.00  0.00    +0.238 A 
ATOM      8  O   UNL     1       4.639  -0.865  27.647  0.00  0.00    -0.283 OA
ATOM      9  C   UNL     1       5.568  -2.625  26.471  0.00  0.00    +0.109 A 
ATOM     10  C   UNL     1       4.977  -3.655  27.204  0.00  0.00    +0.135 A 
ATOM     11  C   UNL     1       4.794  -4.904  26.626  0.00  0.00    +0.092 A 
ENDROOT
BRANCH   5  12
ATOM     12  C   UNL     1       7.907   0.193  24.246  0.00  0.00    +0.025 A 
ATOM     13  C   UNL     1       9.198   0.559  24.695  0.00  0.00    +0.015 A 
ATOM     14  C   UNL     1      10.071   1.311  23.897  0.00  0.00    +0.050 A 
ATOM     15  C   UNL     1       9.662   1.702  22.636  0.00  0.00    +0.158 A 
ATOM     16  C   UNL     1       8.389   1.389  22.181  0.00  0.00    +0.159 A 
ATOM     17  C   UNL     1       7.506   0.660  22.980  0.00  0.00    +0.060 A 
BRANCH  16  18
ATOM     18  O   UNL     1       8.050   1.817  20.926  0.00  0.00    -0.503 OA
ATOM     19  H   UNL     1       8.836   1.771  20.356  0.00  0.00    +0.292 HD
ENDBRANCH  16  18
BRANCH  15  20
ATOM     20  O   UNL     1      10.527   2.398  21.839  0.00  0.00    -0.503 OA
ATOM     21  H   UNL     1      10.289   3.337  21.976  0.00  0.00    +0.292 HD
ENDBRANCH  15  20
ENDBRANCH   5  12
BRANCH  10  22
ATOM     22  O   UNL     1       4.594  -3.460  28.501  0.00  0.00    -0.506 OA
ATOM     23  H   UNL     1       4.306  -2.541  28.629  0.00  0.00    +0.292 HD
ENDBRANCH  10  22
BRANCH   6  24
ATOM     24  O   UNL     1       6.967   0.891  26.959  0.00  0.00    -0.453 OA
BRANCH  24  25
ATOM     25  C   UNL     1       6.061   2.010  26.936  0.00  0.00    +0.340 C 
ATOM     26  O   UNL     1       6.250   2.796  25.760  0.00  0.00    -0.330 OA
ATOM     27  C   UNL     1       7.381   3.685  25.787  0.00  0.00    +0.191 C 
ATOM     28  C   UNL     1       7.277   4.658  26.967  0.00  0.00    +0.178 C 
ATOM     29  C   UNL     1       7.243   3.869  28.270  0.00  0.00    +0.180 C 
ATOM     30  C   UNL     1       6.113   2.840  28.243  0.00  0.00    +0.214 C 
BRANCH  30  31
ATOM     31  O   UNL     1       6.165   2.027  29.425  0.00  0.00    -0.383 OA
ATOM     32  H   UNL     1       5.249   1.796  29.662  0.00  0.00    +0.210 HD
ENDBRANCH  30  31
BRANCH  29  33
ATOM     33  O   UNL     1       7.065   4.804  29.353  0.00  0.00    -0.386 OA
ATOM     34  H   UNL     1       6.240   5.300  29.188  0.00  0.00    +0.210 HD
ENDBRANCH  29  33
BRANCH  28  35
ATOM     35  O   UNL     1       6.080   5.444  26.863  0.00  0.00    -0.386 OA
ATOM     36  H   UNL     1       6.336   6.273  26.415  0.00  0.00    +0.210 HD
ENDBRANCH  28  35
BRANCH  27  37
ATOM     37  C   UNL     1       7.398   4.479  24.470  0.00  0.00    +0.266 C 
BRANCH  37  38
ATOM     38  O   UNL     1       6.068   4.868  24.068  0.00  0.00    -0.462 OA
BRANCH  38  39
ATOM     39  C   UNL     1       5.655   4.392  22.866  0.00  0.00    +0.318 C 
ATOM     40  O   UNL     1       6.393   3.986  21.977  0.00  0.00    -0.250 OA
BRANCH  39  41
ATOM     41  C   UNL     1       4.158   4.393  22.794  0.00  0.00    +0.240 C 
BRANCH  41  42
ATOM     42  C   UNL     1       3.541   3.146  23.314  0.00  0.00    +0.316 C 
ATOM     43  O   UNL     1       2.347   2.938  23.441  0.00  0.00    -0.250 OA
BRANCH  42  44
ATOM     44  O   UNL     1       4.468   2.210  23.667  0.00  0.00    -0.480 OA
ATOM     45  H   UNL     1       4.089   1.366  23.982  0.00  0.00    +0.295 HD
ENDBRANCH  42  44
ENDBRANCH  41  42
ENDBRANCH  39  41
ENDBRANCH  38  39
ENDBRANCH  37  38
ENDBRANCH  27  37
ENDBRANCH  24  25
ENDBRANCH   6  24
BRANCH   1  46
ATOM     46  O   UNL     1       4.875  -6.381  24.860  0.00  0.00    -0.461 OA
BRANCH  46  50
ATOM     47  C   UNL     1       1.184  -8.450  25.627  0.00  0.00    +0.041 C 
ATOM     48  C   UNL     1       1.966  -8.555  24.319  0.00  0.00    +0.150 C 
ATOM     49  O   UNL     1       3.325  -8.130  24.516  0.00  0.00    -0.334 OA
ATOM     50  C   UNL     1       3.492  -6.724  24.723  0.00  0.00    +0.339 C 
ATOM     51  C   UNL     1       2.976  -5.967  23.477  0.00  0.00    +0.214 C 
ATOM     52  C   UNL     1       1.485  -6.287  23.299  0.00  0.00    +0.180 C 
ATOM     53  C   UNL     1       1.279  -7.808  23.161  0.00  0.00    +0.174 C 
BRANCH  53  54
ATOM     54  O   UNL     1       1.802  -8.280  21.912  0.00  0.00    -0.387 OA
ATOM     55  H   UNL     1       2.701  -7.895  21.814  0.00  0.00    +0.210 HD
ENDBRANCH  53  54
BRANCH  52  56
ATOM     56  O   UNL     1       0.934  -5.561  22.198  0.00  0.00    -0.386 OA
ATOM     57  H   UNL     1       0.607  -6.205  21.544  0.00  0.00    +0.210 HD
ENDBRANCH  52  56
BRANCH  51  58
ATOM     58  O   UNL     1       3.709  -6.411  22.308  0.00  0.00    -0.383 OA
ATOM     59  H   UNL     1       3.182  -7.131  21.910  0.00  0.00    +0.210 HD
ENDBRANCH  51  58
ENDBRANCH  46  50
ENDBRANCH   1  46
TORSDOF 20
ENDMDL
MODEL 6
REMARK VINA RESULT:      -6.4      2.128      4.742
REMARK  Name = 
REMARK  21 active torsions:
REMARK  status: ('A' for Active; 'I' for Inactive)
REMARK    1  A    between atoms: C_1  and  C_2
REMARK    2  A    between atoms: C_3  and  O_54
REMARK    3  A    between atoms: C_5  and  O_53
REMARK    4  A    between atoms: C_7  and  O_52
REMARK    5  A    between atoms: C_8  and  O_11
REMARK    6  A    between atoms: O_11  and  C_12
REMARK    7  A    between atoms: C_14  and  O_51
REMARK    8  A    between atoms: C_19  and  C_43
REMARK    9  A    between atoms: C_20  and  O_23
REMARK   10  A    between atoms: O_23  and  C_24
REMARK   11  A    between atoms: C_26  and  O_42
REMARK   12  A    between atoms: C_27  and  O_41
REMARK   13  A    between atoms: C_28  and  O_40
REMARK   14  A    between atoms: C_30  and  C_32
REMARK   15  A    between atoms: C_32  and  O_33
REMARK   16  A    between atoms: O_33  and  C_34
REMARK   17  A    between atoms: C_34  and  C_36
REMARK   18  A    between atoms: C_36  and  C_37
REMARK   19  A    between atoms: C_37  and  O_39
REMARK   20  A    between atoms: C_45  and  O_50
REMARK   21  A    between atoms: C_46  and  O_49
REMARK                            x       y       z     vdW  Elec       q    Type
REMARK                         _______ _______ _______ _____ _____    ______ ____
ROOT
ATOM      1  C   UNL     1       6.154  -3.447  24.529  0.00  0.00    +0.131 A 
ATOM      2  C   UNL     1       5.287  -2.361  24.707  0.00  0.00    +0.093 A 
ATOM      3  C   UNL     1       5.800  -1.096  25.031  0.00  0.00    +0.147 A 
ATOM      4  O   UNL     1       4.927  -0.055  25.229  0.00  0.00    -0.451 OA
ATOM      5  C   UNL     1       5.430   1.251  25.374  0.00  0.00    +0.181 A 
ATOM      6  C   UNL     1       6.742   1.532  25.601  0.00  0.00    +0.214 A 
ATOM      7  C   UNL     1       7.614   0.323  25.786  0.00  0.00    +0.238 A 
ATOM      8  O   UNL     1       8.607   0.309  26.503  0.00  0.00    -0.283 OA
ATOM      9  C   UNL     1       7.168  -0.934  25.189  0.00  0.00    +0.109 A 
ATOM     10  C   UNL     1       8.039  -1.994  24.932  0.00  0.00    +0.135 A 
ATOM     11  C   UNL     1       7.535  -3.247  24.609  0.00  0.00    +0.092 A 
ENDROOT
BRANCH   5  12
ATOM     12  C   UNL     1       4.342   2.282  25.370  0.00  0.00    +0.025 A 
ATOM     13  C   UNL     1       3.835   2.758  26.602  0.00  0.00    +0.015 A 
ATOM     14  C   UNL     1       2.868   3.772  26.659  0.00  0.00    +0.050 A 
ATOM     15  C   UNL     1       2.401   4.323  25.481  0.00  0.00    +0.158 A 
ATOM     16  C   UNL     1       2.853   3.853  24.256  0.00  0.00    +0.159 A 
ATOM     17  C   UNL     1       3.798   2.828  24.192  0.00  0.00    +0.060 A 
BRANCH  16  18
ATOM     18  O   UNL     1       2.339   4.440  23.132  0.00  0.00    -0.503 OA
ATOM     19  H   UNL     1       2.533   5.392  23.159  0.00  0.00    +0.292 HD
ENDBRANCH  16  18
BRANCH  15  20
ATOM     20  O   UNL     1       1.490   5.341  25.535  0.00  0.00    -0.503 OA
ATOM     21  H   UNL     1       0.752   4.985  26.069  0.00  0.00    +0.292 HD
ENDBRANCH  15  20
ENDBRANCH   5  12
BRANCH  10  22
ATOM     22  O   UNL     1       9.393  -1.812  24.970  0.00  0.00    -0.506 OA
ATOM     23  H   UNL     1       9.785  -2.375  25.658  0.00  0.00    +0.292 HD
ENDBRANCH  10  22
BRANCH   6  24
ATOM     24  O   UNL     1       7.223   2.845  25.710  0.00  0.00    -0.453 OA
BRANCH  24  25
ATOM     25  C   UNL     1       7.365   3.624  24.508  0.00  0.00    +0.340 C 
ATOM     26  O   UNL     1       8.475   3.170  23.733  0.00  0.00    -0.330 OA
ATOM     27  C   UNL     1       9.767   3.605  24.193  0.00  0.00    +0.191 C 
ATOM     28  C   UNL     1       9.842   5.136  24.233  0.00  0.00    +0.178 C 
ATOM     29  C   UNL     1       8.778   5.668  25.185  0.00  0.00    +0.180 C 
ATOM     30  C   UNL     1       7.397   5.147  24.789  0.00  0.00    +0.214 C 
BRANCH  30  31
ATOM     31  O   UNL     1       6.422   5.560  25.760  0.00  0.00    -0.383 OA
ATOM     32  H   UNL     1       6.717   6.413  26.126  0.00  0.00    +0.210 HD
ENDBRANCH  30  31
BRANCH  29  33
ATOM     33  O   UNL     1       8.820   7.108  25.141  0.00  0.00    -0.386 OA
ATOM     34  H   UNL     1       8.102   7.447  25.710  0.00  0.00    +0.210 HD
ENDBRANCH  29  33
BRANCH  28  35
ATOM     35  O   UNL     1       9.614   5.682  22.924  0.00  0.00    -0.386 OA
ATOM     36  H   UNL     1      10.402   5.454  22.394  0.00  0.00    +0.210 HD
ENDBRANCH  28  35
BRANCH  27  37
ATOM     37  C   UNL     1      10.828   3.066  23.219  0.00  0.00    +0.266 C 
BRANCH  37  38
ATOM     38  O   UNL     1      10.239   2.229  22.204  0.00  0.00    -0.462 OA
BRANCH  38  39
ATOM     39  C   UNL     1      10.138   0.911  22.515  0.00  0.00    +0.318 C 
ATOM     40  O   UNL     1      10.569   0.393  23.538  0.00  0.00    -0.250 OA
BRANCH  39  41
ATOM     41  C   UNL     1       9.383   0.181  21.446  0.00  0.00    +0.240 C 
BRANCH  41  42
ATOM     42  C   UNL     1       9.320  -1.287  21.666  0.00  0.00    +0.316 C 
ATOM     43  O   UNL     1       8.318  -1.977  21.598  0.00  0.00    -0.250 OA
BRANCH  42  44
ATOM     44  O   UNL     1      10.535  -1.823  21.978  0.00  0.00    -0.480 OA
ATOM     45  H   UNL     1      11.077  -2.068  21.203  0.00  0.00    +0.295 HD
ENDBRANCH  42  44
ENDBRANCH  41  42
ENDBRANCH  39  41
ENDBRANCH  38  39
ENDBRANCH  37  38
ENDBRANCH  27  37
ENDBRANCH  24  25
ENDBRANCH   6  24
BRANCH   1  46
ATOM     46  O   UNL     1       5.819  -4.751  24.296  0.00  0.00    -0.461 OA
BRANCH  46  50
ATOM     47  C   UNL     1       2.766  -6.254  26.925  0.00  0.00    +0.041 C 
ATOM     48  C   UNL     1       3.369  -7.053  25.771  0.00  0.00    +0.150 C 
ATOM     49  O   UNL     1       4.626  -6.482  25.373  0.00  0.00    -0.334 OA
ATOM     50  C   UNL     1       4.529  -5.223  24.700  0.00  0.00    +0.339 C 
ATOM     51  C   UNL     1       3.706  -5.407  23.404  0.00  0.00    +0.214 C 
ATOM     52  C   UNL     1       2.301  -5.894  23.788  0.00  0.00    +0.180 C 
ATOM     53  C   UNL     1       2.393  -7.207  24.590  0.00  0.00    +0.174 C 
BRANCH  53  54
ATOM     54  O   UNL     1       2.827  -8.285  23.750  0.00  0.00    -0.387 OA
ATOM     55  H   UNL     1       3.391  -7.892  23.048  0.00  0.00    +0.210 HD
ENDBRANCH  53  54
BRANCH  52  56
ATOM     56  O   UNL     1       1.469  -6.019  22.632  0.00  0.00    -0.386 OA
ATOM     57  H   UNL     1       1.015  -5.168  22.493  0.00  0.00    +0.210 HD
ENDBRANCH  52  56
BRANCH  51  58
ATOM     58  O   UNL     1       4.348  -6.397  22.564  0.00  0.00    -0.383 OA
ATOM     59  H   UNL     1       5.154  -5.974  22.206  0.00  0.00    +0.210 HD
ENDBRANCH  51  58
ENDBRANCH  46  50
ENDBRANCH   1  46
TORSDOF 20
ENDMDL
MODEL 7
REMARK VINA RESULT:      -6.3      3.051      5.529
REMARK  Name = 
REMARK  21 active torsions:
REMARK  status: ('A' for Active; 'I' for Inactive)
REMARK    1  A    between atoms: C_1  and  C_2
REMARK    2  A    between atoms: C_3  and  O_54
REMARK    3  A    between atoms: C_5  and  O_53
REMARK    4  A    between atoms: C_7  and  O_52
REMARK    5  A    between atoms: C_8  and  O_11
REMARK    6  A    between atoms: O_11  and  C_12
REMARK    7  A    between atoms: C_14  and  O_51
REMARK    8  A    between atoms: C_19  and  C_43
REMARK    9  A    between atoms: C_20  and  O_23
REMARK   10  A    between atoms: O_23  and  C_24
REMARK   11  A    between atoms: C_26  and  O_42
REMARK   12  A    between atoms: C_27  and  O_41
REMARK   13  A    between atoms: C_28  and  O_40
REMARK   14  A    between atoms: C_30  and  C_32
REMARK   15  A    between atoms: C_32  and  O_33
REMARK   16  A    between atoms: O_33  and  C_34
REMARK   17  A    between atoms: C_34  and  C_36
REMARK   18  A    between atoms: C_36  and  C_37
REMARK   19  A    between atoms: C_37  and  O_39
REMARK   20  A    between atoms: C_45  and  O_50
REMARK   21  A    between atoms: C_46  and  O_49
REMARK                            x       y       z     vdW  Elec       q    Type
REMARK                         _______ _______ _______ _____ _____    ______ ____
ROOT
ATOM      1  C   UNL     1       6.312  -2.510  25.900  0.00  0.00    +0.131 A 
ATOM      2  C   UNL     1       5.415  -1.540  25.433  0.00  0.00    +0.093 A 
ATOM      3  C   UNL     1       5.664  -0.179  25.665  0.00  0.00    +0.147 A 
ATOM      4  O   UNL     1       4.753   0.748  25.224  0.00  0.00    -0.451 OA
ATOM      5  C   UNL     1       5.075   2.116  25.288  0.00  0.00    +0.181 A 
ATOM      6  C   UNL     1       6.119   2.612  26.006  0.00  0.00    +0.214 A 
ATOM      7  C   UNL     1       6.859   1.587  26.817  0.00  0.00    +0.238 A 
ATOM      8  O   UNL     1       7.407   1.836  27.884  0.00  0.00    -0.283 OA
ATOM      9  C   UNL     1       6.795   0.195  26.375  0.00  0.00    +0.109 A 
ATOM     10  C   UNL     1       7.732  -0.762  26.769  0.00  0.00    +0.135 A 
ATOM     11  C   UNL     1       7.490  -2.109  26.538  0.00  0.00    +0.092 A 
ENDROOT
BRANCH   5  12
ATOM     12  C   UNL     1       4.068   2.970  24.577  0.00  0.00    +0.025 A 
ATOM     13  C   UNL     1       3.112   3.688  25.333  0.00  0.00    +0.015 A 
ATOM     14  C   UNL     1       2.192   4.555  24.727  0.00  0.00    +0.050 A 
ATOM     15  C   UNL     1       2.224   4.716  23.354  0.00  0.00    +0.158 A 
ATOM     16  C   UNL     1       3.127   4.000  22.582  0.00  0.00    +0.159 A 
ATOM     17  C   UNL     1       4.030   3.117  23.177  0.00  0.00    +0.060 A 
BRANCH  16  18
ATOM     18  O   UNL     1       3.094   4.203  21.229  0.00  0.00    -0.503 OA
ATOM     19  H   UNL     1       2.466   4.919  21.035  0.00  0.00    +0.292 HD
ENDBRANCH  16  18
BRANCH  15  20
ATOM     20  O   UNL     1       1.358   5.594  22.765  0.00  0.00    -0.503 OA
ATOM     21  H   UNL     1       0.566   5.058  22.556  0.00  0.00    +0.292 HD
ENDBRANCH  15  20
ENDBRANCH   5  12
BRANCH  10  22
ATOM     22  O   UNL     1       8.905  -0.389  27.363  0.00  0.00    -0.506 OA
ATOM     23  H   UNL     1       8.726   0.206  28.109  0.00  0.00    +0.292 HD
ENDBRANCH  10  22
BRANCH   6  24
ATOM     24  O   UNL     1       6.437   3.978  26.027  0.00  0.00    -0.453 OA
BRANCH  24  25
ATOM     25  C   UNL     1       6.769   4.623  24.783  0.00  0.00    +0.340 C 
ATOM     26  O   UNL     1       7.472   3.733  23.917  0.00  0.00    -0.330 OA
ATOM     27  C   UNL     1       8.866   3.552  24.219  0.00  0.00    +0.191 C 
ATOM     28  C   UNL     1       9.608   4.893  24.184  0.00  0.00    +0.178 C 
ATOM     29  C   UNL     1       9.001   5.832  25.219  0.00  0.00    +0.180 C 
ATOM     30  C   UNL     1       7.496   5.975  24.994  0.00  0.00    +0.214 C 
BRANCH  30  31
ATOM     31  O   UNL     1       6.919   6.768  26.043  0.00  0.00    -0.383 OA
ATOM     32  H   UNL     1       6.536   6.156  26.695  0.00  0.00    +0.210 HD
ENDBRANCH  30  31
BRANCH  29  33
ATOM     33  O   UNL     1       9.664   7.107  25.107  0.00  0.00    -0.386 OA
ATOM     34  H   UNL     1       9.666   7.362  24.164  0.00  0.00    +0.210 HD
ENDBRANCH  29  33
BRANCH  28  35
ATOM     35  O   UNL     1       9.496   5.492  22.884  0.00  0.00    -0.386 OA
ATOM     36  H   UNL     1       8.924   6.275  22.994  0.00  0.00    +0.210 HD
ENDBRANCH  28  35
BRANCH  27  37
ATOM     37  C   UNL     1       9.466   2.608  23.163  0.00  0.00    +0.266 C 
BRANCH  37  38
ATOM     38  O   UNL     1      10.606   1.891  23.679  0.00  0.00    -0.462 OA
BRANCH  38  39
ATOM     39  C   UNL     1      10.337   0.686  24.241  0.00  0.00    +0.318 C 
ATOM     40  O   UNL     1      10.807   0.279  25.297  0.00  0.00    -0.250 OA
BRANCH  39  41
ATOM     41  C   UNL     1       9.345  -0.066  23.408  0.00  0.00    +0.240 C 
BRANCH  41  42
ATOM     42  C   UNL     1       9.973  -1.022  22.460  0.00  0.00    +0.316 C 
ATOM     43  O   UNL     1      10.571  -2.040  22.762  0.00  0.00    -0.250 OA
BRANCH  42  44
ATOM     44  O   UNL     1       9.828  -0.640  21.158  0.00  0.00    -0.480 OA
ATOM     45  H   UNL     1       9.616   0.306  21.038  0.00  0.00    +0.295 HD
ENDBRANCH  42  44
ENDBRANCH  41  42
ENDBRANCH  39  41
ENDBRANCH  38  39
ENDBRANCH  37  38
ENDBRANCH  27  37
ENDBRANCH  24  25
ENDBRANCH   6  24
BRANCH   1  46
ATOM     46  O   UNL     1       6.180  -3.868  25.832  0.00  0.00    -0.461 OA
BRANCH  46  50
ATOM     47  C   UNL     1       2.852  -4.397  28.504  0.00  0.00    +0.041 C 
ATOM     48  C   UNL     1       4.312  -4.368  28.953  0.00  0.00    +0.150 C 
ATOM     49  O   UNL     1       5.130  -3.752  27.946  0.00  0.00    -0.334 OA
ATOM     50  C   UNL     1       5.315  -4.532  26.759  0.00  0.00    +0.339 C 
ATOM     51  C   UNL     1       6.012  -5.861  27.133  0.00  0.00    +0.214 C 
ATOM     52  C   UNL     1       5.108  -6.622  28.114  0.00  0.00    +0.180 C 
ATOM     53  C   UNL     1       4.830  -5.760  29.361  0.00  0.00    +0.174 C 
BRANCH  53  54
ATOM     54  O   UNL     1       6.016  -5.614  30.153  0.00  0.00    -0.387 OA
ATOM     55  H   UNL     1       5.853  -4.876  30.781  0.00  0.00    +0.210 HD
ENDBRANCH  53  54
BRANCH  52  56
ATOM     56  O   UNL     1       5.670  -7.894  28.446  0.00  0.00    -0.386 OA
ATOM     57  H   UNL     1       6.641  -7.806  28.440  0.00  0.00    +0.210 HD
ENDBRANCH  52  56
BRANCH  51  58
ATOM     58  O   UNL     1       7.282  -5.574  27.769  0.00  0.00    -0.383 OA
ATOM     59  H   UNL     1       7.197  -5.864  28.699  0.00  0.00    +0.210 HD
ENDBRANCH  51  58
ENDBRANCH  46  50
ENDBRANCH   1  46
TORSDOF 20
ENDMDL
MODEL 8
REMARK VINA RESULT:      -6.2      2.767      9.605
REMARK  Name = 
REMARK  21 active torsions:
REMARK  status: ('A' for Active; 'I' for Inactive)
REMARK    1  A    between atoms: C_1  and  C_2
REMARK    2  A    between atoms: C_3  and  O_54
REMARK    3  A    between atoms: C_5  and  O_53
REMARK    4  A    between atoms: C_7  and  O_52
REMARK    5  A    between atoms: C_8  and  O_11
REMARK    6  A    between atoms: O_11  and  C_12
REMARK    7  A    between atoms: C_14  and  O_51
REMARK    8  A    between atoms: C_19  and  C_43
REMARK    9  A    between atoms: C_20  and  O_23
REMARK   10  A    between atoms: O_23  and  C_24
REMARK   11  A    between atoms: C_26  and  O_42
REMARK   12  A    between atoms: C_27  and  O_41
REMARK   13  A    between atoms: C_28  and  O_40
REMARK   14  A    between atoms: C_30  and  C_32
REMARK   15  A    between atoms: C_32  and  O_33
REMARK   16  A    between atoms: O_33  and  C_34
REMARK   17  A    between atoms: C_34  and  C_36
REMARK   18  A    between atoms: C_36  and  C_37
REMARK   19  A    between atoms: C_37  and  O_39
REMARK   20  A    between atoms: C_45  and  O_50
REMARK   21  A    between atoms: C_46  and  O_49
REMARK                            x       y       z     vdW  Elec       q    Type
REMARK                         _______ _______ _______ _____ _____    ______ ____
ROOT
ATOM      1  C   UNL     1       5.208   2.718  25.649  0.00  0.00    +0.131 A 
ATOM      2  C   UNL     1       5.383   1.491  24.995  0.00  0.00    +0.093 A 
ATOM      3  C   UNL     1       4.995   0.297  25.622  0.00  0.00    +0.147 A 
ATOM      4  O   UNL     1       5.206  -0.894  24.971  0.00  0.00    -0.451 OA
ATOM      5  C   UNL     1       4.660  -2.076  25.503  0.00  0.00    +0.181 A 
ATOM      6  C   UNL     1       4.161  -2.175  26.765  0.00  0.00    +0.214 A 
ATOM      7  C   UNL     1       4.323  -0.936  27.597  0.00  0.00    +0.238 A 
ATOM      8  O   UNL     1       4.472  -0.953  28.813  0.00  0.00    -0.283 OA
ATOM      9  C   UNL     1       4.453   0.341  26.897  0.00  0.00    +0.109 A 
ATOM     10  C   UNL     1       4.201   1.566  27.517  0.00  0.00    +0.135 A 
ATOM     11  C   UNL     1       4.582   2.750  26.899  0.00  0.00    +0.092 A 
ENDROOT
BRANCH   5  12
ATOM     12  C   UNL     1       4.803  -3.238  24.567  0.00  0.00    +0.025 A 
ATOM     13  C   UNL     1       3.669  -4.027  24.264  0.00  0.00    +0.015 A 
ATOM     14  C   UNL     1       3.728  -5.082  23.342  0.00  0.00    +0.050 A 
ATOM     15  C   UNL     1       4.926  -5.355  22.709  0.00  0.00    +0.158 A 
ATOM     16  C   UNL     1       6.065  -4.621  23.010  0.00  0.00    +0.159 A 
ATOM     17  C   UNL     1       6.018  -3.585  23.945  0.00  0.00    +0.060 A 
BRANCH  16  18
ATOM     18  O   UNL     1       7.217  -4.955  22.351  0.00  0.00    -0.503 OA
ATOM     19  H   UNL     1       7.194  -4.562  21.462  0.00  0.00    +0.292 HD
ENDBRANCH  16  18
BRANCH  15  20
ATOM     20  O   UNL     1       4.977  -6.354  21.777  0.00  0.00    -0.503 OA
ATOM     21  H   UNL     1       4.173  -6.226  21.234  0.00  0.00    +0.292 HD
ENDBRANCH  15  20
ENDBRANCH   5  12
BRANCH  10  22
ATOM     22  O   UNL     1       3.560   1.621  28.722  0.00  0.00    -0.506 OA
ATOM     23  H   UNL     1       3.087   2.465  28.809  0.00  0.00    +0.292 HD
ENDBRANCH  10  22
BRANCH   6  24
ATOM     24  O   UNL     1       3.593  -3.359  27.260  0.00  0.00    -0.453 OA
BRANCH  24  25
ATOM     25  C   UNL     1       4.180  -3.965  28.426  0.00  0.00    +0.340 C 
ATOM     26  O   UNL     1       5.559  -4.263  28.208  0.00  0.00    -0.330 OA
ATOM     27  C   UNL     1       5.819  -5.448  27.435  0.00  0.00    +0.191 C 
ATOM     28  C   UNL     1       5.193  -6.679  28.101  0.00  0.00    +0.178 C 
ATOM     29  C   UNL     1       3.685  -6.483  28.205  0.00  0.00    +0.180 C 
ATOM     30  C   UNL     1       3.364  -5.179  28.936  0.00  0.00    +0.214 C 
BRANCH  30  31
ATOM     31  O   UNL     1       1.946  -4.950  28.925  0.00  0.00    -0.383 OA
ATOM     32  H   UNL     1       1.575  -5.450  28.178  0.00  0.00    +0.210 HD
ENDBRANCH  30  31
BRANCH  29  33
ATOM     33  O   UNL     1       3.136  -7.617  28.905  0.00  0.00    -0.386 OA
ATOM     34  H   UNL     1       3.875  -8.213  29.136  0.00  0.00    +0.210 HD
ENDBRANCH  29  33
BRANCH  28  35
ATOM     35  O   UNL     1       5.734  -6.864  29.419  0.00  0.00    -0.386 OA
ATOM     36  H   UNL     1       6.253  -7.690  29.386  0.00  0.00    +0.210 HD
ENDBRANCH  28  35
BRANCH  27  37
ATOM     37  C   UNL     1       7.343  -5.636  27.345  0.00  0.00    +0.266 C 
BRANCH  37  38
ATOM     38  O   UNL     1       7.768  -5.876  25.987  0.00  0.00    -0.462 OA
BRANCH  38  39
ATOM     39  C   UNL     1       8.785  -5.095  25.544  0.00  0.00    +0.318 C 
ATOM     40  O   UNL     1       9.382  -5.248  24.485  0.00  0.00    -0.250 OA
BRANCH  39  41
ATOM     41  C   UNL     1       9.051  -3.986  26.516  0.00  0.00    +0.240 C 
BRANCH  41  42
ATOM     42  C   UNL     1       8.606  -2.655  26.030  0.00  0.00    +0.316 C 
ATOM     43  O   UNL     1       9.065  -2.052  25.075  0.00  0.00    -0.250 OA
BRANCH  42  44
ATOM     44  O   UNL     1       7.599  -2.131  26.786  0.00  0.00    -0.480 OA
ATOM     45  H   UNL     1       7.870  -1.860  27.685  0.00  0.00    +0.295 HD
ENDBRANCH  42  44
ENDBRANCH  41  42
ENDBRANCH  39  41
ENDBRANCH  38  39
ENDBRANCH  37  38
ENDBRANCH  27  37
ENDBRANCH  24  25
ENDBRANCH   6  24
BRANCH   1  46
ATOM     46  O   UNL     1       5.603   3.954  25.222  0.00  0.00    -0.461 OA
BRANCH  46  50
ATOM     47  C   UNL     1       9.671   3.332  23.973  0.00  0.00    +0.041 C 
ATOM     48  C   UNL     1       9.112   4.681  24.423  0.00  0.00    +0.150 C 
ATOM     49  O   UNL     1       7.903   4.493  25.175  0.00  0.00    -0.334 OA
ATOM     50  C   UNL     1       6.774   4.068  24.406  0.00  0.00    +0.339 C 
ATOM     51  C   UNL     1       6.459   5.143  23.339  0.00  0.00    +0.214 C 
ATOM     52  C   UNL     1       7.682   5.288  22.422  0.00  0.00    +0.180 C 
ATOM     53  C   UNL     1       8.927   5.661  23.249  0.00  0.00    +0.174 C 
BRANCH  53  54
ATOM     54  O   UNL     1       8.818   6.997  23.757  0.00  0.00    -0.387 OA
ATOM     55  H   UNL     1       7.914   7.088  24.132  0.00  0.00    +0.210 HD
ENDBRANCH  53  54
BRANCH  52  56
ATOM     56  O   UNL     1       7.426   6.223  21.371  0.00  0.00    -0.386 OA
ATOM     57  H   UNL     1       6.688   6.796  21.649  0.00  0.00    +0.210 HD
ENDBRANCH  52  56
BRANCH  51  58
ATOM     58  O   UNL     1       6.194   6.407  23.996  0.00  0.00    -0.383 OA
ATOM     59  H   UNL     1       7.038   6.688  24.403  0.00  0.00    +0.210 HD
ENDBRANCH  51  58
ENDBRANCH  46  50
ENDBRANCH   1  46
TORSDOF 20
ENDMDL
MODEL 9
REMARK VINA RESULT:      -6.2      2.163      9.632
REMARK  Name = 
REMARK  21 active torsions:
REMARK  status: ('A' for Active; 'I' for Inactive)
REMARK    1  A    between atoms: C_1  and  C_2
REMARK    2  A    between atoms: C_3  and  O_54
REMARK    3  A    between atoms: C_5  and  O_53
REMARK    4  A    between atoms: C_7  and  O_52
REMARK    5  A    between atoms: C_8  and  O_11
REMARK    6  A    between atoms: O_11  and  C_12
REMARK    7  A    between atoms: C_14  and  O_51
REMARK    8  A    between atoms: C_19  and  C_43
REMARK    9  A    between atoms: C_20  and  O_23
REMARK   10  A    between atoms: O_23  and  C_24
REMARK   11  A    between atoms: C_26  and  O_42
REMARK   12  A    between atoms: C_27  and  O_41
REMARK   13  A    between atoms: C_28  and  O_40
REMARK   14  A    between atoms: C_30  and  C_32
REMARK   15  A    between atoms: C_32  and  O_33
REMARK   16  A    between atoms: O_33  and  C_34
REMARK   17  A    between atoms: C_34  and  C_36
REMARK   18  A    between atoms: C_36  and  C_37
REMARK   19  A    between atoms: C_37  and  O_39
REMARK   20  A    between atoms: C_45  and  O_50
REMARK   21  A    between atoms: C_46  and  O_49
REMARK                            x       y       z     vdW  Elec       q    Type
REMARK                         _______ _______ _______ _____ _____    ______ ____
ROOT
ATOM      1  C   UNL     1       5.787   2.594  25.048  0.00  0.00    +0.131 A 
ATOM      2  C   UNL     1       5.627   1.319  24.490  0.00  0.00    +0.093 A 
ATOM      3  C   UNL     1       5.303   0.227  25.310  0.00  0.00    +0.147 A 
ATOM      4  O   UNL     1       5.182  -1.017  24.742  0.00  0.00    -0.451 OA
ATOM      5  C   UNL     1       4.682  -2.082  25.514  0.00  0.00    +0.181 A 
ATOM      6  C   UNL     1       4.559  -2.038  26.869  0.00  0.00    +0.214 A 
ATOM      7  C   UNL     1       5.093  -0.786  27.502  0.00  0.00    +0.238 A 
ATOM      8  O   UNL     1       5.583  -0.751  28.624  0.00  0.00    -0.283 OA
ATOM      9  C   UNL     1       5.159   0.418  26.676  0.00  0.00    +0.109 A 
ATOM     10  C   UNL     1       5.237   1.700  27.222  0.00  0.00    +0.135 A 
ATOM     11  C   UNL     1       5.555   2.783  26.414  0.00  0.00    +0.092 A 
ENDROOT
BRANCH   5  12
ATOM     12  C   UNL     1       4.418  -3.306  24.689  0.00  0.00    +0.025 A 
ATOM     13  C   UNL     1       3.302  -4.120  24.996  0.00  0.00    +0.015 A 
ATOM     14  C   UNL     1       2.966  -5.235  24.216  0.00  0.00    +0.050 A 
ATOM     15  C   UNL     1       3.743  -5.546  23.116  0.00  0.00    +0.158 A 
ATOM     16  C   UNL     1       4.864  -4.787  22.810  0.00  0.00    +0.159 A 
ATOM     17  C   UNL     1       5.217  -3.689  23.596  0.00  0.00    +0.060 A 
BRANCH  16  18
ATOM     18  O   UNL     1       5.591  -5.159  21.711  0.00  0.00    -0.503 OA
ATOM     19  H   UNL     1       6.536  -5.121  21.934  0.00  0.00    +0.292 HD
ENDBRANCH  16  18
BRANCH  15  20
ATOM     20  O   UNL     1       3.393  -6.607  22.329  0.00  0.00    -0.503 OA
ATOM     21  H   UNL     1       4.245  -6.997  22.047  0.00  0.00    +0.292 HD
ENDBRANCH  15  20
ENDBRANCH   5  12
BRANCH  10  22
ATOM     22  O   UNL     1       4.980   1.913  28.548  0.00  0.00    -0.506 OA
ATOM     23  H   UNL     1       5.623   2.541  28.915  0.00  0.00    +0.292 HD
ENDBRANCH  10  22
BRANCH   6  24
ATOM     24  O   UNL     1       4.028  -3.104  27.611  0.00  0.00    -0.453 OA
BRANCH  24  25
ATOM     25  C   UNL     1       4.901  -3.818  28.506  0.00  0.00    +0.340 C 
ATOM     26  O   UNL     1       6.156  -4.092  27.884  0.00  0.00    -0.330 OA
ATOM     27  C   UNL     1       6.161  -5.197  26.964  0.00  0.00    +0.191 C 
ATOM     28  C   UNL     1       5.713  -6.487  27.662  0.00  0.00    +0.178 C 
ATOM     29  C   UNL     1       4.300  -6.303  28.202  0.00  0.00    +0.180 C 
ATOM     30  C   UNL     1       4.229  -5.076  29.110  0.00  0.00    +0.214 C 
BRANCH  30  31
ATOM     31  O   UNL     1       2.870  -4.848  29.517  0.00  0.00    -0.383 OA
ATOM     32  H   UNL     1       2.292  -5.226  28.832  0.00  0.00    +0.210 HD
ENDBRANCH  30  31
BRANCH  29  33
ATOM     33  O   UNL     1       3.939  -7.500  28.920  0.00  0.00    -0.386 OA
ATOM     34  H   UNL     1       4.724  -8.080  28.950  0.00  0.00    +0.210 HD
ENDBRANCH  29  33
BRANCH  28  35
ATOM     35  O   UNL     1       6.595  -6.796  28.753  0.00  0.00    -0.386 OA
ATOM     36  H   UNL     1       6.649  -5.987  29.297  0.00  0.00    +0.210 HD
ENDBRANCH  28  35
BRANCH  27  37
ATOM     37  C   UNL     1       7.594  -5.374  26.434  0.00  0.00    +0.266 C 
BRANCH  37  38
ATOM     38  O   UNL     1       8.078  -4.170  25.805  0.00  0.00    -0.462 OA
BRANCH  38  39
ATOM     39  C   UNL     1       8.654  -4.334  24.587  0.00  0.00    +0.318 C 
ATOM     40  O   UNL     1       8.558  -5.337  23.891  0.00  0.00    -0.250 OA
BRANCH  39  41
ATOM     41  C   UNL     1       9.396  -3.094  24.191  0.00  0.00    +0.240 C 
BRANCH  41  42
ATOM     42  C   UNL     1       8.545  -1.877  24.176  0.00  0.00    +0.316 C 
ATOM     43  O   UNL     1       8.159  -1.286  23.182  0.00  0.00    -0.250 OA
BRANCH  42  44
ATOM     44  O   UNL     1       8.226  -1.445  25.430  0.00  0.00    -0.480 OA
ATOM     45  H   UNL     1       7.698  -2.081  25.952  0.00  0.00    +0.295 HD
ENDBRANCH  42  44
ENDBRANCH  41  42
ENDBRANCH  39  41
ENDBRANCH  38  39
ENDBRANCH  37  38
ENDBRANCH  27  37
ENDBRANCH  24  25
ENDBRANCH   6  24
BRANCH   1  46
ATOM     46  O   UNL     1       6.179   3.738  24.412  0.00  0.00    -0.461 OA
BRANCH  46  50
ATOM     47  C   UNL     1       9.013   6.350  26.320  0.00  0.00    +0.041 C 
ATOM     48  C   UNL     1       8.688   6.386  24.828  0.00  0.00    +0.150 C 
ATOM     49  O   UNL     1       7.433   5.734  24.576  0.00  0.00    -0.334 OA
ATOM     50  C   UNL     1       7.452   4.311  24.730  0.00  0.00    +0.339 C 
ATOM     51  C   UNL     1       8.464   3.709  23.727  0.00  0.00    +0.214 C 
ATOM     52  C   UNL     1       9.855   4.280  24.041  0.00  0.00    +0.180 C 
ATOM     53  C   UNL     1       9.830   5.819  23.964  0.00  0.00    +0.174 C 
BRANCH  53  54
ATOM     54  O   UNL     1       9.664   6.256  22.608  0.00  0.00    -0.387 OA
ATOM     55  H   UNL     1       8.701   6.384  22.464  0.00  0.00    +0.210 HD
ENDBRANCH  53  54
BRANCH  52  56
ATOM     56  O   UNL     1      10.848   3.708  23.186  0.00  0.00    -0.386 OA
ATOM     57  H   UNL     1      10.558   2.809  22.945  0.00  0.00    +0.210 HD
ENDBRANCH  52  56
BRANCH  51  58
ATOM     58  O   UNL     1       8.082   4.081  22.379  0.00  0.00    -0.383 OA
ATOM     59  H   UNL     1       7.107   4.141  22.376  0.00  0.00    +0.210 HD
ENDBRANCH  51  58
ENDBRANCH  46  50
ENDBRANCH   1  46
TORSDOF 20
ENDMDL
