MODEL 1
REMARK VINA RESULT:      -6.7      0.000      0.000
REMARK  Name = 
REMARK  27 active torsions:
REMARK  status: ('A' for Active; 'I' for Inactive)
REMARK    1  A    between atoms: C_3  and  O_68
REMARK    2  A    between atoms: C_4  and  O_67
REMARK    3  A    between atoms: C_6  and  C_7
REMARK    4  A    between atoms: C_8  and  C_9
REMARK    5  A    between atoms: C_9  and  O_11
REMARK    6  A    between atoms: O_11  and  C_12
REMARK    7  A    between atoms: C_13  and  O_66
REMARK    8  A    between atoms: C_15  and  O_65
REMARK    9  A    between atoms: C_17  and  C_63
REMARK   10  A    between atoms: C_19  and  O_21
REMARK   11  A    between atoms: O_21  and  C_22
REMARK   12  A    between atoms: C_23  and  O_62
REMARK   13  A    between atoms: C_25  and  O_61
REMARK   14  A    between atoms: C_27  and  C_53
REMARK   15  A    between atoms: C_29  and  O_31
REMARK   16  A    between atoms: O_31  and  C_32
REMARK   17  A    between atoms: C_33  and  C_45
REMARK   18  A    between atoms: C_37  and  O_44
REMARK   19  A    between atoms: C_39  and  O_43
REMARK   20  A    between atoms: C_47  and  O_52
REMARK   21  A    between atoms: C_48  and  O_51
REMARK   22  A    between atoms: C_53  and  O_54
REMARK   23  A    between atoms: O_54  and  C_55
REMARK   24  A    between atoms: C_55  and  C_57
REMARK   25  A    between atoms: C_57  and  C_58
REMARK   26  A    between atoms: C_58  and  O_60
REMARK   27  A    between atoms: C_63  and  O_64
REMARK                            x       y       z     vdW  Elec       q    Type
REMARK                         _______ _______ _______ _____ _____    ______ ____
ROOT
ATOM      1  C   UNL     1       6.705   1.353  26.405  0.00  0.00    +0.221 C 
ATOM      2  C   UNL     1       5.347   0.559  26.188  0.00  0.00    +0.340 C 
ATOM      3  O   UNL     1       4.525   1.061  25.113  0.00  0.00    -0.330 OA
ATOM      4  C   UNL     1       4.441   2.471  24.823  0.00  0.00    +0.191 C 
ATOM      5  C   UNL     1       5.818   3.148  24.821  0.00  0.00    +0.178 C 
ATOM      6  C   UNL     1       6.484   2.866  26.165  0.00  0.00    +0.180 C 
ENDROOT
BRANCH   6   7
ATOM      7  O   UNL     1       7.638   3.697  26.338  0.00  0.00    -0.386 OA
ATOM      8  H   UNL     1       7.300   4.554  26.672  0.00  0.00    +0.210 HD
ENDBRANCH   6   7
BRANCH   5   9
ATOM      9  O   UNL     1       5.696   4.567  24.644  0.00  0.00    -0.386 OA
ATOM     10  H   UNL     1       6.154   4.984  25.397  0.00  0.00    +0.210 HD
ENDBRANCH   5   9
BRANCH   4  11
ATOM     11  C   UNL     1       3.437   3.289  25.684  0.00  0.00    +0.266 C 
BRANCH  11  12
ATOM     12  O   UNL     1       2.645   4.202  24.913  0.00  0.00    -0.462 OA
BRANCH  12  13
ATOM     13  C   UNL     1       1.763   3.630  24.051  0.00  0.00    +0.318 C 
ATOM     14  O   UNL     1       1.122   2.608  24.256  0.00  0.00    -0.250 OA
BRANCH  13  15
ATOM     15  C   UNL     1       1.656   4.441  22.801  0.00  0.00    +0.240 C 
BRANCH  15  16
ATOM     16  C   UNL     1       2.731   4.140  21.804  0.00  0.00    +0.316 C 
ATOM     17  O   UNL     1       2.607   3.454  20.802  0.00  0.00    -0.250 OA
BRANCH  16  18
ATOM     18  O   UNL     1       3.918   4.702  22.142  0.00  0.00    -0.480 OA
ATOM     19  H   UNL     1       4.122   4.689  23.096  0.00  0.00    +0.295 HD
ENDBRANCH  16  18
ENDBRANCH  15  16
ENDBRANCH  13  15
ENDBRANCH  12  13
ENDBRANCH  11  12
ENDBRANCH   4  11
BRANCH   2  20
ATOM     20  O   UNL     1       5.581  -0.866  25.971  0.00  0.00    -0.453 OA
BRANCH  20  21
ATOM     21  C   UNL     1       4.586  -1.766  26.362  0.00  0.00    +0.214 A 
ATOM     22  C   UNL     1       4.358  -1.930  27.849  0.00  0.00    +0.238 A 
ATOM     23  O   UNL     1       4.817  -1.109  28.637  0.00  0.00    -0.283 OA
ATOM     24  C   UNL     1       3.542  -3.089  28.317  0.00  0.00    +0.109 A 
ATOM     25  C   UNL     1       2.766  -3.738  27.395  0.00  0.00    +0.147 A 
ATOM     26  C   UNL     1       1.808  -4.715  27.781  0.00  0.00    +0.092 A 
ATOM     27  C   UNL     1       1.595  -4.997  29.126  0.00  0.00    +0.124 A 
ATOM     28  C   UNL     1       2.422  -4.414  30.057  0.00  0.00    +0.091 A 
ATOM     29  O   UNL     1       2.979  -3.558  26.057  0.00  0.00    -0.451 OA
ATOM     30  C   UNL     1       3.452  -3.567  29.622  0.00  0.00    +0.135 A 
ATOM     31  C   UNL     1       4.042  -2.753  25.600  0.00  0.00    +0.181 A 
BRANCH  31  32
ATOM     32  C   UNL     1       4.510  -3.227  24.251  0.00  0.00    +0.025 A 
ATOM     33  C   UNL     1       4.028  -4.472  23.768  0.00  0.00    +0.015 A 
ATOM     34  C   UNL     1       4.623  -5.149  22.698  0.00  0.00    +0.050 A 
ATOM     35  C   UNL     1       5.727  -4.591  22.090  0.00  0.00    +0.158 A 
ATOM     36  C   UNL     1       6.195  -3.350  22.506  0.00  0.00    +0.159 A 
ATOM     37  C   UNL     1       5.588  -2.651  23.555  0.00  0.00    +0.060 A 
BRANCH  36  38
ATOM     38  O   UNL     1       7.351  -2.884  21.942  0.00  0.00    -0.503 OA
ATOM     39  H   UNL     1       7.550  -2.066  22.435  0.00  0.00    +0.292 HD
ENDBRANCH  36  38
BRANCH  35  40
ATOM     40  O   UNL     1       6.385  -5.303  21.131  0.00  0.00    -0.503 OA
ATOM     41  H   UNL     1       7.173  -4.772  20.905  0.00  0.00    +0.292 HD
ENDBRANCH  35  40
ENDBRANCH  31  32
BRANCH  30  42
ATOM     42  O   UNL     1       4.486  -3.415  30.478  0.00  0.00    -0.506 OA
ATOM     43  H   UNL     1       4.258  -2.653  31.058  0.00  0.00    +0.292 HD
ENDBRANCH  30  42
BRANCH  27  44
ATOM     44  O   UNL     1       0.656  -5.868  29.588  0.00  0.00    -0.507 OA
ATOM     45  H   UNL     1       0.385  -5.609  30.485  0.00  0.00    +0.292 HD
ENDBRANCH  27  44
ENDBRANCH  20  21
ENDBRANCH   2  20
BRANCH   1  46
ATOM     46  O   UNL     1       7.929   0.737  25.981  0.00  0.00    -0.336 OA
BRANCH  46  48
ATOM     47  C   UNL     1       9.582  -0.343  24.598  0.00  0.00    +0.263 C 
ATOM     48  C   UNL     1       8.443   0.751  24.658  0.00  0.00    +0.295 C 
ATOM     49  O   UNL     1       7.425   0.539  23.677  0.00  0.00    -0.340 OA
ATOM     50  C   UNL     1       7.842   0.383  22.300  0.00  0.00    +0.178 C 
ATOM     51  C   UNL     1       8.966  -0.656  22.113  0.00  0.00    +0.178 C 
ATOM     52  C   UNL     1      10.077  -0.392  23.129  0.00  0.00    +0.191 C 
BRANCH  52  53
ATOM     53  O   UNL     1      11.217  -1.218  22.866  0.00  0.00    -0.385 OA
ATOM     54  H   UNL     1      10.915  -2.088  22.605  0.00  0.00    +0.210 HD
ENDBRANCH  52  53
BRANCH  51  55
ATOM     55  O   UNL     1       9.489  -0.593  20.774  0.00  0.00    -0.386 OA
ATOM     56  H   UNL     1      10.239   0.034  20.795  0.00  0.00    +0.210 HD
ENDBRANCH  51  55
BRANCH  50  57
ATOM     57  C   UNL     1       8.163   1.722  21.580  0.00  0.00    +0.190 C 
BRANCH  57  58
ATOM     58  O   UNL     1       9.562   1.997  21.562  0.00  0.00    -0.392 OA
ATOM     59  H   UNL     1       9.736   2.574  20.797  0.00  0.00    +0.210 HD
ENDBRANCH  57  58
ENDBRANCH  50  57
BRANCH  47  60
ATOM     60  O   UNL     1       9.377  -1.595  25.400  0.00  0.00    -0.450 OA
BRANCH  60  61
ATOM     61  C   UNL     1       9.091  -2.829  24.917  0.00  0.00    +0.332 C 
ATOM     62  O   UNL     1       9.613  -3.292  23.907  0.00  0.00    -0.246 OA
BRANCH  61  64
ATOM     63  C   UNL     1       7.478  -4.855  25.578  0.00  0.00    +0.015 C 
ATOM     64  C   UNL     1       8.025  -3.613  25.702  0.00  0.00    +0.092 C 
BRANCH  63  66
ATOM     65  C   UNL     1       5.445  -6.362  26.170  0.00  0.00    +0.012 A 
ATOM     66  C   UNL     1       6.528  -5.539  26.556  0.00  0.00    -0.021 A 
ATOM     67  C   UNL     1       6.770  -5.498  27.933  0.00  0.00    +0.057 A 
ATOM     68  C   UNL     1       5.928  -6.139  28.867  0.00  0.00    +0.159 A 
ATOM     69  C   UNL     1       4.846  -6.889  28.468  0.00  0.00    +0.158 A 
ATOM     70  C   UNL     1       4.610  -7.035  27.114  0.00  0.00    +0.050 A 
BRANCH  69  71
ATOM     71  O   UNL     1       4.082  -7.439  29.460  0.00  0.00    -0.503 OA
ATOM     72  H   UNL     1       4.603  -8.120  29.919  0.00  0.00    +0.292 HD
ENDBRANCH  69  71
BRANCH  68  73
ATOM     73  O   UNL     1       6.115  -5.987  30.222  0.00  0.00    -0.503 OA
ATOM     74  H   UNL     1       7.041  -5.666  30.311  0.00  0.00    +0.292 HD
ENDBRANCH  68  73
ENDBRANCH  63  66
ENDBRANCH  61  64
ENDBRANCH  60  61
ENDBRANCH  47  60
ENDBRANCH  46  48
ENDBRANCH   1  46
TORSDOF 27
ENDMDL
MODEL 2
REMARK VINA RESULT:      -6.6      2.714      8.391
REMARK  Name = 
REMARK  27 active torsions:
REMARK  status: ('A' for Active; 'I' for Inactive)
REMARK    1  A    between atoms: C_3  and  O_68
REMARK    2  A    between atoms: C_4  and  O_67
REMARK    3  A    between atoms: C_6  and  C_7
REMARK    4  A    between atoms: C_8  and  C_9
REMARK    5  A    between atoms: C_9  and  O_11
REMARK    6  A    between atoms: O_11  and  C_12
REMARK    7  A    between atoms: C_13  and  O_66
REMARK    8  A    between atoms: C_15  and  O_65
REMARK    9  A    between atoms: C_17  and  C_63
REMARK   10  A    between atoms: C_19  and  O_21
REMARK   11  A    between atoms: O_21  and  C_22
REMARK   12  A    between atoms: C_23  and  O_62
REMARK   13  A    between atoms: C_25  and  O_61
REMARK   14  A    between atoms: C_27  and  C_53
REMARK   15  A    between atoms: C_29  and  O_31
REMARK   16  A    between atoms: O_31  and  C_32
REMARK   17  A    between atoms: C_33  and  C_45
REMARK   18  A    between atoms: C_37  and  O_44
REMARK   19  A    between atoms: C_39  and  O_43
REMARK   20  A    between atoms: C_47  and  O_52
REMARK   21  A    between atoms: C_48  and  O_51
REMARK   22  A    between atoms: C_53  and  O_54
REMARK   23  A    between atoms: O_54  and  C_55
REMARK   24  A    between atoms: C_55  and  C_57
REMARK   25  A    between atoms: C_57  and  C_58
REMARK   26  A    between atoms: C_58  and  O_60
REMARK   27  A    between atoms: C_63  and  O_64
REMARK                            x       y       z     vdW  Elec       q    Type
REMARK                         _______ _______ _______ _____ _____    ______ ____
ROOT
ATOM      1  C   UNL     1       6.794   0.639  24.057  0.00  0.00    +0.221 C 
ATOM      2  C   UNL     1       6.437  -0.888  24.300  0.00  0.00    +0.340 C 
ATOM      3  O   UNL     1       7.412  -1.616  25.077  0.00  0.00    -0.330 OA
ATOM      4  C   UNL     1       8.824  -1.349  24.957  0.00  0.00    +0.191 C 
ATOM      5  C   UNL     1       9.134   0.154  24.957  0.00  0.00    +0.178 C 
ATOM      6  C   UNL     1       8.318   0.805  23.843  0.00  0.00    +0.180 C 
ENDROOT
BRANCH   6   7
ATOM      7  O   UNL     1       8.770   2.143  23.605  0.00  0.00    -0.386 OA
ATOM      8  H   UNL     1       9.701   2.167  23.913  0.00  0.00    +0.210 HD
ENDBRANCH   6   7
BRANCH   5   9
ATOM      9  O   UNL     1      10.529   0.394  24.721  0.00  0.00    -0.386 OA
ATOM     10  H   UNL     1      10.629   0.546  23.763  0.00  0.00    +0.210 HD
ENDBRANCH   5   9
BRANCH   4  11
ATOM     11  C   UNL     1       9.556  -2.052  23.779  0.00  0.00    +0.266 C 
BRANCH  11  12
ATOM     12  O   UNL     1       8.967  -3.307  23.416  0.00  0.00    -0.462 OA
BRANCH  12  13
ATOM     13  C   UNL     1       9.079  -4.297  24.341  0.00  0.00    +0.318 C 
ATOM     14  O   UNL     1      10.107  -4.624  24.919  0.00  0.00    -0.250 OA
BRANCH  13  15
ATOM     15  C   UNL     1       7.751  -4.933  24.588  0.00  0.00    +0.240 C 
BRANCH  15  16
ATOM     16  C   UNL     1       7.445  -5.125  26.040  0.00  0.00    +0.316 C 
ATOM     17  O   UNL     1       6.930  -6.113  26.540  0.00  0.00    -0.250 OA
BRANCH  16  18
ATOM     18  O   UNL     1       7.782  -4.042  26.785  0.00  0.00    -0.480 OA
ATOM     19  H   UNL     1       8.741  -3.905  26.899  0.00  0.00    +0.295 HD
ENDBRANCH  16  18
ENDBRANCH  15  16
ENDBRANCH  13  15
ENDBRANCH  12  13
ENDBRANCH  11  12
ENDBRANCH   4  11
BRANCH   2  20
ATOM     20  O   UNL     1       5.127  -1.046  24.928  0.00  0.00    -0.453 OA
BRANCH  20  21
ATOM     21  C   UNL     1       4.957  -2.084  25.847  0.00  0.00    +0.214 A 
ATOM     22  C   UNL     1       4.235  -3.320  25.357  0.00  0.00    +0.238 A 
ATOM     23  O   UNL     1       4.076  -3.505  24.154  0.00  0.00    -0.283 OA
ATOM     24  C   UNL     1       3.756  -4.310  26.367  0.00  0.00    +0.109 A 
ATOM     25  C   UNL     1       4.279  -4.235  27.631  0.00  0.00    +0.147 A 
ATOM     26  C   UNL     1       4.041  -5.251  28.597  0.00  0.00    +0.092 A 
ATOM     27  C   UNL     1       3.308  -6.384  28.260  0.00  0.00    +0.124 A 
ATOM     28  C   UNL     1       2.710  -6.433  27.023  0.00  0.00    +0.091 A 
ATOM     29  O   UNL     1       4.945  -3.116  28.043  0.00  0.00    -0.451 OA
ATOM     30  C   UNL     1       2.849  -5.343  26.151  0.00  0.00    +0.135 A 
ATOM     31  C   UNL     1       5.049  -1.990  27.200  0.00  0.00    +0.181 A 
BRANCH  31  32
ATOM     32  C   UNL     1       5.160  -0.734  28.023  0.00  0.00    +0.025 A 
ATOM     33  C   UNL     1       3.985  -0.218  28.629  0.00  0.00    +0.015 A 
ATOM     34  C   UNL     1       3.908   1.083  29.139  0.00  0.00    +0.050 A 
ATOM     35  C   UNL     1       5.013   1.900  29.045  0.00  0.00    +0.158 A 
ATOM     36  C   UNL     1       6.195   1.410  28.502  0.00  0.00    +0.159 A 
ATOM     37  C   UNL     1       6.292   0.101  28.017  0.00  0.00    +0.060 A 
BRANCH  36  38
ATOM     38  O   UNL     1       7.231   2.287  28.336  0.00  0.00    -0.503 OA
ATOM     39  H   UNL     1       6.846   3.027  27.829  0.00  0.00    +0.292 HD
ENDBRANCH  36  38
BRANCH  35  40
ATOM     40  O   UNL     1       4.905   3.205  29.427  0.00  0.00    -0.503 OA
ATOM     41  H   UNL     1       5.300   3.251  30.319  0.00  0.00    +0.292 HD
ENDBRANCH  35  40
ENDBRANCH  31  32
BRANCH  30  42
ATOM     42  O   UNL     1       1.896  -5.228  25.201  0.00  0.00    -0.506 OA
ATOM     43  H   UNL     1       1.064  -5.573  25.597  0.00  0.00    +0.292 HD
ENDBRANCH  30  42
BRANCH  27  44
ATOM     44  O   UNL     1       3.087  -7.432  29.100  0.00  0.00    -0.507 OA
ATOM     45  H   UNL     1       3.933  -7.852  29.328  0.00  0.00    +0.292 HD
ENDBRANCH  27  44
ENDBRANCH  20  21
ENDBRANCH   2  20
BRANCH   1  46
ATOM     46  O   UNL     1       6.068   1.634  24.793  0.00  0.00    -0.336 OA
BRANCH  46  48
ATOM     47  C   UNL     1       4.464   3.295  25.487  0.00  0.00    +0.263 C 
ATOM     48  C   UNL     1       4.971   2.387  24.296  0.00  0.00    +0.295 C 
ATOM     49  O   UNL     1       5.314   3.146  23.134  0.00  0.00    -0.340 OA
ATOM     50  C   UNL     1       4.325   4.069  22.621  0.00  0.00    +0.178 C 
ATOM     51  C   UNL     1       3.742   5.007  23.698  0.00  0.00    +0.178 C 
ATOM     52  C   UNL     1       3.328   4.184  24.918  0.00  0.00    +0.191 C 
BRANCH  52  53
ATOM     53  O   UNL     1       2.615   4.992  25.861  0.00  0.00    -0.385 OA
ATOM     54  H   UNL     1       2.910   5.899  25.775  0.00  0.00    +0.210 HD
ENDBRANCH  52  53
BRANCH  51  55
ATOM     55  O   UNL     1       2.613   5.729  23.175  0.00  0.00    -0.386 OA
ATOM     56  H   UNL     1       1.894   5.637  23.831  0.00  0.00    +0.210 HD
ENDBRANCH  51  55
BRANCH  50  57
ATOM     57  C   UNL     1       3.212   3.398  21.771  0.00  0.00    +0.190 C 
BRANCH  57  58
ATOM     58  O   UNL     1       2.272   2.695  22.581  0.00  0.00    -0.392 OA
ATOM     59  H   UNL     1       1.481   2.532  22.037  0.00  0.00    +0.210 HD
ENDBRANCH  57  58
ENDBRANCH  50  57
BRANCH  47  60
ATOM     60  O   UNL     1       5.500   3.846  26.422  0.00  0.00    -0.450 OA
BRANCH  60  61
ATOM     61  C   UNL     1       6.034   5.092  26.395  0.00  0.00    +0.332 C 
ATOM     62  O   UNL     1       5.452   6.082  26.830  0.00  0.00    -0.246 OA
BRANCH  61  64
ATOM     63  C   UNL     1       8.286   6.228  25.512  0.00  0.00    +0.015 C 
ATOM     64  C   UNL     1       7.422   5.199  25.741  0.00  0.00    +0.092 C 
BRANCH  63  66
ATOM     65  C   UNL     1      10.804   6.872  25.482  0.00  0.00    +0.012 A 
ATOM     66  C   UNL     1       9.712   6.126  24.980  0.00  0.00    -0.021 A 
ATOM     67  C   UNL     1      10.052   5.157  24.031  0.00  0.00    +0.057 A 
ATOM     68  C   UNL     1      11.365   5.015  23.534  0.00  0.00    +0.159 A 
ATOM     69  C   UNL     1      12.401   5.793  23.997  0.00  0.00    +0.158 A 
ATOM     70  C   UNL     1      12.139   6.708  24.998  0.00  0.00    +0.050 A 
BRANCH  69  71
ATOM     71  O   UNL     1      13.625   5.589  23.422  0.00  0.00    -0.503 OA
ATOM     72  H   UNL     1      13.498   5.245  22.522  0.00  0.00    +0.292 HD
ENDBRANCH  69  71
BRANCH  68  73
ATOM     73  O   UNL     1      11.653   4.136  22.514  0.00  0.00    -0.503 OA
ATOM     74  H   UNL     1      12.443   3.642  22.828  0.00  0.00    +0.292 HD
ENDBRANCH  68  73
ENDBRANCH  63  66
ENDBRANCH  61  64
ENDBRANCH  60  61
ENDBRANCH  47  60
ENDBRANCH  46  48
ENDBRANCH   1  46
TORSDOF 27
ENDMDL
MODEL 3
REMARK VINA RESULT:      -6.4      2.602      7.631
REMARK  Name = 
REMARK  27 active torsions:
REMARK  status: ('A' for Active; 'I' for Inactive)
REMARK    1  A    between atoms: C_3  and  O_68
REMARK    2  A    between atoms: C_4  and  O_67
REMARK    3  A    between atoms: C_6  and  C_7
REMARK    4  A    between atoms: C_8  and  C_9
REMARK    5  A    between atoms: C_9  and  O_11
REMARK    6  A    between atoms: O_11  and  C_12
REMARK    7  A    between atoms: C_13  and  O_66
REMARK    8  A    between atoms: C_15  and  O_65
REMARK    9  A    between atoms: C_17  and  C_63
REMARK   10  A    between atoms: C_19  and  O_21
REMARK   11  A    between atoms: O_21  and  C_22
REMARK   12  A    between atoms: C_23  and  O_62
REMARK   13  A    between atoms: C_25  and  O_61
REMARK   14  A    between atoms: C_27  and  C_53
REMARK   15  A    between atoms: C_29  and  O_31
REMARK   16  A    between atoms: O_31  and  C_32
REMARK   17  A    between atoms: C_33  and  C_45
REMARK   18  A    between atoms: C_37  and  O_44
REMARK   19  A    between atoms: C_39  and  O_43
REMARK   20  A    between atoms: C_47  and  O_52
REMARK   21  A    between atoms: C_48  and  O_51
REMARK   22  A    between atoms: C_53  and  O_54
REMARK   23  A    between atoms: O_54  and  C_55
REMARK   24  A    between atoms: C_55  and  C_57
REMARK   25  A    between atoms: C_57  and  C_58
REMARK   26  A    between atoms: C_58  and  O_60
REMARK   27  A    between atoms: C_63  and  O_64
REMARK                            x       y       z     vdW  Elec       q    Type
REMARK                         _______ _______ _______ _____ _____    ______ ____
ROOT
ATOM      1  C   UNL     1       5.702   0.413  24.499  0.00  0.00    +0.221 C 
ATOM      2  C   UNL     1       5.634  -1.049  25.114  0.00  0.00    +0.340 C 
ATOM      3  O   UNL     1       6.590  -1.301  26.167  0.00  0.00    -0.330 OA
ATOM      4  C   UNL     1       7.914  -0.732  26.136  0.00  0.00    +0.191 C 
ATOM      5  C   UNL     1       7.899   0.755  25.753  0.00  0.00    +0.178 C 
ATOM      6  C   UNL     1       7.171   0.892  24.419  0.00  0.00    +0.180 C 
ENDROOT
BRANCH   6   7
ATOM      7  O   UNL     1       7.369   2.200  23.870  0.00  0.00    -0.386 OA
ATOM      8  H   UNL     1       7.569   2.781  24.634  0.00  0.00    +0.210 HD
ENDBRANCH   6   7
BRANCH   5   9
ATOM      9  O   UNL     1       9.234   1.266  25.617  0.00  0.00    -0.386 OA
ATOM     10  H   UNL     1       9.400   1.828  26.396  0.00  0.00    +0.210 HD
ENDBRANCH   5   9
BRANCH   4  11
ATOM     11  C   UNL     1       8.969  -1.497  25.288  0.00  0.00    +0.266 C 
BRANCH  11  12
ATOM     12  O   UNL     1       9.013  -1.071  23.921  0.00  0.00    -0.462 OA
BRANCH  12  13
ATOM     13  C   UNL     1       9.907  -1.724  23.131  0.00  0.00    +0.318 C 
ATOM     14  O   UNL     1      10.426  -2.804  23.380  0.00  0.00    -0.250 OA
BRANCH  13  15
ATOM     15  C   UNL     1      10.161  -0.950  21.880  0.00  0.00    +0.240 C 
BRANCH  15  16
ATOM     16  C   UNL     1       9.676   0.465  21.949  0.00  0.00    +0.316 C 
ATOM     17  O   UNL     1       8.824   0.967  21.233  0.00  0.00    -0.250 OA
BRANCH  16  18
ATOM     18  O   UNL     1      10.317   1.182  22.906  0.00  0.00    -0.480 OA
ATOM     19  H   UNL     1      10.727   2.011  22.594  0.00  0.00    +0.295 HD
ENDBRANCH  16  18
ENDBRANCH  15  16
ENDBRANCH  13  15
ENDBRANCH  12  13
ENDBRANCH  11  12
ENDBRANCH   4  11
BRANCH   2  20
ATOM     20  O   UNL     1       4.298  -1.367  25.612  0.00  0.00    -0.453 OA
BRANCH  20  21
ATOM     21  C   UNL     1       4.069  -2.648  26.120  0.00  0.00    +0.214 A 
ATOM     22  C   UNL     1       3.690  -2.746  27.581  0.00  0.00    +0.238 A 
ATOM     23  O   UNL     1       3.324  -1.747  28.192  0.00  0.00    -0.283 OA
ATOM     24  C   UNL     1       3.744  -4.085  28.239  0.00  0.00    +0.109 A 
ATOM     25  C   UNL     1       3.796  -5.191  27.433  0.00  0.00    +0.147 A 
ATOM     26  C   UNL     1       3.645  -6.504  27.958  0.00  0.00    +0.092 A 
ATOM     27  C   UNL     1       3.384  -6.695  29.310  0.00  0.00    +0.124 A 
ATOM     28  C   UNL     1       3.410  -5.601  30.143  0.00  0.00    +0.091 A 
ATOM     29  O   UNL     1       4.121  -5.074  26.111  0.00  0.00    -0.451 OA
ATOM     30  C   UNL     1       3.708  -4.340  29.607  0.00  0.00    +0.135 A 
ATOM     31  C   UNL     1       4.475  -3.822  25.567  0.00  0.00    +0.181 A 
BRANCH  31  32
ATOM     32  C   UNL     1       5.414  -4.008  24.405  0.00  0.00    +0.025 A 
ATOM     33  C   UNL     1       4.865  -4.076  23.098  0.00  0.00    +0.015 A 
ATOM     34  C   UNL     1       5.589  -4.554  21.999  0.00  0.00    +0.050 A 
ATOM     35  C   UNL     1       6.884  -4.983  22.192  0.00  0.00    +0.158 A 
ATOM     36  C   UNL     1       7.468  -4.884  23.450  0.00  0.00    +0.159 A 
ATOM     37  C   UNL     1       6.763  -4.380  24.549  0.00  0.00    +0.060 A 
BRANCH  36  38
ATOM     38  O   UNL     1       8.718  -5.416  23.616  0.00  0.00    -0.503 OA
ATOM     39  H   UNL     1       8.650  -6.316  23.245  0.00  0.00    +0.292 HD
ENDBRANCH  36  38
BRANCH  35  40
ATOM     40  O   UNL     1       7.551  -5.564  21.154  0.00  0.00    -0.503 OA
ATOM     41  H   UNL     1       8.034  -4.838  20.714  0.00  0.00    +0.292 HD
ENDBRANCH  35  40
ENDBRANCH  31  32
BRANCH  30  42
ATOM     42  O   UNL     1       4.181  -3.428  30.484  0.00  0.00    -0.506 OA
ATOM     43  H   UNL     1       4.747  -2.811  29.966  0.00  0.00    +0.292 HD
ENDBRANCH  30  42
BRANCH  27  44
ATOM     44  O   UNL     1       3.162  -7.909  29.885  0.00  0.00    -0.507 OA
ATOM     45  H   UNL     1       2.856  -8.538  29.210  0.00  0.00    +0.292 HD
ENDBRANCH  27  44
ENDBRANCH  20  21
ENDBRANCH   2  20
BRANCH   1  46
ATOM     46  O   UNL     1       4.668   1.346  24.844  0.00  0.00    -0.336 OA
BRANCH  46  48
ATOM     47  C   UNL     1       5.065   3.197  26.336  0.00  0.00    +0.263 C 
ATOM     48  C   UNL     1       4.366   1.791  26.158  0.00  0.00    +0.295 C 
ATOM     49  O   UNL     1       2.959   1.842  26.405  0.00  0.00    -0.340 OA
ATOM     50  C   UNL     1       2.519   2.420  27.657  0.00  0.00    +0.178 C 
ATOM     51  C   UNL     1       3.146   3.798  27.951  0.00  0.00    +0.178 C 
ATOM     52  C   UNL     1       4.658   3.724  27.737  0.00  0.00    +0.191 C 
BRANCH  52  53
ATOM     53  O   UNL     1       5.296   4.928  28.177  0.00  0.00    -0.385 OA
ATOM     54  H   UNL     1       4.801   5.678  27.846  0.00  0.00    +0.210 HD
ENDBRANCH  52  53
BRANCH  51  55
ATOM     55  O   UNL     1       2.852   4.205  29.299  0.00  0.00    -0.386 OA
ATOM     56  H   UNL     1       3.365   5.021  29.464  0.00  0.00    +0.210 HD
ENDBRANCH  51  55
BRANCH  50  57
ATOM     57  C   UNL     1       2.629   1.460  28.872  0.00  0.00    +0.190 C 
BRANCH  57  58
ATOM     58  O   UNL     1       1.523   0.562  28.946  0.00  0.00    -0.392 OA
ATOM     59  H   UNL     1       0.789   0.962  28.446  0.00  0.00    +0.210 HD
ENDBRANCH  57  58
ENDBRANCH  50  57
BRANCH  47  60
ATOM     60  O   UNL     1       5.111   4.100  25.139  0.00  0.00    -0.450 OA
BRANCH  60  61
ATOM     61  C   UNL     1       5.585   5.370  25.100  0.00  0.00    +0.332 C 
ATOM     62  O   UNL     1       4.888   6.354  25.331  0.00  0.00    -0.246 OA
BRANCH  61  64
ATOM     63  C   UNL     1       8.137   6.148  25.248  0.00  0.00    +0.015 C 
ATOM     64  C   UNL     1       7.065   5.509  24.703  0.00  0.00    +0.092 C 
BRANCH  63  66
ATOM     65  C   UNL     1      10.635   6.866  25.287  0.00  0.00    +0.012 A 
ATOM     66  C   UNL     1       9.591   6.049  24.796  0.00  0.00    -0.021 A 
ATOM     67  C   UNL     1      10.004   5.020  23.945  0.00  0.00    +0.057 A 
ATOM     68  C   UNL     1      11.344   4.880  23.524  0.00  0.00    +0.159 A 
ATOM     69  C   UNL     1      12.334   5.723  23.973  0.00  0.00    +0.158 A 
ATOM     70  C   UNL     1      11.997   6.706  24.884  0.00  0.00    +0.050 A 
BRANCH  69  71
ATOM     71  O   UNL     1      13.590   5.513  23.475  0.00  0.00    -0.503 OA
ATOM     72  H   UNL     1      13.568   5.614  22.509  0.00  0.00    +0.292 HD
ENDBRANCH  69  71
BRANCH  68  73
ATOM     73  O   UNL     1      11.707   3.933  22.593  0.00  0.00    -0.503 OA
ATOM     74  H   UNL     1      12.256   3.289  23.094  0.00  0.00    +0.292 HD
ENDBRANCH  68  73
ENDBRANCH  63  66
ENDBRANCH  61  64
ENDBRANCH  60  61
ENDBRANCH  47  60
ENDBRANCH  46  48
ENDBRANCH   1  46
TORSDOF 27
ENDMDL
MODEL 4
REMARK VINA RESULT:      -6.3      2.746      8.294
REMARK  Name = 
REMARK  27 active torsions:
REMARK  status: ('A' for Active; 'I' for Inactive)
REMARK    1  A    between atoms: C_3  and  O_68
REMARK    2  A    between atoms: C_4  and  O_67
REMARK    3  A    between atoms: C_6  and  C_7
REMARK    4  A    between atoms: C_8  and  C_9
REMARK    5  A    between atoms: C_9  and  O_11
REMARK    6  A    between atoms: O_11  and  C_12
REMARK    7  A    between atoms: C_13  and  O_66
REMARK    8  A    between atoms: C_15  and  O_65
REMARK    9  A    between atoms: C_17  and  C_63
REMARK   10  A    between atoms: C_19  and  O_21
REMARK   11  A    between atoms: O_21  and  C_22
REMARK   12  A    between atoms: C_23  and  O_62
REMARK   13  A    between atoms: C_25  and  O_61
REMARK   14  A    between atoms: C_27  and  C_53
REMARK   15  A    between atoms: C_29  and  O_31
REMARK   16  A    between atoms: O_31  and  C_32
REMARK   17  A    between atoms: C_33  and  C_45
REMARK   18  A    between atoms: C_37  and  O_44
REMARK   19  A    between atoms: C_39  and  O_43
REMARK   20  A    between atoms: C_47  and  O_52
REMARK   21  A    between atoms: C_48  and  O_51
REMARK   22  A    between atoms: C_53  and  O_54
REMARK   23  A    between atoms: O_54  and  C_55
REMARK   24  A    between atoms: C_55  and  C_57
REMARK   25  A    between atoms: C_57  and  C_58
REMARK   26  A    between atoms: C_58  and  O_60
REMARK   27  A    between atoms: C_63  and  O_64
REMARK                            x       y       z     vdW  Elec       q    Type
REMARK                         _______ _______ _______ _____ _____    ______ ____
ROOT
ATOM      1  C   UNL     1       6.877   0.973  27.058  0.00  0.00    +0.221 C 
ATOM      2  C   UNL     1       5.843  -0.058  26.438  0.00  0.00    +0.340 C 
ATOM      3  O   UNL     1       4.501   0.053  26.960  0.00  0.00    -0.330 OA
ATOM      4  C   UNL     1       4.253   0.383  28.341  0.00  0.00    +0.191 C 
ATOM      5  C   UNL     1       5.127   1.548  28.826  0.00  0.00    +0.178 C 
ATOM      6  C   UNL     1       6.586   1.185  28.563  0.00  0.00    +0.180 C 
ENDROOT
BRANCH   6   7
ATOM      7  O   UNL     1       7.461   2.093  29.243  0.00  0.00    -0.386 OA
ATOM      8  H   UNL     1       6.919   2.505  29.949  0.00  0.00    +0.210 HD
ENDBRANCH   6   7
BRANCH   5   9
ATOM      9  O   UNL     1       4.945   1.781  30.230  0.00  0.00    -0.386 OA
ATOM     10  H   UNL     1       5.814   2.043  30.586  0.00  0.00    +0.210 HD
ENDBRANCH   5   9
BRANCH   4  11
ATOM     11  C   UNL     1       4.318  -0.797  29.350  0.00  0.00    +0.266 C 
BRANCH  11  12
ATOM     12  O   UNL     1       4.541  -2.066  28.723  0.00  0.00    -0.462 OA
BRANCH  12  13
ATOM     13  C   UNL     1       3.600  -3.016  28.970  0.00  0.00    +0.318 C 
ATOM     14  O   UNL     1       2.514  -3.110  28.415  0.00  0.00    -0.250 OA
BRANCH  13  15
ATOM     15  C   UNL     1       4.084  -3.969  30.014  0.00  0.00    +0.240 C 
BRANCH  15  16
ATOM     16  C   UNL     1       5.107  -4.936  29.506  0.00  0.00    +0.316 C 
ATOM     17  O   UNL     1       5.501  -5.935  30.087  0.00  0.00    -0.250 OA
BRANCH  16  18
ATOM     18  O   UNL     1       5.602  -4.573  28.295  0.00  0.00    -0.480 OA
ATOM     19  H   UNL     1       4.932  -4.463  27.594  0.00  0.00    +0.295 HD
ENDBRANCH  16  18
ENDBRANCH  15  16
ENDBRANCH  13  15
ENDBRANCH  12  13
ENDBRANCH  11  12
ENDBRANCH   4  11
BRANCH   2  20
ATOM     20  O   UNL     1       5.786   0.038  24.981  0.00  0.00    -0.453 OA
BRANCH  20  21
ATOM     21  C   UNL     1       6.029  -1.117  24.234  0.00  0.00    +0.214 A 
ATOM     22  C   UNL     1       5.195  -2.335  24.565  0.00  0.00    +0.238 A 
ATOM     23  O   UNL     1       4.178  -2.220  25.242  0.00  0.00    -0.283 OA
ATOM     24  C   UNL     1       5.624  -3.658  24.022  0.00  0.00    +0.109 A 
ATOM     25  C   UNL     1       6.528  -3.663  22.993  0.00  0.00    +0.147 A 
ATOM     26  C   UNL     1       6.839  -4.853  22.281  0.00  0.00    +0.092 A 
ATOM     27  C   UNL     1       6.185  -6.043  22.579  0.00  0.00    +0.124 A 
ATOM     28  C   UNL     1       5.337  -6.071  23.662  0.00  0.00    +0.091 A 
ATOM     29  O   UNL     1       7.255  -2.544  22.700  0.00  0.00    -0.451 OA
ATOM     30  C   UNL     1       5.169  -4.909  24.429  0.00  0.00    +0.135 A 
ATOM     31  C   UNL     1       7.138  -1.383  23.493  0.00  0.00    +0.181 A 
BRANCH  31  32
ATOM     32  C   UNL     1       8.425  -0.602  23.461  0.00  0.00    +0.025 A 
ATOM     33  C   UNL     1       9.197  -0.525  24.650  0.00  0.00    +0.015 A 
ATOM     34  C   UNL     1      10.222   0.412  24.824  0.00  0.00    +0.050 A 
ATOM     35  C   UNL     1      10.490   1.301  23.807  0.00  0.00    +0.158 A 
ATOM     36  C   UNL     1       9.785   1.222  22.611  0.00  0.00    +0.159 A 
ATOM     37  C   UNL     1       8.779   0.269  22.415  0.00  0.00    +0.060 A 
BRANCH  36  38
ATOM     38  O   UNL     1      10.014   2.189  21.671  0.00  0.00    -0.503 OA
ATOM     39  H   UNL     1      10.036   3.022  22.179  0.00  0.00    +0.292 HD
ENDBRANCH  36  38
BRANCH  35  40
ATOM     40  O   UNL     1      11.401   2.294  24.018  0.00  0.00    -0.503 OA
ATOM     41  H   UNL     1      12.244   1.840  24.211  0.00  0.00    +0.292 HD
ENDBRANCH  35  40
ENDBRANCH  31  32
BRANCH  30  42
ATOM     42  O   UNL     1       4.738  -5.100  25.695  0.00  0.00    -0.506 OA
ATOM     43  H   UNL     1       5.541  -5.101  26.265  0.00  0.00    +0.292 HD
ENDBRANCH  30  42
BRANCH  27  44
ATOM     44  O   UNL     1       6.374  -7.212  21.907  0.00  0.00    -0.507 OA
ATOM     45  H   UNL     1       6.112  -7.959  22.472  0.00  0.00    +0.292 HD
ENDBRANCH  27  44
ENDBRANCH  20  21
ENDBRANCH   2  20
BRANCH   1  46
ATOM     46  O   UNL     1       7.297   2.084  26.252  0.00  0.00    -0.336 OA
BRANCH  46  48
ATOM     47  C   UNL     1       5.485   3.592  25.747  0.00  0.00    +0.263 C 
ATOM     48  C   UNL     1       6.579   2.619  25.150  0.00  0.00    +0.295 C 
ATOM     49  O   UNL     1       7.434   3.267  24.206  0.00  0.00    -0.340 OA
ATOM     50  C   UNL     1       6.808   3.982  23.114  0.00  0.00    +0.178 C 
ATOM     51  C   UNL     1       5.707   4.960  23.572  0.00  0.00    +0.178 C 
ATOM     52  C   UNL     1       4.764   4.247  24.540  0.00  0.00    +0.191 C 
BRANCH  52  53
ATOM     53  O   UNL     1       3.627   5.065  24.841  0.00  0.00    -0.385 OA
ATOM     54  H   UNL     1       3.856   5.660  25.555  0.00  0.00    +0.210 HD
ENDBRANCH  52  53
BRANCH  51  55
ATOM     55  O   UNL     1       4.975   5.457  22.437  0.00  0.00    -0.386 OA
ATOM     56  H   UNL     1       5.567   6.083  21.974  0.00  0.00    +0.210 HD
ENDBRANCH  51  55
BRANCH  50  57
ATOM     57  C   UNL     1       6.329   3.070  21.952  0.00  0.00    +0.190 C 
BRANCH  57  58
ATOM     58  O   UNL     1       5.635   1.918  22.428  0.00  0.00    -0.392 OA
ATOM     59  H   UNL     1       4.722   1.967  22.091  0.00  0.00    +0.210 HD
ENDBRANCH  57  58
ENDBRANCH  50  57
BRANCH  47  60
ATOM     60  O   UNL     1       5.860   4.386  26.963  0.00  0.00    -0.450 OA
BRANCH  60  61
ATOM     61  C   UNL     1       6.540   5.559  26.987  0.00  0.00    +0.332 C 
ATOM     62  O   UNL     1       6.106   6.576  27.522  0.00  0.00    -0.246 OA
BRANCH  61  64
ATOM     63  C   UNL     1       8.540   6.436  25.447  0.00  0.00    +0.015 C 
ATOM     64  C   UNL     1       7.894   5.551  26.257  0.00  0.00    +0.092 C 
BRANCH  63  66
ATOM     65  C   UNL     1      11.083   6.973  25.516  0.00  0.00    +0.012 A 
ATOM     66  C   UNL     1       9.970   6.328  24.927  0.00  0.00    -0.021 A 
ATOM     67  C   UNL     1      10.287   5.445  23.890  0.00  0.00    +0.057 A 
ATOM     68  C   UNL     1      11.602   5.297  23.399  0.00  0.00    +0.159 A 
ATOM     69  C   UNL     1      12.661   5.980  23.953  0.00  0.00    +0.158 A 
ATOM     70  C   UNL     1      12.418   6.801  25.037  0.00  0.00    +0.050 A 
BRANCH  69  71
ATOM     71  O   UNL     1      13.885   5.784  23.377  0.00  0.00    -0.503 OA
ATOM     72  H   UNL     1      14.521   6.407  23.766  0.00  0.00    +0.292 HD
ENDBRANCH  69  71
BRANCH  68  73
ATOM     73  O   UNL     1      11.873   4.513  22.300  0.00  0.00    -0.503 OA
ATOM     74  H   UNL     1      11.158   3.838  22.295  0.00  0.00    +0.292 HD
ENDBRANCH  68  73
ENDBRANCH  63  66
ENDBRANCH  61  64
ENDBRANCH  60  61
ENDBRANCH  47  60
ENDBRANCH  46  48
ENDBRANCH   1  46
TORSDOF 27
ENDMDL
MODEL 5
REMARK VINA RESULT:      -6.2      2.519      7.803
REMARK  Name = 
REMARK  27 active torsions:
REMARK  status: ('A' for Active; 'I' for Inactive)
REMARK    1  A    between atoms: C_3  and  O_68
REMARK    2  A    between atoms: C_4  and  O_67
REMARK    3  A    between atoms: C_6  and  C_7
REMARK    4  A    between atoms: C_8  and  C_9
REMARK    5  A    between atoms: C_9  and  O_11
REMARK    6  A    between atoms: O_11  and  C_12
REMARK    7  A    between atoms: C_13  and  O_66
REMARK    8  A    between atoms: C_15  and  O_65
REMARK    9  A    between atoms: C_17  and  C_63
REMARK   10  A    between atoms: C_19  and  O_21
REMARK   11  A    between atoms: O_21  and  C_22
REMARK   12  A    between atoms: C_23  and  O_62
REMARK   13  A    between atoms: C_25  and  O_61
REMARK   14  A    between atoms: C_27  and  C_53
REMARK   15  A    between atoms: C_29  and  O_31
REMARK   16  A    between atoms: O_31  and  C_32
REMARK   17  A    between atoms: C_33  and  C_45
REMARK   18  A    between atoms: C_37  and  O_44
REMARK   19  A    between atoms: C_39  and  O_43
REMARK   20  A    between atoms: C_47  and  O_52
REMARK   21  A    between atoms: C_48  and  O_51
REMARK   22  A    between atoms: C_53  and  O_54
REMARK   23  A    between atoms: O_54  and  C_55
REMARK   24  A    between atoms: C_55  and  C_57
REMARK   25  A    between atoms: C_57  and  C_58
REMARK   26  A    between atoms: C_58  and  O_60
REMARK   27  A    between atoms: C_63  and  O_64
REMARK                            x       y       z     vdW  Elec       q    Type
REMARK                         _______ _______ _______ _____ _____    ______ ____
ROOT
ATOM      1  C   UNL     1       6.050  -0.179  24.534  0.00  0.00    +0.221 C 
ATOM      2  C   UNL     1       5.692  -1.499  25.339  0.00  0.00    +0.340 C 
ATOM      3  O   UNL     1       6.466  -1.696  26.542  0.00  0.00    -0.330 OA
ATOM      4  C   UNL     1       7.854  -1.314  26.617  0.00  0.00    +0.191 C 
ATOM      5  C   UNL     1       8.107   0.079  26.025  0.00  0.00    +0.178 C 
ATOM      6  C   UNL     1       7.573   0.089  24.595  0.00  0.00    +0.180 C 
ENDROOT
BRANCH   6   7
ATOM      7  O   UNL     1       8.028   1.254  23.897  0.00  0.00    -0.386 OA
ATOM      8  H   UNL     1       8.715   1.655  24.469  0.00  0.00    +0.210 HD
ENDBRANCH   6   7
BRANCH   5   9
ATOM      9  O   UNL     1       9.509   0.386  26.007  0.00  0.00    -0.386 OA
ATOM     10  H   UNL     1       9.773   0.434  25.070  0.00  0.00    +0.210 HD
ENDBRANCH   5   9
BRANCH   4  11
ATOM     11  C   UNL     1       8.878  -2.337  26.048  0.00  0.00    +0.266 C 
BRANCH  11  12
ATOM     12  O   UNL     1       8.891  -3.580  26.761  0.00  0.00    -0.462 OA
BRANCH  12  13
ATOM     13  C   UNL     1       8.869  -4.699  25.990  0.00  0.00    +0.318 C 
ATOM     14  O   UNL     1       9.845  -5.355  25.650  0.00  0.00    -0.250 OA
BRANCH  13  15
ATOM     15  C   UNL     1       7.465  -5.050  25.621  0.00  0.00    +0.240 C 
BRANCH  15  16
ATOM     16  C   UNL     1       6.678  -5.622  26.758  0.00  0.00    +0.316 C 
ATOM     17  O   UNL     1       5.936  -6.591  26.702  0.00  0.00    -0.250 OA
BRANCH  16  18
ATOM     18  O   UNL     1       6.850  -4.921  27.907  0.00  0.00    -0.480 OA
ATOM     19  H   UNL     1       7.506  -4.201  27.855  0.00  0.00    +0.295 HD
ENDBRANCH  16  18
ENDBRANCH  15  16
ENDBRANCH  13  15
ENDBRANCH  12  13
ENDBRANCH  11  12
ENDBRANCH   4  11
BRANCH   2  20
ATOM     20  O   UNL     1       4.273  -1.558  25.682  0.00  0.00    -0.453 OA
BRANCH  20  21
ATOM     21  C   UNL     1       3.770  -2.750  26.207  0.00  0.00    +0.214 A 
ATOM     22  C   UNL     1       3.723  -2.868  27.715  0.00  0.00    +0.238 A 
ATOM     23  O   UNL     1       3.845  -1.868  28.416  0.00  0.00    -0.283 OA
ATOM     24  C   UNL     1       3.494  -4.217  28.314  0.00  0.00    +0.109 A 
ATOM     25  C   UNL     1       3.004  -5.202  27.500  0.00  0.00    +0.147 A 
ATOM     26  C   UNL     1       2.565  -6.450  28.021  0.00  0.00    +0.092 A 
ATOM     27  C   UNL     1       2.572  -6.681  29.392  0.00  0.00    +0.124 A 
ATOM     28  C   UNL     1       3.136  -5.733  30.213  0.00  0.00    +0.091 A 
ATOM     29  O   UNL     1       3.039  -5.064  26.141  0.00  0.00    -0.451 OA
ATOM     30  C   UNL     1       3.691  -4.578  29.644  0.00  0.00    +0.135 A 
ATOM     31  C   UNL     1       3.640  -3.934  25.549  0.00  0.00    +0.181 A 
BRANCH  31  32
ATOM     32  C   UNL     1       4.179  -4.286  24.188  0.00  0.00    +0.025 A 
ATOM     33  C   UNL     1       4.147  -5.645  23.781  0.00  0.00    +0.015 A 
ATOM     34  C   UNL     1       4.890  -6.126  22.697  0.00  0.00    +0.050 A 
ATOM     35  C   UNL     1       5.693  -5.248  22.000  0.00  0.00    +0.158 A 
ATOM     36  C   UNL     1       5.710  -3.901  22.343  0.00  0.00    +0.159 A 
ATOM     37  C   UNL     1       4.946  -3.405  23.405  0.00  0.00    +0.060 A 
BRANCH  36  38
ATOM     38  O   UNL     1       6.596  -3.090  21.690  0.00  0.00    -0.503 OA
ATOM     39  H   UNL     1       7.008  -2.559  22.398  0.00  0.00    +0.292 HD
ENDBRANCH  36  38
BRANCH  35  40
ATOM     40  O   UNL     1       6.512  -5.734  21.024  0.00  0.00    -0.503 OA
ATOM     41  H   UNL     1       6.997  -4.959  20.679  0.00  0.00    +0.292 HD
ENDBRANCH  35  40
ENDBRANCH  31  32
BRANCH  30  42
ATOM     42  O   UNL     1       4.619  -3.943  30.393  0.00  0.00    -0.506 OA
ATOM     43  H   UNL     1       4.707  -3.037  30.019  0.00  0.00    +0.292 HD
ENDBRANCH  30  42
BRANCH  27  44
ATOM     44  O   UNL     1       2.111  -7.818  29.981  0.00  0.00    -0.507 OA
ATOM     45  H   UNL     1       2.428  -7.862  30.899  0.00  0.00    +0.292 HD
ENDBRANCH  27  44
ENDBRANCH  20  21
ENDBRANCH   2  20
BRANCH   1  46
ATOM     46  O   UNL     1       5.132   0.923  24.590  0.00  0.00    -0.336 OA
BRANCH  46  48
ATOM     47  C   UNL     1       5.387   3.172  25.420  0.00  0.00    +0.263 C 
ATOM     48  C   UNL     1       4.865   1.714  25.739  0.00  0.00    +0.295 C 
ATOM     49  O   UNL     1       3.484   1.693  26.105  0.00  0.00    -0.340 OA
ATOM     50  C   UNL     1       3.059   2.578  27.169  0.00  0.00    +0.178 C 
ATOM     51  C   UNL     1       3.521   4.037  26.976  0.00  0.00    +0.178 C 
ATOM     52  C   UNL     1       5.012   4.057  26.637  0.00  0.00    +0.191 C 
BRANCH  52  53
ATOM     53  O   UNL     1       5.517   5.397  26.634  0.00  0.00    -0.385 OA
ATOM     54  H   UNL     1       5.598   5.693  25.727  0.00  0.00    +0.210 HD
ENDBRANCH  52  53
BRANCH  51  55
ATOM     55  O   UNL     1       3.270   4.803  28.168  0.00  0.00    -0.386 OA
ATOM     56  H   UNL     1       2.335   5.087  28.127  0.00  0.00    +0.210 HD
ENDBRANCH  51  55
BRANCH  50  57
ATOM     57  C   UNL     1       3.375   2.051  28.595  0.00  0.00    +0.190 C 
BRANCH  57  58
ATOM     58  O   UNL     1       2.954   0.700  28.772  0.00  0.00    -0.392 OA
ATOM     59  H   UNL     1       3.083   0.241  27.922  0.00  0.00    +0.210 HD
ENDBRANCH  57  58
ENDBRANCH  50  57
BRANCH  47  60
ATOM     60  O   UNL     1       5.233   3.666  24.012  0.00  0.00    -0.450 OA
BRANCH  60  61
ATOM     61  C   UNL     1       5.727   4.821  23.500  0.00  0.00    +0.332 C 
ATOM     62  O   UNL     1       5.013   5.742  23.113  0.00  0.00    -0.246 OA
BRANCH  61  64
ATOM     63  C   UNL     1       8.259   5.164  24.282  0.00  0.00    +0.015 C 
ATOM     64  C   UNL     1       7.260   4.894  23.396  0.00  0.00    +0.092 C 
BRANCH  63  66
ATOM     65  C   UNL     1      10.372   3.936  23.396  0.00  0.00    +0.012 A 
ATOM     66  C   UNL     1       9.760   5.037  24.037  0.00  0.00    -0.021 A 
ATOM     67  C   UNL     1      10.621   6.102  24.321  0.00  0.00    +0.057 A 
ATOM     68  C   UNL     1      12.010   6.033  24.085  0.00  0.00    +0.159 A 
ATOM     69  C   UNL     1      12.592   4.926  23.511  0.00  0.00    +0.158 A 
ATOM     70  C   UNL     1      11.775   3.878  23.130  0.00  0.00    +0.050 A 
BRANCH  69  71
ATOM     71  O   UNL     1      13.950   4.956  23.357  0.00  0.00    -0.503 OA
ATOM     72  H   UNL     1      14.345   5.396  24.129  0.00  0.00    +0.292 HD
ENDBRANCH  69  71
BRANCH  68  73
ATOM     73  O   UNL     1      12.856   7.045  24.481  0.00  0.00    -0.503 OA
ATOM     74  H   UNL     1      12.593   7.239  25.409  0.00  0.00    +0.292 HD
ENDBRANCH  68  73
ENDBRANCH  63  66
ENDBRANCH  61  64
ENDBRANCH  60  61
ENDBRANCH  47  60
ENDBRANCH  46  48
ENDBRANCH   1  46
TORSDOF 27
ENDMDL
MODEL 6
REMARK VINA RESULT:      -5.9      2.326      8.882
REMARK  Name = 
REMARK  27 active torsions:
REMARK  status: ('A' for Active; 'I' for Inactive)
REMARK    1  A    between atoms: C_3  and  O_68
REMARK    2  A    between atoms: C_4  and  O_67
REMARK    3  A    between atoms: C_6  and  C_7
REMARK    4  A    between atoms: C_8  and  C_9
REMARK    5  A    between atoms: C_9  and  O_11
REMARK    6  A    between atoms: O_11  and  C_12
REMARK    7  A    between atoms: C_13  and  O_66
REMARK    8  A    between atoms: C_15  and  O_65
REMARK    9  A    between atoms: C_17  and  C_63
REMARK   10  A    between atoms: C_19  and  O_21
REMARK   11  A    between atoms: O_21  and  C_22
REMARK   12  A    between atoms: C_23  and  O_62
REMARK   13  A    between atoms: C_25  and  O_61
REMARK   14  A    between atoms: C_27  and  C_53
REMARK   15  A    between atoms: C_29  and  O_31
REMARK   16  A    between atoms: O_31  and  C_32
REMARK   17  A    between atoms: C_33  and  C_45
REMARK   18  A    between atoms: C_37  and  O_44
REMARK   19  A    between atoms: C_39  and  O_43
REMARK   20  A    between atoms: C_47  and  O_52
REMARK   21  A    between atoms: C_48  and  O_51
REMARK   22  A    between atoms: C_53  and  O_54
REMARK   23  A    between atoms: O_54  and  C_55
REMARK   24  A    between atoms: C_55  and  C_57
REMARK   25  A    between atoms: C_57  and  C_58
REMARK   26  A    between atoms: C_58  and  O_60
REMARK   27  A    between atoms: C_63  and  O_64
REMARK                            x       y       z     vdW  Elec       q    Type
REMARK                         _______ _______ _______ _____ _____    ______ ____
ROOT
ATOM      1  C   UNL     1       4.105  -2.279  27.984  0.00  0.00    +0.221 C 
ATOM      2  C   UNL     1       3.570  -3.064  26.713  0.00  0.00    +0.340 C 
ATOM      3  O   UNL     1       2.156  -3.357  26.741  0.00  0.00    -0.330 OA
ATOM      4  C   UNL     1       1.479  -3.687  27.970  0.00  0.00    +0.191 C 
ATOM      5  C   UNL     1       1.865  -2.745  29.118  0.00  0.00    +0.178 C 
ATOM      6  C   UNL     1       3.385  -2.774  29.261  0.00  0.00    +0.180 C 
ENDROOT
BRANCH   6   7
ATOM      7  O   UNL     1       3.787  -2.146  30.485  0.00  0.00    -0.386 OA
ATOM      8  H   UNL     1       4.761  -2.049  30.425  0.00  0.00    +0.210 HD
ENDBRANCH   6   7
BRANCH   5   9
ATOM      9  O   UNL     1       1.267  -3.165  30.354  0.00  0.00    -0.386 OA
ATOM     10  H   UNL     1       0.303  -3.082  30.241  0.00  0.00    +0.210 HD
ENDBRANCH   5   9
BRANCH   4  11
ATOM     11  C   UNL     1       1.576  -5.169  28.430  0.00  0.00    +0.266 C 
BRANCH  11  12
ATOM     12  O   UNL     1       2.878  -5.737  28.234  0.00  0.00    -0.462 OA
BRANCH  12  13
ATOM     13  C   UNL     1       3.263  -6.653  29.162  0.00  0.00    +0.318 C 
ATOM     14  O   UNL     1       2.681  -7.698  29.422  0.00  0.00    -0.250 OA
BRANCH  13  15
ATOM     15  C   UNL     1       4.533  -6.224  29.822  0.00  0.00    +0.240 C 
BRANCH  15  16
ATOM     16  C   UNL     1       5.750  -6.478  28.989  0.00  0.00    +0.316 C 
ATOM     17  O   UNL     1       6.651  -5.683  28.775  0.00  0.00    -0.250 OA
BRANCH  16  18
ATOM     18  O   UNL     1       5.751  -7.721  28.445  0.00  0.00    -0.480 OA
ATOM     19  H   UNL     1       5.921  -8.446  29.076  0.00  0.00    +0.295 HD
ENDBRANCH  16  18
ENDBRANCH  15  16
ENDBRANCH  13  15
ENDBRANCH  12  13
ENDBRANCH  11  12
ENDBRANCH   4  11
BRANCH   2  20
ATOM     20  O   UNL     1       3.876  -2.358  25.471  0.00  0.00    -0.453 OA
BRANCH  20  21
ATOM     21  C   UNL     1       5.171  -2.456  24.957  0.00  0.00    +0.214 A 
ATOM     22  C   UNL     1       5.811  -1.176  24.467  0.00  0.00    +0.238 A 
ATOM     23  O   UNL     1       5.330  -0.089  24.775  0.00  0.00    -0.283 OA
ATOM     24  C   UNL     1       7.046  -1.273  23.635  0.00  0.00    +0.109 A 
ATOM     25  C   UNL     1       7.727  -2.462  23.640  0.00  0.00    +0.147 A 
ATOM     26  C   UNL     1       9.013  -2.587  23.046  0.00  0.00    +0.092 A 
ATOM     27  C   UNL     1       9.641  -1.478  22.488  0.00  0.00    +0.124 A 
ATOM     28  C   UNL     1       8.937  -0.300  22.404  0.00  0.00    +0.091 A 
ATOM     29  O   UNL     1       7.134  -3.601  24.107  0.00  0.00    -0.451 OA
ATOM     30  C   UNL     1       7.614  -0.258  22.871  0.00  0.00    +0.135 A 
ATOM     31  C   UNL     1       5.789  -3.589  24.530  0.00  0.00    +0.181 A 
BRANCH  31  32
ATOM     32  C   UNL     1       5.170  -4.947  24.329  0.00  0.00    +0.025 A 
ATOM     33  C   UNL     1       4.494  -5.206  23.108  0.00  0.00    +0.015 A 
ATOM     34  C   UNL     1       3.628  -6.293  22.941  0.00  0.00    +0.050 A 
ATOM     35  C   UNL     1       3.417  -7.144  24.004  0.00  0.00    +0.158 A 
ATOM     36  C   UNL     1       4.101  -6.946  25.198  0.00  0.00    +0.159 A 
ATOM     37  C   UNL     1       4.992  -5.880  25.366  0.00  0.00    +0.060 A 
BRANCH  36  38
ATOM     38  O   UNL     1       3.782  -7.754  26.255  0.00  0.00    -0.503 OA
ATOM     39  H   UNL     1       4.549  -8.350  26.347  0.00  0.00    +0.292 HD
ENDBRANCH  36  38
BRANCH  35  40
ATOM     40  O   UNL     1       2.482  -8.130  23.887  0.00  0.00    -0.503 OA
ATOM     41  H   UNL     1       2.630  -8.724  24.648  0.00  0.00    +0.292 HD
ENDBRANCH  35  40
ENDBRANCH  31  32
BRANCH  30  42
ATOM     42  O   UNL     1       6.841   0.720  22.351  0.00  0.00    -0.506 OA
ATOM     43  H   UNL     1       7.410   1.520  22.285  0.00  0.00    +0.292 HD
ENDBRANCH  30  42
BRANCH  27  44
ATOM     44  O   UNL     1      10.894  -1.493  21.958  0.00  0.00    -0.507 OA
ATOM     45  H   UNL     1      11.117  -2.394  21.672  0.00  0.00    +0.292 HD
ENDBRANCH  27  44
ENDBRANCH  20  21
ENDBRANCH   2  20
BRANCH   1  46
ATOM     46  O   UNL     1       4.422  -0.887  27.842  0.00  0.00    -0.336 OA
BRANCH  46  48
ATOM     47  C   UNL     1       4.041   1.177  29.028  0.00  0.00    +0.263 C 
ATOM     48  C   UNL     1       3.492   0.182  27.929  0.00  0.00    +0.295 C 
ATOM     49  O   UNL     1       3.276   0.821  26.669  0.00  0.00    -0.340 OA
ATOM     50  C   UNL     1       2.463   2.018  26.654  0.00  0.00    +0.178 C 
ATOM     51  C   UNL     1       2.897   3.067  27.698  0.00  0.00    +0.178 C 
ATOM     52  C   UNL     1       3.074   2.389  29.057  0.00  0.00    +0.191 C 
BRANCH  52  53
ATOM     53  O   UNL     1       3.295   3.359  30.087  0.00  0.00    -0.385 OA
ATOM     54  H   UNL     1       3.663   2.917  30.852  0.00  0.00    +0.210 HD
ENDBRANCH  52  53
BRANCH  51  55
ATOM     55  O   UNL     1       1.917   4.118  27.789  0.00  0.00    -0.386 OA
ATOM     56  H   UNL     1       1.328   3.888  28.534  0.00  0.00    +0.210 HD
ENDBRANCH  51  55
BRANCH  50  57
ATOM     57  C   UNL     1       0.935   1.747  26.702  0.00  0.00    +0.190 C 
BRANCH  57  58
ATOM     58  O   UNL     1       0.445   1.229  25.466  0.00  0.00    -0.392 OA
ATOM     59  H   UNL     1      -0.171   1.887  25.097  0.00  0.00    +0.210 HD
ENDBRANCH  57  58
ENDBRANCH  50  57
BRANCH  47  60
ATOM     60  O   UNL     1       5.528   1.356  29.113  0.00  0.00    -0.450 OA
BRANCH  60  61
ATOM     61  C   UNL     1       6.192   2.513  29.353  0.00  0.00    +0.332 C 
ATOM     62  O   UNL     1       6.110   3.127  30.414  0.00  0.00    -0.246 OA
BRANCH  61  64
ATOM     63  C   UNL     1       6.786   3.300  26.869  0.00  0.00    +0.015 C 
ATOM     64  C   UNL     1       7.039   3.042  28.183  0.00  0.00    +0.092 C 
BRANCH  63  66
ATOM     65  C   UNL     1       8.165   5.318  25.984  0.00  0.00    +0.012 A 
ATOM     66  C   UNL     1       7.719   3.981  25.873  0.00  0.00    -0.021 A 
ATOM     67  C   UNL     1       8.312   3.251  24.838  0.00  0.00    +0.057 A 
ATOM     68  C   UNL     1       9.200   3.839  23.911  0.00  0.00    +0.159 A 
ATOM     69  C   UNL     1       9.575   5.159  24.008  0.00  0.00    +0.158 A 
ATOM     70  C   UNL     1       9.086   5.906  25.063  0.00  0.00    +0.050 A 
BRANCH  69  71
ATOM     71  O   UNL     1      10.416   5.630  23.038  0.00  0.00    -0.503 OA
ATOM     72  H   UNL     1      10.602   6.569  23.209  0.00  0.00    +0.292 HD
ENDBRANCH  69  71
BRANCH  68  73
ATOM     73  O   UNL     1       9.679   3.133  22.830  0.00  0.00    -0.503 OA
ATOM     74  H   UNL     1       9.105   3.407  22.081  0.00  0.00    +0.292 HD
ENDBRANCH  68  73
ENDBRANCH  63  66
ENDBRANCH  61  64
ENDBRANCH  60  61
ENDBRANCH  47  60
ENDBRANCH  46  48
ENDBRANCH   1  46
TORSDOF 27
ENDMDL
MODEL 7
REMARK VINA RESULT:      -5.8      2.154      5.401
REMARK  Name = 
REMARK  27 active torsions:
REMARK  status: ('A' for Active; 'I' for Inactive)
REMARK    1  A    between atoms: C_3  and  O_68
REMARK    2  A    between atoms: C_4  and  O_67
REMARK    3  A    between atoms: C_6  and  C_7
REMARK    4  A    between atoms: C_8  and  C_9
REMARK    5  A    between atoms: C_9  and  O_11
REMARK    6  A    between atoms: O_11  and  C_12
REMARK    7  A    between atoms: C_13  and  O_66
REMARK    8  A    between atoms: C_15  and  O_65
REMARK    9  A    between atoms: C_17  and  C_63
REMARK   10  A    between atoms: C_19  and  O_21
REMARK   11  A    between atoms: O_21  and  C_22
REMARK   12  A    between atoms: C_23  and  O_62
REMARK   13  A    between atoms: C_25  and  O_61
REMARK   14  A    between atoms: C_27  and  C_53
REMARK   15  A    between atoms: C_29  and  O_31
REMARK   16  A    between atoms: O_31  and  C_32
REMARK   17  A    between atoms: C_33  and  C_45
REMARK   18  A    between atoms: C_37  and  O_44
REMARK   19  A    between atoms: C_39  and  O_43
REMARK   20  A    between atoms: C_47  and  O_52
REMARK   21  A    between atoms: C_48  and  O_51
REMARK   22  A    between atoms: C_53  and  O_54
REMARK   23  A    between atoms: O_54  and  C_55
REMARK   24  A    between atoms: C_55  and  C_57
REMARK   25  A    between atoms: C_57  and  C_58
REMARK   26  A    between atoms: C_58  and  O_60
REMARK   27  A    between atoms: C_63  and  O_64
REMARK                            x       y       z     vdW  Elec       q    Type
REMARK                         _______ _______ _______ _____ _____    ______ ____
ROOT
ATOM      1  C   UNL     1       7.817  -0.233  23.281  0.00  0.00    +0.221 C 
ATOM      2  C   UNL     1       7.094   0.816  24.227  0.00  0.00    +0.340 C 
ATOM      3  O   UNL     1       7.207   2.190  23.795  0.00  0.00    -0.330 OA
ATOM      4  C   UNL     1       8.405   2.686  23.165  0.00  0.00    +0.191 C 
ATOM      5  C   UNL     1       8.937   1.729  22.090  0.00  0.00    +0.178 C 
ATOM      6  C   UNL     1       9.138   0.360  22.735  0.00  0.00    +0.180 C 
ENDROOT
BRANCH   6   7
ATOM      7  O   UNL     1       9.894  -0.497  21.870  0.00  0.00    -0.386 OA
ATOM      8  H   UNL     1       9.647  -0.236  20.958  0.00  0.00    +0.210 HD
ENDBRANCH   6   7
BRANCH   5   9
ATOM      9  O   UNL     1      10.189   2.190  21.561  0.00  0.00    -0.386 OA
ATOM     10  H   UNL     1      10.146   2.071  20.594  0.00  0.00    +0.210 HD
ENDBRANCH   5   9
BRANCH   4  11
ATOM     11  C   UNL     1       9.553   3.118  24.120  0.00  0.00    +0.266 C 
BRANCH  11  12
ATOM     12  O   UNL     1      10.034   4.444  23.863  0.00  0.00    -0.462 OA
BRANCH  12  13
ATOM     13  C   UNL     1       9.278   5.451  24.376  0.00  0.00    +0.318 C 
ATOM     14  O   UNL     1       8.926   5.559  25.543  0.00  0.00    -0.250 OA
BRANCH  13  15
ATOM     15  C   UNL     1       8.947   6.447  23.314  0.00  0.00    +0.240 C 
BRANCH  15  16
ATOM     16  C   UNL     1       7.610   6.217  22.681  0.00  0.00    +0.316 C 
ATOM     17  O   UNL     1       7.336   6.385  21.503  0.00  0.00    -0.250 OA
BRANCH  16  18
ATOM     18  O   UNL     1       6.679   5.810  23.579  0.00  0.00    -0.480 OA
ATOM     19  H   UNL     1       7.040   5.439  24.406  0.00  0.00    +0.295 HD
ENDBRANCH  16  18
ENDBRANCH  15  16
ENDBRANCH  13  15
ENDBRANCH  12  13
ENDBRANCH  11  12
ENDBRANCH   4  11
BRANCH   2  20
ATOM     20  O   UNL     1       5.680   0.499  24.408  0.00  0.00    -0.453 OA
BRANCH  20  21
ATOM     21  C   UNL     1       5.273  -0.024  25.638  0.00  0.00    +0.214 A 
ATOM     22  C   UNL     1       4.523  -1.338  25.608  0.00  0.00    +0.238 A 
ATOM     23  O   UNL     1       4.536  -2.032  24.596  0.00  0.00    -0.283 OA
ATOM     24  C   UNL     1       3.804  -1.772  26.842  0.00  0.00    +0.109 A 
ATOM     25  C   UNL     1       4.129  -1.156  28.021  0.00  0.00    +0.147 A 
ATOM     26  C   UNL     1       3.651  -1.637  29.270  0.00  0.00    +0.092 A 
ATOM     27  C   UNL     1       2.876  -2.791  29.330  0.00  0.00    +0.124 A 
ATOM     28  C   UNL     1       2.475  -3.372  28.150  0.00  0.00    +0.091 A 
ATOM     29  O   UNL     1       4.825   0.020  28.022  0.00  0.00    -0.451 OA
ATOM     30  C   UNL     1       2.849  -2.781  26.934  0.00  0.00    +0.135 A 
ATOM     31  C   UNL     1       5.162   0.656  26.810  0.00  0.00    +0.181 A 
BRANCH  31  32
ATOM     32  C   UNL     1       5.261   2.144  27.016  0.00  0.00    +0.025 A 
ATOM     33  C   UNL     1       4.439   2.991  26.226  0.00  0.00    +0.015 A 
ATOM     34  C   UNL     1       4.668   4.366  26.106  0.00  0.00    +0.050 A 
ATOM     35  C   UNL     1       5.736   4.924  26.774  0.00  0.00    +0.158 A 
ATOM     36  C   UNL     1       6.531   4.132  27.595  0.00  0.00    +0.159 A 
ATOM     37  C   UNL     1       6.294   2.761  27.745  0.00  0.00    +0.060 A 
BRANCH  36  38
ATOM     38  O   UNL     1       7.639   4.707  28.155  0.00  0.00    -0.503 OA
ATOM     39  H   UNL     1       8.237   3.958  28.336  0.00  0.00    +0.292 HD
ENDBRANCH  36  38
BRANCH  35  40
ATOM     40  O   UNL     1       6.037   6.237  26.563  0.00  0.00    -0.503 OA
ATOM     41  H   UNL     1       6.577   6.254  25.749  0.00  0.00    +0.292 HD
ENDBRANCH  35  40
ENDBRANCH  31  32
BRANCH  30  42
ATOM     42  O   UNL     1       2.070  -3.082  25.873  0.00  0.00    -0.506 OA
ATOM     43  H   UNL     1       2.564  -3.751  25.345  0.00  0.00    +0.292 HD
ENDBRANCH  30  42
BRANCH  27  44
ATOM     44  O   UNL     1       2.431  -3.357  30.485  0.00  0.00    -0.507 OA
ATOM     45  H   UNL     1       1.482  -3.176  30.592  0.00  0.00    +0.292 HD
ENDBRANCH  27  44
ENDBRANCH  20  21
ENDBRANCH   2  20
BRANCH   1  46
ATOM     46  O   UNL     1       7.006  -1.059  22.434  0.00  0.00    -0.336 OA
BRANCH  46  48
ATOM     47  C   UNL     1       7.972  -2.989  23.508  0.00  0.00    +0.263 C 
ATOM     48  C   UNL     1       7.158  -2.460  22.260  0.00  0.00    +0.295 C 
ATOM     49  O   UNL     1       5.905  -3.128  22.098  0.00  0.00    -0.340 OA
ATOM     50  C   UNL     1       5.916  -4.575  22.061  0.00  0.00    +0.178 C 
ATOM     51  C   UNL     1       6.696  -5.213  23.229  0.00  0.00    +0.178 C 
ATOM     52  C   UNL     1       8.058  -4.531  23.364  0.00  0.00    +0.191 C 
BRANCH  52  53
ATOM     53  O   UNL     1       8.881  -5.217  24.314  0.00  0.00    -0.385 OA
ATOM     54  H   UNL     1       8.652  -6.147  24.306  0.00  0.00    +0.210 HD
ENDBRANCH  52  53
BRANCH  51  55
ATOM     55  O   UNL     1       6.865  -6.625  23.007  0.00  0.00    -0.386 OA
ATOM     56  H   UNL     1       6.094  -7.067  23.414  0.00  0.00    +0.210 HD
ENDBRANCH  51  55
BRANCH  50  57
ATOM     57  C   UNL     1       6.334  -5.171  20.689  0.00  0.00    +0.190 C 
BRANCH  57  58
ATOM     58  O   UNL     1       5.564  -6.322  20.350  0.00  0.00    -0.392 OA
ATOM     59  H   UNL     1       6.187  -7.019  20.073  0.00  0.00    +0.210 HD
ENDBRANCH  57  58
ENDBRANCH  50  57
BRANCH  47  60
ATOM     60  O   UNL     1       7.704  -2.337  24.832  0.00  0.00    -0.450 OA
BRANCH  60  61
ATOM     61  C   UNL     1       8.133  -2.762  26.046  0.00  0.00    +0.332 C 
ATOM     62  O   UNL     1       9.253  -2.516  26.486  0.00  0.00    -0.246 OA
BRANCH  61  64
ATOM     63  C   UNL     1       6.188  -4.541  26.488  0.00  0.00    +0.015 C 
ATOM     64  C   UNL     1       7.130  -3.620  26.836  0.00  0.00    +0.092 C 
BRANCH  63  66
ATOM     65  C   UNL     1       5.551  -5.462  28.833  0.00  0.00    +0.012 A 
ATOM     66  C   UNL     1       5.376  -5.423  27.431  0.00  0.00    -0.021 A 
ATOM     67  C   UNL     1       4.288  -6.162  26.956  0.00  0.00    +0.057 A 
ATOM     68  C   UNL     1       3.497  -6.970  27.801  0.00  0.00    +0.159 A 
ATOM     69  C   UNL     1       3.723  -7.035  29.157  0.00  0.00    +0.158 A 
ATOM     70  C   UNL     1       4.732  -6.258  29.693  0.00  0.00    +0.050 A 
BRANCH  69  71
ATOM     71  O   UNL     1       2.915  -7.874  29.874  0.00  0.00    -0.503 OA
ATOM     72  H   UNL     1       1.988  -7.684  29.653  0.00  0.00    +0.292 HD
ENDBRANCH  69  71
BRANCH  68  73
ATOM     73  O   UNL     1       2.506  -7.781  27.296  0.00  0.00    -0.503 OA
ATOM     74  H   UNL     1       1.819  -7.158  26.969  0.00  0.00    +0.292 HD
ENDBRANCH  68  73
ENDBRANCH  63  66
ENDBRANCH  61  64
ENDBRANCH  60  61
ENDBRANCH  47  60
ENDBRANCH  46  48
ENDBRANCH   1  46
TORSDOF 27
ENDMDL
MODEL 8
REMARK VINA RESULT:      -5.6      2.572      8.828
REMARK  Name = 
REMARK  27 active torsions:
REMARK  status: ('A' for Active; 'I' for Inactive)
REMARK    1  A    between atoms: C_3  and  O_68
REMARK    2  A    between atoms: C_4  and  O_67
REMARK    3  A    between atoms: C_6  and  C_7
REMARK    4  A    between atoms: C_8  and  C_9
REMARK    5  A    between atoms: C_9  and  O_11
REMARK    6  A    between atoms: O_11  and  C_12
REMARK    7  A    between atoms: C_13  and  O_66
REMARK    8  A    between atoms: C_15  and  O_65
REMARK    9  A    between atoms: C_17  and  C_63
REMARK   10  A    between atoms: C_19  and  O_21
REMARK   11  A    between atoms: O_21  and  C_22
REMARK   12  A    between atoms: C_23  and  O_62
REMARK   13  A    between atoms: C_25  and  O_61
REMARK   14  A    between atoms: C_27  and  C_53
REMARK   15  A    between atoms: C_29  and  O_31
REMARK   16  A    between atoms: O_31  and  C_32
REMARK   17  A    between atoms: C_33  and  C_45
REMARK   18  A    between atoms: C_37  and  O_44
REMARK   19  A    between atoms: C_39  and  O_43
REMARK   20  A    between atoms: C_47  and  O_52
REMARK   21  A    between atoms: C_48  and  O_51
REMARK   22  A    between atoms: C_53  and  O_54
REMARK   23  A    between atoms: O_54  and  C_55
REMARK   24  A    between atoms: C_55  and  C_57
REMARK   25  A    between atoms: C_57  and  C_58
REMARK   26  A    between atoms: C_58  and  O_60
REMARK   27  A    between atoms: C_63  and  O_64
REMARK                            x       y       z     vdW  Elec       q    Type
REMARK                         _______ _______ _______ _____ _____    ______ ____
ROOT
ATOM      1  C   UNL     1       4.107  -1.899  27.672  0.00  0.00    +0.221 C 
ATOM      2  C   UNL     1       3.810  -2.385  26.190  0.00  0.00    +0.340 C 
ATOM      3  O   UNL     1       2.409  -2.564  25.887  0.00  0.00    -0.330 OA
ATOM      4  C   UNL     1       1.482  -3.063  26.872  0.00  0.00    +0.191 C 
ATOM      5  C   UNL     1       1.666  -2.387  28.238  0.00  0.00    +0.178 C 
ATOM      6  C   UNL     1       3.122  -2.566  28.661  0.00  0.00    +0.180 C 
ENDROOT
BRANCH   6   7
ATOM      7  O   UNL     1       3.292  -2.213  30.039  0.00  0.00    -0.386 OA
ATOM      8  H   UNL     1       4.222  -2.434  30.257  0.00  0.00    +0.210 HD
ENDBRANCH   6   7
BRANCH   5   9
ATOM      9  O   UNL     1       0.812  -2.982  29.227  0.00  0.00    -0.386 OA
ATOM     10  H   UNL     1       0.879  -3.947  29.112  0.00  0.00    +0.210 HD
ENDBRANCH   5   9
BRANCH   4  11
ATOM     11  C   UNL     1       1.422  -4.607  27.037  0.00  0.00    +0.266 C 
BRANCH  11  12
ATOM     12  O   UNL     1       2.457  -5.293  26.319  0.00  0.00    -0.462 OA
BRANCH  12  13
ATOM     13  C   UNL     1       2.069  -6.422  25.668  0.00  0.00    +0.318 C 
ATOM     14  O   UNL     1       2.514  -7.546  25.858  0.00  0.00    -0.250 OA
BRANCH  13  15
ATOM     15  C   UNL     1       0.987  -6.113  24.687  0.00  0.00    +0.240 C 
BRANCH  15  16
ATOM     16  C   UNL     1       1.405  -6.302  23.262  0.00  0.00    +0.316 C 
ATOM     17  O   UNL     1       1.027  -5.638  22.310  0.00  0.00    -0.250 OA
BRANCH  16  18
ATOM     18  O   UNL     1       2.263  -7.342  23.112  0.00  0.00    -0.480 OA
ATOM     19  H   UNL     1       3.122  -7.234  23.561  0.00  0.00    +0.295 HD
ENDBRANCH  16  18
ENDBRANCH  15  16
ENDBRANCH  13  15
ENDBRANCH  12  13
ENDBRANCH  11  12
ENDBRANCH   4  11
BRANCH   2  20
ATOM     20  O   UNL     1       4.391  -1.486  25.197  0.00  0.00    -0.453 OA
BRANCH  20  21
ATOM     21  C   UNL     1       5.776  -1.301  25.203  0.00  0.00    +0.214 A 
ATOM     22  C   UNL     1       6.283   0.082  24.860  0.00  0.00    +0.238 A 
ATOM     23  O   UNL     1       5.515   1.040  24.866  0.00  0.00    -0.283 OA
ATOM     24  C   UNL     1       7.734   0.249  24.549  0.00  0.00    +0.109 A 
ATOM     25  C   UNL     1       8.585  -0.758  24.916  0.00  0.00    +0.147 A 
ATOM     26  C   UNL     1       9.997  -0.604  24.848  0.00  0.00    +0.092 A 
ATOM     27  C   UNL     1      10.553   0.608  24.454  0.00  0.00    +0.124 A 
ATOM     28  C   UNL     1       9.712   1.600  24.006  0.00  0.00    +0.091 A 
ATOM     29  O   UNL     1       8.101  -1.994  25.241  0.00  0.00    -0.451 OA
ATOM     30  C   UNL     1       8.332   1.355  23.952  0.00  0.00    +0.135 A 
ATOM     31  C   UNL     1       6.723  -2.275  25.142  0.00  0.00    +0.181 A 
BRANCH  31  32
ATOM     32  C   UNL     1       6.511  -3.739  24.860  0.00  0.00    +0.025 A 
ATOM     33  C   UNL     1       6.243  -4.137  23.524  0.00  0.00    +0.015 A 
ATOM     34  C   UNL     1       5.728  -5.397  23.201  0.00  0.00    +0.050 A 
ATOM     35  C   UNL     1       5.461  -6.287  24.218  0.00  0.00    +0.158 A 
ATOM     36  C   UNL     1       5.758  -5.947  25.533  0.00  0.00    +0.159 A 
ATOM     37  C   UNL     1       6.302  -4.701  25.864  0.00  0.00    +0.060 A 
BRANCH  36  38
ATOM     38  O   UNL     1       5.382  -6.820  26.517  0.00  0.00    -0.503 OA
ATOM     39  H   UNL     1       4.462  -6.571  26.725  0.00  0.00    +0.292 HD
ENDBRANCH  36  38
BRANCH  35  40
ATOM     40  O   UNL     1       4.844  -7.466  23.922  0.00  0.00    -0.503 OA
ATOM     41  H   UNL     1       3.902  -7.332  24.143  0.00  0.00    +0.292 HD
ENDBRANCH  35  40
ENDBRANCH  31  32
BRANCH  30  42
ATOM     42  O   UNL     1       7.633   2.129  23.094  0.00  0.00    -0.506 OA
ATOM     43  H   UNL     1       6.848   1.603  22.820  0.00  0.00    +0.292 HD
ENDBRANCH  30  42
BRANCH  27  44
ATOM     44  O   UNL     1      11.889   0.865  24.422  0.00  0.00    -0.507 OA
ATOM     45  H   UNL     1      12.036   1.809  24.246  0.00  0.00    +0.292 HD
ENDBRANCH  27  44
ENDBRANCH  20  21
ENDBRANCH   2  20
BRANCH   1  46
ATOM     46  O   UNL     1       4.504  -0.535  27.874  0.00  0.00    -0.336 OA
BRANCH  46  48
ATOM     47  C   UNL     1       4.490   1.764  28.598  0.00  0.00    +0.263 C 
ATOM     48  C   UNL     1       3.620   0.561  28.057  0.00  0.00    +0.295 C 
ATOM     49  O   UNL     1       2.908   0.891  26.862  0.00  0.00    -0.340 OA
ATOM     50  C   UNL     1       2.087   2.083  26.878  0.00  0.00    +0.178 C 
ATOM     51  C   UNL     1       2.827   3.331  27.402  0.00  0.00    +0.178 C 
ATOM     52  C   UNL     1       3.542   2.987  28.708  0.00  0.00    +0.191 C 
BRANCH  52  53
ATOM     53  O   UNL     1       4.084   4.163  29.319  0.00  0.00    -0.385 OA
ATOM     54  H   UNL     1       3.509   4.904  29.127  0.00  0.00    +0.210 HD
ENDBRANCH  52  53
BRANCH  51  55
ATOM     55  O   UNL     1       1.900   4.412  27.610  0.00  0.00    -0.386 OA
ATOM     56  H   UNL     1       2.349   5.058  28.191  0.00  0.00    +0.210 HD
ENDBRANCH  51  55
BRANCH  50  57
ATOM     57  C   UNL     1       0.708   1.893  27.566  0.00  0.00    +0.190 C 
BRANCH  57  58
ATOM     58  O   UNL     1       0.758   2.202  28.958  0.00  0.00    -0.392 OA
ATOM     59  H   UNL     1       0.303   3.053  29.085  0.00  0.00    +0.210 HD
ENDBRANCH  57  58
ENDBRANCH  50  57
BRANCH  47  60
ATOM     60  O   UNL     1       5.887   1.898  28.066  0.00  0.00    -0.450 OA
BRANCH  60  61
ATOM     61  C   UNL     1       6.686   2.990  28.154  0.00  0.00    +0.332 C 
ATOM     62  O   UNL     1       7.314   3.282  29.169  0.00  0.00    -0.246 OA
BRANCH  61  64
ATOM     63  C   UNL     1       7.723   4.289  26.062  0.00  0.00    +0.015 C 
ATOM     64  C   UNL     1       6.730   3.878  26.899  0.00  0.00    +0.092 C 
BRANCH  63  66
ATOM     65  C   UNL     1       8.606   5.750  24.101  0.00  0.00    +0.012 A 
ATOM     66  C   UNL     1       7.560   5.056  24.753  0.00  0.00    -0.021 A 
ATOM     67  C   UNL     1       6.361   4.996  24.036  0.00  0.00    +0.057 A 
ATOM     68  C   UNL     1       6.180   5.671  22.810  0.00  0.00    +0.159 A 
ATOM     69  C   UNL     1       7.197   6.387  22.222  0.00  0.00    +0.158 A 
ATOM     70  C   UNL     1       8.431   6.409  22.845  0.00  0.00    +0.050 A 
BRANCH  69  71
ATOM     71  O   UNL     1       6.900   7.025  21.050  0.00  0.00    -0.503 OA
ATOM     72  H   UNL     1       7.272   6.517  20.310  0.00  0.00    +0.292 HD
ENDBRANCH  69  71
BRANCH  68  73
ATOM     73  O   UNL     1       4.956   5.696  22.180  0.00  0.00    -0.503 OA
ATOM     74  H   UNL     1       5.032   6.420  21.519  0.00  0.00    +0.292 HD
ENDBRANCH  68  73
ENDBRANCH  63  66
ENDBRANCH  61  64
ENDBRANCH  60  61
ENDBRANCH  47  60
ENDBRANCH  46  48
ENDBRANCH   1  46
TORSDOF 27
ENDMDL
MODEL 9
REMARK VINA RESULT:      -5.6      1.932      6.993
REMARK  Name = 
REMARK  27 active torsions:
REMARK  status: ('A' for Active; 'I' for Inactive)
REMARK    1  A    between atoms: C_3  and  O_68
REMARK    2  A    between atoms: C_4  and  O_67
REMARK    3  A    between atoms: C_6  and  C_7
REMARK    4  A    between atoms: C_8  and  C_9
REMARK    5  A    between atoms: C_9  and  O_11
REMARK    6  A    between atoms: O_11  and  C_12
REMARK    7  A    between atoms: C_13  and  O_66
REMARK    8  A    between atoms: C_15  and  O_65
REMARK    9  A    between atoms: C_17  and  C_63
REMARK   10  A    between atoms: C_19  and  O_21
REMARK   11  A    between atoms: O_21  and  C_22
REMARK   12  A    between atoms: C_23  and  O_62
REMARK   13  A    between atoms: C_25  and  O_61
REMARK   14  A    between atoms: C_27  and  C_53
REMARK   15  A    between atoms: C_29  and  O_31
REMARK   16  A    between atoms: O_31  and  C_32
REMARK   17  A    between atoms: C_33  and  C_45
REMARK   18  A    between atoms: C_37  and  O_44
REMARK   19  A    between atoms: C_39  and  O_43
REMARK   20  A    between atoms: C_47  and  O_52
REMARK   21  A    between atoms: C_48  and  O_51
REMARK   22  A    between atoms: C_53  and  O_54
REMARK   23  A    between atoms: O_54  and  C_55
REMARK   24  A    between atoms: C_55  and  C_57
REMARK   25  A    between atoms: C_57  and  C_58
REMARK   26  A    between atoms: C_58  and  O_60
REMARK   27  A    between atoms: C_63  and  O_64
REMARK                            x       y       z     vdW  Elec       q    Type
REMARK                         _______ _______ _______ _____ _____    ______ ____
ROOT
ATOM      1  C   UNL     1       8.337  -2.612  25.375  0.00  0.00    +0.221 C 
ATOM      2  C   UNL     1       7.145  -2.395  26.401  0.00  0.00    +0.340 C 
ATOM      3  O   UNL     1       7.104  -3.352  27.482  0.00  0.00    -0.330 OA
ATOM      4  C   UNL     1       7.471  -4.732  27.282  0.00  0.00    +0.191 C 
ATOM      5  C   UNL     1       8.766  -4.878  26.471  0.00  0.00    +0.178 C 
ATOM      6  C   UNL     1       8.587  -4.124  25.156  0.00  0.00    +0.180 C 
ENDROOT
BRANCH   6   7
ATOM      7  O   UNL     1       9.638  -4.454  24.241  0.00  0.00    -0.386 OA
ATOM      8  H   UNL     1       9.401  -5.329  23.869  0.00  0.00    +0.210 HD
ENDBRANCH   6   7
BRANCH   5   9
ATOM      9  O   UNL     1       9.046  -6.257  26.189  0.00  0.00    -0.386 OA
ATOM     10  H   UNL     1       9.721  -6.268  25.486  0.00  0.00    +0.210 HD
ENDBRANCH   5   9
BRANCH   4  11
ATOM     11  C   UNL     1       6.365  -5.659  26.705  0.00  0.00    +0.266 C 
BRANCH  11  12
ATOM     12  O   UNL     1       5.281  -5.882  27.617  0.00  0.00    -0.462 OA
BRANCH  12  13
ATOM     13  C   UNL     1       5.608  -6.523  28.771  0.00  0.00    +0.318 C 
ATOM     14  O   UNL     1       6.477  -7.376  28.895  0.00  0.00    -0.250 OA
BRANCH  13  15
ATOM     15  C   UNL     1       4.769  -6.024  29.901  0.00  0.00    +0.240 C 
BRANCH  15  16
ATOM     16  C   UNL     1       3.411  -6.650  29.953  0.00  0.00    +0.316 C 
ATOM     17  O   UNL     1       2.420  -6.173  30.484  0.00  0.00    -0.250 OA
BRANCH  16  18
ATOM     18  O   UNL     1       3.382  -7.867  29.353  0.00  0.00    -0.480 OA
ATOM     19  H   UNL     1       2.962  -7.880  28.472  0.00  0.00    +0.295 HD
ENDBRANCH  16  18
ENDBRANCH  15  16
ENDBRANCH  13  15
ENDBRANCH  12  13
ENDBRANCH  11  12
ENDBRANCH   4  11
BRANCH   2  20
ATOM     20  O   UNL     1       7.156  -1.050  26.969  0.00  0.00    -0.453 OA
BRANCH  20  21
ATOM     21  C   UNL     1       6.102  -0.190  26.650  0.00  0.00    +0.214 A 
ATOM     22  C   UNL     1       6.373   1.294  26.759  0.00  0.00    +0.238 A 
ATOM     23  O   UNL     1       7.526   1.706  26.836  0.00  0.00    -0.283 OA
ATOM     24  C   UNL     1       5.210   2.231  26.736  0.00  0.00    +0.109 A 
ATOM     25  C   UNL     1       4.012   1.750  26.283  0.00  0.00    +0.147 A 
ATOM     26  C   UNL     1       2.909   2.612  26.034  0.00  0.00    +0.092 A 
ATOM     27  C   UNL     1       3.040   3.987  26.195  0.00  0.00    +0.124 A 
ATOM     28  C   UNL     1       4.210   4.475  26.727  0.00  0.00    +0.091 A 
ATOM     29  O   UNL     1       3.798   0.404  26.174  0.00  0.00    -0.451 OA
ATOM     30  C   UNL     1       5.222   3.576  27.096  0.00  0.00    +0.135 A 
ATOM     31  C   UNL     1       4.783  -0.515  26.590  0.00  0.00    +0.181 A 
BRANCH  31  32
ATOM     32  C   UNL     1       4.137  -1.801  27.034  0.00  0.00    +0.025 A 
ATOM     33  C   UNL     1       3.599  -2.663  26.043  0.00  0.00    +0.015 A 
ATOM     34  C   UNL     1       2.716  -3.705  26.348  0.00  0.00    +0.050 A 
ATOM     35  C   UNL     1       2.346  -3.900  27.661  0.00  0.00    +0.158 A 
ATOM     36  C   UNL     1       2.892  -3.104  28.662  0.00  0.00    +0.159 A 
ATOM     37  C   UNL     1       3.800  -2.079  28.371  0.00  0.00    +0.060 A 
BRANCH  36  38
ATOM     38  O   UNL     1       2.418  -3.267  29.935  0.00  0.00    -0.503 OA
ATOM     39  H   UNL     1       1.851  -4.060  29.884  0.00  0.00    +0.292 HD
ENDBRANCH  36  38
BRANCH  35  40
ATOM     40  O   UNL     1       1.393  -4.831  27.949  0.00  0.00    -0.503 OA
ATOM     41  H   UNL     1       1.045  -5.126  27.085  0.00  0.00    +0.292 HD
ENDBRANCH  35  40
ENDBRANCH  31  32
BRANCH  30  42
ATOM     42  O   UNL     1       6.102   4.029  28.015  0.00  0.00    -0.506 OA
ATOM     43  H   UNL     1       5.665   3.932  28.892  0.00  0.00    +0.292 HD
ENDBRANCH  30  42
BRANCH  27  44
ATOM     44  O   UNL     1       2.059   4.889  25.919  0.00  0.00    -0.507 OA
ATOM     45  H   UNL     1       1.201   4.539  26.214  0.00  0.00    +0.292 HD
ENDBRANCH  27  44
ENDBRANCH  20  21
ENDBRANCH   2  20
BRANCH   1  46
ATOM     46  O   UNL     1       9.449  -1.707  25.423  0.00  0.00    -0.336 OA
BRANCH  46  48
ATOM     47  C   UNL     1       9.334  -1.331  23.044  0.00  0.00    +0.263 C 
ATOM     48  C   UNL     1       9.755  -0.727  24.442  0.00  0.00    +0.295 C 
ATOM     49  O   UNL     1       9.123   0.527  24.711  0.00  0.00    -0.340 OA
ATOM     50  C   UNL     1       9.236   1.564  23.708  0.00  0.00    +0.178 C 
ATOM     51  C   UNL     1       8.861   1.089  22.289  0.00  0.00    +0.178 C 
ATOM     52  C   UNL     1       9.581  -0.225  21.986  0.00  0.00    +0.191 C 
BRANCH  52  53
ATOM     53  O   UNL     1       9.405  -0.600  20.615  0.00  0.00    -0.385 OA
ATOM     54  H   UNL     1       8.880   0.070  20.177  0.00  0.00    +0.210 HD
ENDBRANCH  52  53
BRANCH  51  55
ATOM     55  O   UNL     1       9.215   2.088  21.316  0.00  0.00    -0.386 OA
ATOM     56  H   UNL     1       9.957   1.722  20.795  0.00  0.00    +0.210 HD
ENDBRANCH  51  55
BRANCH  50  57
ATOM     57  C   UNL     1      10.593   2.320  23.728  0.00  0.00    +0.190 C 
BRANCH  57  58
ATOM     58  O   UNL     1      10.506   3.590  23.085  0.00  0.00    -0.392 OA
ATOM     59  H   UNL     1      10.227   4.239  23.756  0.00  0.00    +0.210 HD
ENDBRANCH  57  58
ENDBRANCH  50  57
BRANCH  47  60
ATOM     60  O   UNL     1       8.106  -2.193  23.008  0.00  0.00    -0.450 OA
BRANCH  60  61
ATOM     61  C   UNL     1       6.820  -1.768  22.947  0.00  0.00    +0.332 C 
ATOM     62  O   UNL     1       6.509  -0.585  22.834  0.00  0.00    -0.246 OA
BRANCH  61  64
ATOM     63  C   UNL     1       5.786  -4.232  23.003  0.00  0.00    +0.015 C 
ATOM     64  C   UNL     1       5.754  -2.871  23.067  0.00  0.00    +0.092 C 
BRANCH  63  66
ATOM     65  C   UNL     1       4.783  -6.411  24.005  0.00  0.00    +0.012 A 
ATOM     66  C   UNL     1       4.638  -5.190  23.305  0.00  0.00    -0.021 A 
ATOM     67  C   UNL     1       3.317  -4.834  23.017  0.00  0.00    +0.057 A 
ATOM     68  C   UNL     1       2.227  -5.682  23.305  0.00  0.00    +0.159 A 
ATOM     69  C   UNL     1       2.400  -6.893  23.936  0.00  0.00    +0.158 A 
ATOM     70  C   UNL     1       3.676  -7.256  24.322  0.00  0.00    +0.050 A 
BRANCH  69  71
ATOM     71  O   UNL     1       1.276  -7.646  24.137  0.00  0.00    -0.503 OA
ATOM     72  H   UNL     1       1.182  -8.275  23.402  0.00  0.00    +0.292 HD
ENDBRANCH  69  71
BRANCH  68  73
ATOM     73  O   UNL     1       0.947  -5.365  22.906  0.00  0.00    -0.503 OA
ATOM     74  H   UNL     1       0.460  -6.218  22.936  0.00  0.00    +0.292 HD
ENDBRANCH  68  73
ENDBRANCH  63  66
ENDBRANCH  61  64
ENDBRANCH  60  61
ENDBRANCH  47  60
ENDBRANCH  46  48
ENDBRANCH   1  46
TORSDOF 27
ENDMDL
