MODEL 1
REMARK VINA RESULT:      -7.4      0.000      0.000
REMARK  Name = 
REMARK  22 active torsions:
REMARK  status: ('A' for Active; 'I' for Inactive)
REMARK    1  A    between atoms: C_1  and  C_2
REMARK    2  A    between atoms: C_3  and  O_61
REMARK    3  A    between atoms: C_5  and  O_60
REMARK    4  A    between atoms: C_7  and  O_59
REMARK    5  A    between atoms: C_8  and  O_11
REMARK    6  A    between atoms: O_11  and  C_12
REMARK    7  A    between atoms: C_12  and  C_13
REMARK    8  A    between atoms: C_14  and  O_58
REMARK    9  A    between atoms: C_16  and  O_57
REMARK   10  A    between atoms: C_17  and  O_43
REMARK   11  A    between atoms: C_18  and  O_21
REMARK   12  A    between atoms: O_21  and  C_22
REMARK   13  A    between atoms: C_23  and  C_35
REMARK   14  A    between atoms: C_27  and  O_34
REMARK   15  A    between atoms: C_29  and  O_33
REMARK   16  A    between atoms: C_37  and  O_42
REMARK   17  A    between atoms: C_38  and  O_41
REMARK   18  A    between atoms: O_43  and  C_44
REMARK   19  A    between atoms: C_46  and  O_56
REMARK   20  A    between atoms: C_48  and  O_55
REMARK   21  A    between atoms: C_49  and  O_54
REMARK   22  A    between atoms: C_51  and  C_53
REMARK                            x       y       z     vdW  Elec       q    Type
REMARK                         _______ _______ _______ _____ _____    ______ ____
ROOT
ATOM      1  C   UNL     1       5.783  -1.305  26.046  0.00  0.00    +0.179 C 
ATOM      2  O   UNL     1       6.400  -0.424  25.079  0.00  0.00    -0.331 OA
ATOM      3  C   UNL     1       6.712   0.935  25.425  0.00  0.00    +0.340 C 
ATOM      4  C   UNL     1       5.576   1.659  26.263  0.00  0.00    +0.221 C 
ATOM      5  C   UNL     1       5.275   0.731  27.455  0.00  0.00    +0.180 C 
ATOM      6  C   UNL     1       4.771  -0.627  26.971  0.00  0.00    +0.177 C 
ENDROOT
BRANCH   6   7
ATOM      7  O   UNL     1       3.518  -0.440  26.281  0.00  0.00    -0.386 OA
ATOM      8  H   UNL     1       3.005   0.242  26.767  0.00  0.00    +0.210 HD
ENDBRANCH   6   7
BRANCH   5   9
ATOM      9  O   UNL     1       4.342   1.323  28.377  0.00  0.00    -0.386 OA
ATOM     10  H   UNL     1       4.871   1.899  28.971  0.00  0.00    +0.210 HD
ENDBRANCH   5   9
BRANCH   4  11
ATOM     11  O   UNL     1       4.395   1.991  25.466  0.00  0.00    -0.337 OA
BRANCH  11  12
ATOM     12  C   UNL     1       4.061   3.391  25.305  0.00  0.00    +0.282 C 
ATOM     13  O   UNL     1       2.821   3.693  25.970  0.00  0.00    -0.343 OA
ATOM     14  C   UNL     1       1.662   3.142  25.344  0.00  0.00    +0.149 C 
ATOM     15  C   UNL     1       0.445   3.671  26.107  0.00  0.00    +0.041 C 
ATOM     16  C   UNL     1       1.541   3.510  23.853  0.00  0.00    +0.174 C 
ATOM     17  C   UNL     1       2.858   3.247  23.115  0.00  0.00    +0.179 C 
ATOM     18  C   UNL     1       3.989   3.952  23.863  0.00  0.00    +0.201 C 
BRANCH  18  19
ATOM     19  O   UNL     1       5.196   3.856  23.096  0.00  0.00    -0.384 OA
ATOM     20  H   UNL     1       5.737   4.649  23.312  0.00  0.00    +0.210 HD
ENDBRANCH  18  19
BRANCH  17  21
ATOM     21  O   UNL     1       2.776   3.754  21.773  0.00  0.00    -0.386 OA
ATOM     22  H   UNL     1       2.834   2.973  21.188  0.00  0.00    +0.210 HD
ENDBRANCH  17  21
BRANCH  16  23
ATOM     23  O   UNL     1       0.446   2.813  23.259  0.00  0.00    -0.387 OA
ATOM     24  H   UNL     1       0.102   2.163  23.897  0.00  0.00    +0.210 HD
ENDBRANCH  16  23
ENDBRANCH  11  12
ENDBRANCH   4  11
BRANCH   3  25
ATOM     25  O   UNL     1       6.934   1.739  24.244  0.00  0.00    -0.453 OA
BRANCH  25  26
ATOM     26  C   UNL     1       8.121   2.399  23.921  0.00  0.00    +0.214 A 
ATOM     27  C   UNL     1       8.376   3.855  24.137  0.00  0.00    +0.238 A 
ATOM     28  O   UNL     1       7.475   4.610  24.472  0.00  0.00    -0.283 OA
ATOM     29  C   UNL     1       9.785   4.349  23.947  0.00  0.00    +0.109 A 
ATOM     30  C   UNL     1      10.718   3.474  23.370  0.00  0.00    +0.147 A 
ATOM     31  C   UNL     1      12.049   3.858  23.128  0.00  0.00    +0.092 A 
ATOM     32  C   UNL     1      12.453   5.132  23.482  0.00  0.00    +0.124 A 
ATOM     33  C   UNL     1      11.558   6.021  24.066  0.00  0.00    +0.091 A 
ATOM     34  O   UNL     1      10.380   2.199  23.001  0.00  0.00    -0.451 OA
ATOM     35  C   UNL     1      10.228   5.620  24.305  0.00  0.00    +0.135 A 
ATOM     36  C   UNL     1       9.156   1.702  23.401  0.00  0.00    +0.181 A 
BRANCH  36  37
ATOM     37  C   UNL     1       9.138   0.234  23.426  0.00  0.00    +0.025 A 
ATOM     38  C   UNL     1       9.838  -0.359  24.492  0.00  0.00    +0.015 A 
ATOM     39  C   UNL     1       9.925  -1.734  24.605  0.00  0.00    +0.050 A 
ATOM     40  C   UNL     1       9.219  -2.515  23.713  0.00  0.00    +0.158 A 
ATOM     41  C   UNL     1       8.494  -1.947  22.663  0.00  0.00    +0.159 A 
ATOM     42  C   UNL     1       8.500  -0.567  22.468  0.00  0.00    +0.060 A 
BRANCH  41  43
ATOM     43  O   UNL     1       7.716  -2.768  21.898  0.00  0.00    -0.503 OA
ATOM     44  H   UNL     1       6.853  -2.355  21.729  0.00  0.00    +0.292 HD
ENDBRANCH  41  43
BRANCH  40  45
ATOM     45  O   UNL     1       9.193  -3.853  23.969  0.00  0.00    -0.503 OA
ATOM     46  H   UNL     1       9.982  -4.005  24.517  0.00  0.00    +0.292 HD
ENDBRANCH  40  45
ENDBRANCH  36  37
BRANCH  35  47
ATOM     47  O   UNL     1       9.390   6.510  24.925  0.00  0.00    -0.506 OA
ATOM     48  H   UNL     1       8.473   6.205  24.848  0.00  0.00    +0.292 HD
ENDBRANCH  35  47
BRANCH  32  49
ATOM     49  O   UNL     1      13.723   5.576  23.259  0.00  0.00    -0.507 OA
ATOM     50  H   UNL     1      14.295   4.819  23.047  0.00  0.00    +0.292 HD
ENDBRANCH  32  49
ENDBRANCH  25  26
ENDBRANCH   3  25
BRANCH   1  51
ATOM     51  C   UNL     1       6.700  -2.373  26.764  0.00  0.00    +0.197 C 
BRANCH  51  52
ATOM     52  O   UNL     1       6.951  -3.643  26.117  0.00  0.00    -0.346 OA
BRANCH  52  56
ATOM     53  C   UNL     1       3.626  -6.549  26.980  0.00  0.00    +0.041 C 
ATOM     54  C   UNL     1       4.780  -6.684  25.987  0.00  0.00    +0.149 C 
ATOM     55  O   UNL     1       5.859  -5.767  26.285  0.00  0.00    -0.343 OA
ATOM     56  C   UNL     1       5.697  -4.393  25.890  0.00  0.00    +0.282 C 
ATOM     57  C   UNL     1       5.314  -4.324  24.382  0.00  0.00    +0.201 C 
ATOM     58  C   UNL     1       4.033  -5.147  24.131  0.00  0.00    +0.179 C 
ATOM     59  C   UNL     1       4.257  -6.611  24.541  0.00  0.00    +0.174 C 
BRANCH  59  60
ATOM     60  O   UNL     1       5.171  -7.262  23.649  0.00  0.00    -0.387 OA
ATOM     61  H   UNL     1       4.660  -7.963  23.187  0.00  0.00    +0.210 HD
ENDBRANCH  59  60
BRANCH  58  62
ATOM     62  O   UNL     1       3.613  -5.060  22.760  0.00  0.00    -0.386 OA
ATOM     63  H   UNL     1       2.660  -5.261  22.717  0.00  0.00    +0.210 HD
ENDBRANCH  58  62
BRANCH  57  64
ATOM     64  O   UNL     1       6.374  -4.883  23.580  0.00  0.00    -0.384 OA
ATOM     65  H   UNL     1       6.756  -5.593  24.134  0.00  0.00    +0.210 HD
ENDBRANCH  57  64
ENDBRANCH  52  56
ENDBRANCH  51  52
ENDBRANCH   1  51
TORSDOF 20
ENDMDL
MODEL 2
REMARK VINA RESULT:      -6.9      2.462      6.278
REMARK  Name = 
REMARK  22 active torsions:
REMARK  status: ('A' for Active; 'I' for Inactive)
REMARK    1  A    between atoms: C_1  and  C_2
REMARK    2  A    between atoms: C_3  and  O_61
REMARK    3  A    between atoms: C_5  and  O_60
REMARK    4  A    between atoms: C_7  and  O_59
REMARK    5  A    between atoms: C_8  and  O_11
REMARK    6  A    between atoms: O_11  and  C_12
REMARK    7  A    between atoms: C_12  and  C_13
REMARK    8  A    between atoms: C_14  and  O_58
REMARK    9  A    between atoms: C_16  and  O_57
REMARK   10  A    between atoms: C_17  and  O_43
REMARK   11  A    between atoms: C_18  and  O_21
REMARK   12  A    between atoms: O_21  and  C_22
REMARK   13  A    between atoms: C_23  and  C_35
REMARK   14  A    between atoms: C_27  and  O_34
REMARK   15  A    between atoms: C_29  and  O_33
REMARK   16  A    between atoms: C_37  and  O_42
REMARK   17  A    between atoms: C_38  and  O_41
REMARK   18  A    between atoms: O_43  and  C_44
REMARK   19  A    between atoms: C_46  and  O_56
REMARK   20  A    between atoms: C_48  and  O_55
REMARK   21  A    between atoms: C_49  and  O_54
REMARK   22  A    between atoms: C_51  and  C_53
REMARK                            x       y       z     vdW  Elec       q    Type
REMARK                         _______ _______ _______ _____ _____    ______ ____
ROOT
ATOM      1  C   UNL     1       4.444   0.951  28.106  0.00  0.00    +0.179 C 
ATOM      2  O   UNL     1       4.799   0.346  26.841  0.00  0.00    -0.331 OA
ATOM      3  C   UNL     1       6.173   0.276  26.427  0.00  0.00    +0.340 C 
ATOM      4  C   UNL     1       6.998   1.600  26.717  0.00  0.00    +0.221 C 
ATOM      5  C   UNL     1       6.777   1.915  28.209  0.00  0.00    +0.180 C 
ATOM      6  C   UNL     1       5.297   2.157  28.499  0.00  0.00    +0.177 C 
ENDROOT
BRANCH   6   7
ATOM      7  O   UNL     1       4.865   3.326  27.773  0.00  0.00    -0.386 OA
ATOM      8  H   UNL     1       3.896   3.251  27.631  0.00  0.00    +0.210 HD
ENDBRANCH   6   7
BRANCH   5   9
ATOM      9  O   UNL     1       7.573   3.032  28.647  0.00  0.00    -0.386 OA
ATOM     10  H   UNL     1       7.637   2.956  29.624  0.00  0.00    +0.210 HD
ENDBRANCH   5   9
BRANCH   4  11
ATOM     11  O   UNL     1       6.645   2.705  25.827  0.00  0.00    -0.337 OA
BRANCH  11  12
ATOM     12  C   UNL     1       7.355   2.811  24.568  0.00  0.00    +0.282 C 
ATOM     13  O   UNL     1       8.421   3.772  24.671  0.00  0.00    -0.343 OA
ATOM     14  C   UNL     1       7.990   5.130  24.768  0.00  0.00    +0.149 C 
ATOM     15  C   UNL     1       9.246   6.004  24.737  0.00  0.00    +0.041 C 
ATOM     16  C   UNL     1       7.037   5.549  23.632  0.00  0.00    +0.174 C 
ATOM     17  C   UNL     1       5.909   4.525  23.457  0.00  0.00    +0.179 C 
ATOM     18  C   UNL     1       6.527   3.136  23.301  0.00  0.00    +0.201 C 
BRANCH  18  19
ATOM     19  O   UNL     1       5.499   2.196  22.969  0.00  0.00    -0.384 OA
ATOM     20  H   UNL     1       4.657   2.547  23.337  0.00  0.00    +0.210 HD
ENDBRANCH  18  19
BRANCH  17  21
ATOM     21  O   UNL     1       5.136   4.846  22.289  0.00  0.00    -0.386 OA
ATOM     22  H   UNL     1       5.585   4.404  21.541  0.00  0.00    +0.210 HD
ENDBRANCH  17  21
BRANCH  16  23
ATOM     23  O   UNL     1       6.534   6.865  23.868  0.00  0.00    -0.387 OA
ATOM     24  H   UNL     1       5.567   6.857  23.754  0.00  0.00    +0.210 HD
ENDBRANCH  16  23
ENDBRANCH  11  12
ENDBRANCH   4  11
BRANCH   3  25
ATOM     25  O   UNL     1       6.280   0.022  25.008  0.00  0.00    -0.453 OA
BRANCH  25  26
ATOM     26  C   UNL     1       6.350  -1.237  24.410  0.00  0.00    +0.214 A 
ATOM     27  C   UNL     1       5.293  -2.290  24.508  0.00  0.00    +0.238 A 
ATOM     28  O   UNL     1       4.349  -2.166  25.272  0.00  0.00    -0.283 OA
ATOM     29  C   UNL     1       5.429  -3.495  23.614  0.00  0.00    +0.109 A 
ATOM     30  C   UNL     1       6.633  -3.664  22.916  0.00  0.00    +0.147 A 
ATOM     31  C   UNL     1       6.861  -4.773  22.081  0.00  0.00    +0.092 A 
ATOM     32  C   UNL     1       5.860  -5.716  21.934  0.00  0.00    +0.124 A 
ATOM     33  C   UNL     1       4.650  -5.573  22.602  0.00  0.00    +0.091 A 
ATOM     34  O   UNL     1       7.661  -2.763  23.017  0.00  0.00    -0.451 OA
ATOM     35  C   UNL     1       4.437  -4.454  23.434  0.00  0.00    +0.135 A 
ATOM     36  C   UNL     1       7.420  -1.562  23.650  0.00  0.00    +0.181 A 
BRANCH  36  37
ATOM     37  C   UNL     1       8.366  -0.519  23.234  0.00  0.00    +0.025 A 
ATOM     38  C   UNL     1       8.079   0.098  22.003  0.00  0.00    +0.015 A 
ATOM     39  C   UNL     1       8.914   1.069  21.485  0.00  0.00    +0.050 A 
ATOM     40  C   UNL     1       9.978   1.502  22.251  0.00  0.00    +0.158 A 
ATOM     41  C   UNL     1      10.266   0.922  23.489  0.00  0.00    +0.159 A 
ATOM     42  C   UNL     1       9.502  -0.142  23.965  0.00  0.00    +0.060 A 
BRANCH  41  43
ATOM     43  O   UNL     1      11.252   1.484  24.251  0.00  0.00    -0.503 OA
ATOM     44  H   UNL     1      12.111   1.082  24.042  0.00  0.00    +0.292 HD
ENDBRANCH  41  43
BRANCH  40  45
ATOM     45  O   UNL     1      10.668   2.578  21.778  0.00  0.00    -0.503 OA
ATOM     46  H   UNL     1      11.566   2.455  22.129  0.00  0.00    +0.292 HD
ENDBRANCH  40  45
ENDBRANCH  36  37
BRANCH  35  47
ATOM     47  O   UNL     1       3.213  -4.326  24.037  0.00  0.00    -0.506 OA
ATOM     48  H   UNL     1       2.525  -4.225  23.362  0.00  0.00    +0.292 HD
ENDBRANCH  35  47
BRANCH  32  49
ATOM     49  O   UNL     1       6.019  -6.825  21.155  0.00  0.00    -0.507 OA
ATOM     50  H   UNL     1       5.424  -6.766  20.388  0.00  0.00    +0.292 HD
ENDBRANCH  32  49
ENDBRANCH  25  26
ENDBRANCH   3  25
BRANCH   1  51
ATOM     51  C   UNL     1       4.090  -0.010  29.310  0.00  0.00    +0.197 C 
BRANCH  51  52
ATOM     52  O   UNL     1       2.773  -0.607  29.380  0.00  0.00    -0.346 OA
BRANCH  52  56
ATOM     53  C   UNL     1       4.484  -4.619  30.485  0.00  0.00    +0.041 C 
ATOM     54  C   UNL     1       4.413  -3.956  29.109  0.00  0.00    +0.149 C 
ATOM     55  O   UNL     1       4.190  -2.529  29.208  0.00  0.00    -0.343 OA
ATOM     56  C   UNL     1       2.850  -2.080  29.480  0.00  0.00    +0.282 C 
ATOM     57  C   UNL     1       1.865  -2.724  28.460  0.00  0.00    +0.201 C 
ATOM     58  C   UNL     1       1.977  -4.262  28.527  0.00  0.00    +0.179 C 
ATOM     59  C   UNL     1       3.414  -4.700  28.204  0.00  0.00    +0.174 C 
BRANCH  59  60
ATOM     60  O   UNL     1       3.727  -4.469  26.824  0.00  0.00    -0.387 OA
ATOM     61  H   UNL     1       2.885  -4.212  26.386  0.00  0.00    +0.210 HD
ENDBRANCH  59  60
BRANCH  58  62
ATOM     62  O   UNL     1       1.040  -4.894  27.640  0.00  0.00    -0.386 OA
ATOM     63  H   UNL     1       0.165  -4.484  27.774  0.00  0.00    +0.210 HD
ENDBRANCH  58  62
BRANCH  57  64
ATOM     64  O   UNL     1       2.199  -2.304  27.122  0.00  0.00    -0.384 OA
ATOM     65  H   UNL     1       2.984  -1.730  27.232  0.00  0.00    +0.210 HD
ENDBRANCH  57  64
ENDBRANCH  52  56
ENDBRANCH  51  52
ENDBRANCH   1  51
TORSDOF 20
ENDMDL
MODEL 3
REMARK VINA RESULT:      -6.9      2.517      8.522
REMARK  Name = 
REMARK  22 active torsions:
REMARK  status: ('A' for Active; 'I' for Inactive)
REMARK    1  A    between atoms: C_1  and  C_2
REMARK    2  A    between atoms: C_3  and  O_61
REMARK    3  A    between atoms: C_5  and  O_60
REMARK    4  A    between atoms: C_7  and  O_59
REMARK    5  A    between atoms: C_8  and  O_11
REMARK    6  A    between atoms: O_11  and  C_12
REMARK    7  A    between atoms: C_12  and  C_13
REMARK    8  A    between atoms: C_14  and  O_58
REMARK    9  A    between atoms: C_16  and  O_57
REMARK   10  A    between atoms: C_17  and  O_43
REMARK   11  A    between atoms: C_18  and  O_21
REMARK   12  A    between atoms: O_21  and  C_22
REMARK   13  A    between atoms: C_23  and  C_35
REMARK   14  A    between atoms: C_27  and  O_34
REMARK   15  A    between atoms: C_29  and  O_33
REMARK   16  A    between atoms: C_37  and  O_42
REMARK   17  A    between atoms: C_38  and  O_41
REMARK   18  A    between atoms: O_43  and  C_44
REMARK   19  A    between atoms: C_46  and  O_56
REMARK   20  A    between atoms: C_48  and  O_55
REMARK   21  A    between atoms: C_49  and  O_54
REMARK   22  A    between atoms: C_51  and  C_53
REMARK                            x       y       z     vdW  Elec       q    Type
REMARK                         _______ _______ _______ _____ _____    ______ ____
ROOT
ATOM      1  C   UNL     1       8.614  -0.395  23.135  0.00  0.00    +0.179 C 
ATOM      2  O   UNL     1       7.623  -0.305  24.184  0.00  0.00    -0.331 OA
ATOM      3  C   UNL     1       7.778  -1.057  25.399  0.00  0.00    +0.340 C 
ATOM      4  C   UNL     1       8.286  -2.543  25.172  0.00  0.00    +0.221 C 
ATOM      5  C   UNL     1       9.555  -2.427  24.306  0.00  0.00    +0.180 C 
ATOM      6  C   UNL     1       9.235  -1.781  22.959  0.00  0.00    +0.177 C 
ENDROOT
BRANCH   6   7
ATOM      7  O   UNL     1       8.330  -2.640  22.234  0.00  0.00    -0.386 OA
ATOM      8  H   UNL     1       7.625  -2.076  21.848  0.00  0.00    +0.210 HD
ENDBRANCH   6   7
BRANCH   5   9
ATOM      9  O   UNL     1      10.200  -3.700  24.121  0.00  0.00    -0.386 OA
ATOM     10  H   UNL     1      10.491  -3.992  25.012  0.00  0.00    +0.210 HD
ENDBRANCH   5   9
BRANCH   4  11
ATOM     11  O   UNL     1       7.265  -3.420  24.600  0.00  0.00    -0.337 OA
BRANCH  11  12
ATOM     12  C   UNL     1       7.551  -4.839  24.538  0.00  0.00    +0.282 C 
ATOM     13  O   UNL     1       7.597  -5.284  23.170  0.00  0.00    -0.343 OA
ATOM     14  C   UNL     1       6.331  -5.311  22.511  0.00  0.00    +0.149 C 
ATOM     15  C   UNL     1       6.556  -5.926  21.128  0.00  0.00    +0.041 C 
ATOM     16  C   UNL     1       5.265  -6.121  23.273  0.00  0.00    +0.174 C 
ATOM     17  C   UNL     1       5.215  -5.711  24.749  0.00  0.00    +0.179 C 
ATOM     18  C   UNL     1       6.626  -5.795  25.330  0.00  0.00    +0.201 C 
BRANCH  18  19
ATOM     19  O   UNL     1       6.569  -5.578  26.745  0.00  0.00    -0.384 OA
ATOM     20  H   UNL     1       7.463  -5.781  27.103  0.00  0.00    +0.210 HD
ENDBRANCH  18  19
BRANCH  17  21
ATOM     21  O   UNL     1       4.340  -6.592  25.472  0.00  0.00    -0.386 OA
ATOM     22  H   UNL     1       4.418  -6.334  26.412  0.00  0.00    +0.210 HD
ENDBRANCH  17  21
BRANCH  16  23
ATOM     23  O   UNL     1       3.993  -5.987  22.637  0.00  0.00    -0.387 OA
ATOM     24  H   UNL     1       3.704  -5.060  22.703  0.00  0.00    +0.210 HD
ENDBRANCH  16  23
ENDBRANCH  11  12
ENDBRANCH   4  11
BRANCH   3  25
ATOM     25  O   UNL     1       6.528  -1.151  26.120  0.00  0.00    -0.453 OA
BRANCH  25  26
ATOM     26  C   UNL     1       6.034  -0.201  27.016  0.00  0.00    +0.214 A 
ATOM     27  C   UNL     1       6.536   1.201  27.140  0.00  0.00    +0.238 A 
ATOM     28  O   UNL     1       7.547   1.562  26.558  0.00  0.00    -0.283 OA
ATOM     29  C   UNL     1       5.736   2.152  27.991  0.00  0.00    +0.109 A 
ATOM     30  C   UNL     1       4.709   1.621  28.785  0.00  0.00    +0.147 A 
ATOM     31  C   UNL     1       3.929   2.428  29.632  0.00  0.00    +0.092 A 
ATOM     32  C   UNL     1       4.174   3.789  29.672  0.00  0.00    +0.124 A 
ATOM     33  C   UNL     1       5.177   4.350  28.889  0.00  0.00    +0.091 A 
ATOM     34  O   UNL     1       4.414   0.283  28.786  0.00  0.00    -0.451 OA
ATOM     35  C   UNL     1       5.948   3.526  28.044  0.00  0.00    +0.135 A 
ATOM     36  C   UNL     1       5.001  -0.519  27.829  0.00  0.00    +0.181 A 
BRANCH  36  37
ATOM     37  C   UNL     1       4.233  -1.748  27.592  0.00  0.00    +0.025 A 
ATOM     38  C   UNL     1       3.148  -1.618  26.705  0.00  0.00    +0.015 A 
ATOM     39  C   UNL     1       2.326  -2.694  26.428  0.00  0.00    +0.050 A 
ATOM     40  C   UNL     1       2.655  -3.927  26.953  0.00  0.00    +0.158 A 
ATOM     41  C   UNL     1       3.744  -4.085  27.814  0.00  0.00    +0.159 A 
ATOM     42  C   UNL     1       4.506  -2.983  28.197  0.00  0.00    +0.060 A 
BRANCH  41  43
ATOM     43  O   UNL     1       4.089  -5.352  28.192  0.00  0.00    -0.503 OA
ATOM     44  H   UNL     1       5.025  -5.521  27.994  0.00  0.00    +0.292 HD
ENDBRANCH  41  43
BRANCH  40  45
ATOM     45  O   UNL     1       1.921  -4.988  26.514  0.00  0.00    -0.503 OA
ATOM     46  H   UNL     1       1.920  -4.890  25.546  0.00  0.00    +0.292 HD
ENDBRANCH  40  45
ENDBRANCH  36  37
BRANCH  35  47
ATOM     47  O   UNL     1       6.895   4.125  27.254  0.00  0.00    -0.506 OA
ATOM     48  H   UNL     1       7.781   3.890  27.570  0.00  0.00    +0.292 HD
ENDBRANCH  35  47
BRANCH  32  49
ATOM     49  O   UNL     1       3.469   4.627  30.484  0.00  0.00    -0.507 OA
ATOM     50  H   UNL     1       3.458   5.518  30.093  0.00  0.00    +0.292 HD
ENDBRANCH  32  49
ENDBRANCH  25  26
ENDBRANCH   3  25
BRANCH   1  51
ATOM     51  C   UNL     1       9.642   0.797  22.986  0.00  0.00    +0.197 C 
BRANCH  51  52
ATOM     52  O   UNL     1       9.727   1.795  24.030  0.00  0.00    -0.346 OA
BRANCH  52  56
ATOM     53  C   UNL     1       9.782   6.275  23.610  0.00  0.00    +0.041 C 
ATOM     54  C   UNL     1       8.778   5.396  24.356  0.00  0.00    +0.149 C 
ATOM     55  O   UNL     1       9.308   4.076  24.622  0.00  0.00    -0.343 OA
ATOM     56  C   UNL     1       9.315   3.128  23.541  0.00  0.00    +0.282 C 
ATOM     57  C   UNL     1       7.890   3.035  22.917  0.00  0.00    +0.201 C 
ATOM     58  C   UNL     1       7.434   4.434  22.450  0.00  0.00    +0.179 C 
ATOM     59  C   UNL     1       7.416   5.408  23.639  0.00  0.00    +0.174 C 
BRANCH  59  60
ATOM     60  O   UNL     1       6.367   5.079  24.559  0.00  0.00    -0.387 OA
ATOM     61  H   UNL     1       5.574   5.585  24.272  0.00  0.00    +0.210 HD
ENDBRANCH  59  60
BRANCH  58  62
ATOM     62  O   UNL     1       6.146   4.380  21.815  0.00  0.00    -0.386 OA
ATOM     63  H   UNL     1       6.128   3.607  21.221  0.00  0.00    +0.210 HD
ENDBRANCH  58  62
BRANCH  57  64
ATOM     64  O   UNL     1       6.952   2.561  23.904  0.00  0.00    -0.384 OA
ATOM     65  H   UNL     1       6.367   1.947  23.416  0.00  0.00    +0.210 HD
ENDBRANCH  57  64
ENDBRANCH  52  56
ENDBRANCH  51  52
ENDBRANCH   1  51
TORSDOF 20
ENDMDL
MODEL 4
REMARK VINA RESULT:      -6.8      2.448      6.579
REMARK  Name = 
REMARK  22 active torsions:
REMARK  status: ('A' for Active; 'I' for Inactive)
REMARK    1  A    between atoms: C_1  and  C_2
REMARK    2  A    between atoms: C_3  and  O_61
REMARK    3  A    between atoms: C_5  and  O_60
REMARK    4  A    between atoms: C_7  and  O_59
REMARK    5  A    between atoms: C_8  and  O_11
REMARK    6  A    between atoms: O_11  and  C_12
REMARK    7  A    between atoms: C_12  and  C_13
REMARK    8  A    between atoms: C_14  and  O_58
REMARK    9  A    between atoms: C_16  and  O_57
REMARK   10  A    between atoms: C_17  and  O_43
REMARK   11  A    between atoms: C_18  and  O_21
REMARK   12  A    between atoms: O_21  and  C_22
REMARK   13  A    between atoms: C_23  and  C_35
REMARK   14  A    between atoms: C_27  and  O_34
REMARK   15  A    between atoms: C_29  and  O_33
REMARK   16  A    between atoms: C_37  and  O_42
REMARK   17  A    between atoms: C_38  and  O_41
REMARK   18  A    between atoms: O_43  and  C_44
REMARK   19  A    between atoms: C_46  and  O_56
REMARK   20  A    between atoms: C_48  and  O_55
REMARK   21  A    between atoms: C_49  and  O_54
REMARK   22  A    between atoms: C_51  and  C_53
REMARK                            x       y       z     vdW  Elec       q    Type
REMARK                         _______ _______ _______ _____ _____    ______ ____
ROOT
ATOM      1  C   UNL     1       4.841  -1.372  28.386  0.00  0.00    +0.179 C 
ATOM      2  O   UNL     1       5.501  -1.153  27.117  0.00  0.00    -0.331 OA
ATOM      3  C   UNL     1       4.731  -0.955  25.920  0.00  0.00    +0.340 C 
ATOM      4  C   UNL     1       3.484  -1.928  25.793  0.00  0.00    +0.221 C 
ATOM      5  C   UNL     1       2.698  -1.780  27.110  0.00  0.00    +0.180 C 
ATOM      6  C   UNL     1       3.556  -2.197  28.303  0.00  0.00    +0.177 C 
ENDROOT
BRANCH   6   7
ATOM      7  O   UNL     1       3.875  -3.598  28.180  0.00  0.00    -0.386 OA
ATOM      8  H   UNL     1       4.847  -3.696  28.284  0.00  0.00    +0.210 HD
ENDBRANCH   6   7
BRANCH   5   9
ATOM      9  O   UNL     1       1.463  -2.518  27.086  0.00  0.00    -0.386 OA
ATOM     10  H   UNL     1       1.659  -3.367  26.634  0.00  0.00    +0.210 HD
ENDBRANCH   5   9
BRANCH   4  11
ATOM     11  O   UNL     1       3.859  -3.308  25.487  0.00  0.00    -0.337 OA
BRANCH  11  12
ATOM     12  C   UNL     1       3.078  -4.014  24.490  0.00  0.00    +0.282 C 
ATOM     13  O   UNL     1       2.107  -4.867  25.123  0.00  0.00    -0.343 OA
ATOM     14  C   UNL     1       2.657  -6.006  25.784  0.00  0.00    +0.149 C 
ATOM     15  C   UNL     1       1.481  -6.852  26.278  0.00  0.00    +0.041 C 
ATOM     16  C   UNL     1       3.565  -6.857  24.876  0.00  0.00    +0.174 C 
ATOM     17  C   UNL     1       4.588  -5.980  24.145  0.00  0.00    +0.179 C 
ATOM     18  C   UNL     1       3.845  -4.849  23.435  0.00  0.00    +0.201 C 
BRANCH  18  19
ATOM     19  O   UNL     1       4.764  -4.121  22.613  0.00  0.00    -0.384 OA
ATOM     20  H   UNL     1       5.086  -3.358  23.145  0.00  0.00    +0.210 HD
ENDBRANCH  18  19
BRANCH  17  21
ATOM     21  O   UNL     1       5.306  -6.767  23.181  0.00  0.00    -0.386 OA
ATOM     22  H   UNL     1       6.180  -6.339  23.084  0.00  0.00    +0.210 HD
ENDBRANCH  17  21
BRANCH  16  23
ATOM     23  O   UNL     1       4.193  -7.892  25.635  0.00  0.00    -0.387 OA
ATOM     24  H   UNL     1       3.911  -8.755  25.284  0.00  0.00    +0.210 HD
ENDBRANCH  16  23
ENDBRANCH  11  12
ENDBRANCH   4  11
BRANCH   3  25
ATOM     25  O   UNL     1       5.539  -1.158  24.739  0.00  0.00    -0.453 OA
BRANCH  25  26
ATOM     26  C   UNL     1       6.591  -0.341  24.322  0.00  0.00    +0.214 A 
ATOM     27  C   UNL     1       6.512   1.144  24.170  0.00  0.00    +0.238 A 
ATOM     28  O   UNL     1       5.442   1.729  24.249  0.00  0.00    -0.283 OA
ATOM     29  C   UNL     1       7.800   1.888  23.937  0.00  0.00    +0.109 A 
ATOM     30  C   UNL     1       8.952   1.138  23.657  0.00  0.00    +0.147 A 
ATOM     31  C   UNL     1      10.193   1.747  23.398  0.00  0.00    +0.092 A 
ATOM     32  C   UNL     1      10.282   3.127  23.435  0.00  0.00    +0.124 A 
ATOM     33  C   UNL     1       9.162   3.900  23.720  0.00  0.00    +0.091 A 
ATOM     34  O   UNL     1       8.930  -0.232  23.611  0.00  0.00    -0.451 OA
ATOM     35  C   UNL     1       7.926   3.273  23.980  0.00  0.00    +0.135 A 
ATOM     36  C   UNL     1       7.800  -0.885  24.057  0.00  0.00    +0.181 A 
BRANCH  36  37
ATOM     37  C   UNL     1       8.085  -2.269  24.458  0.00  0.00    +0.025 A 
ATOM     38  C   UNL     1       8.373  -2.454  25.822  0.00  0.00    +0.015 A 
ATOM     39  C   UNL     1       8.693  -3.704  26.316  0.00  0.00    +0.050 A 
ATOM     40  C   UNL     1       8.617  -4.789  25.465  0.00  0.00    +0.158 A 
ATOM     41  C   UNL     1       8.305  -4.632  24.112  0.00  0.00    +0.159 A 
ATOM     42  C   UNL     1       8.101  -3.361  23.578  0.00  0.00    +0.060 A 
BRANCH  41  43
ATOM     43  O   UNL     1       8.120  -5.756  23.359  0.00  0.00    -0.503 OA
ATOM     44  H   UNL     1       8.933  -6.287  23.338  0.00  0.00    +0.292 HD
ENDBRANCH  41  43
BRANCH  40  45
ATOM     45  O   UNL     1       8.769  -6.017  26.035  0.00  0.00    -0.503 OA
ATOM     46  H   UNL     1       7.893  -6.214  26.410  0.00  0.00    +0.292 HD
ENDBRANCH  40  45
ENDBRANCH  36  37
BRANCH  35  47
ATOM     47  O   UNL     1       6.858   4.069  24.303  0.00  0.00    -0.506 OA
ATOM     48  H   UNL     1       6.327   4.241  23.511  0.00  0.00    +0.292 HD
ENDBRANCH  35  47
BRANCH  32  49
ATOM     49  O   UNL     1      11.448   3.784  23.175  0.00  0.00    -0.507 OA
ATOM     50  H   UNL     1      11.790   4.168  24.001  0.00  0.00    +0.292 HD
ENDBRANCH  32  49
ENDBRANCH  25  26
ENDBRANCH   3  25
BRANCH   1  51
ATOM     51  C   UNL     1       4.768  -0.161  29.399  0.00  0.00    +0.197 C 
BRANCH  51  52
ATOM     52  O   UNL     1       5.973   0.575  29.714  0.00  0.00    -0.346 OA
BRANCH  52  56
ATOM     53  C   UNL     1       3.935   4.587  29.806  0.00  0.00    +0.041 C 
ATOM     54  C   UNL     1       4.155   3.652  28.616  0.00  0.00    +0.149 C 
ATOM     55  O   UNL     1       4.458   2.302  29.038  0.00  0.00    -0.343 OA
ATOM     56  C   UNL     1       5.797   2.026  29.486  0.00  0.00    +0.282 C 
ATOM     57  C   UNL     1       6.818   2.512  28.414  0.00  0.00    +0.201 C 
ATOM     58  C   UNL     1       6.605   4.015  28.136  0.00  0.00    +0.179 C 
ATOM     59  C   UNL     1       5.174   4.262  27.635  0.00  0.00    +0.174 C 
BRANCH  59  60
ATOM     60  O   UNL     1       4.986   3.718  26.322  0.00  0.00    -0.387 OA
ATOM     61  H   UNL     1       4.684   4.461  25.752  0.00  0.00    +0.210 HD
ENDBRANCH  59  60
BRANCH  58  62
ATOM     62  O   UNL     1       7.568   4.515  27.194  0.00  0.00    -0.386 OA
ATOM     63  H   UNL     1       8.421   4.626  27.655  0.00  0.00    +0.210 HD
ENDBRANCH  58  62
BRANCH  57  64
ATOM     64  O   UNL     1       6.616   1.791  27.182  0.00  0.00    -0.384 OA
ATOM     65  H   UNL     1       5.845   2.224  26.764  0.00  0.00    +0.210 HD
ENDBRANCH  57  64
ENDBRANCH  52  56
ENDBRANCH  51  52
ENDBRANCH   1  51
TORSDOF 20
ENDMDL
MODEL 5
REMARK VINA RESULT:      -6.8      2.309      7.509
REMARK  Name = 
REMARK  22 active torsions:
REMARK  status: ('A' for Active; 'I' for Inactive)
REMARK    1  A    between atoms: C_1  and  C_2
REMARK    2  A    between atoms: C_3  and  O_61
REMARK    3  A    between atoms: C_5  and  O_60
REMARK    4  A    between atoms: C_7  and  O_59
REMARK    5  A    between atoms: C_8  and  O_11
REMARK    6  A    between atoms: O_11  and  C_12
REMARK    7  A    between atoms: C_12  and  C_13
REMARK    8  A    between atoms: C_14  and  O_58
REMARK    9  A    between atoms: C_16  and  O_57
REMARK   10  A    between atoms: C_17  and  O_43
REMARK   11  A    between atoms: C_18  and  O_21
REMARK   12  A    between atoms: O_21  and  C_22
REMARK   13  A    between atoms: C_23  and  C_35
REMARK   14  A    between atoms: C_27  and  O_34
REMARK   15  A    between atoms: C_29  and  O_33
REMARK   16  A    between atoms: C_37  and  O_42
REMARK   17  A    between atoms: C_38  and  O_41
REMARK   18  A    between atoms: O_43  and  C_44
REMARK   19  A    between atoms: C_46  and  O_56
REMARK   20  A    between atoms: C_48  and  O_55
REMARK   21  A    between atoms: C_49  and  O_54
REMARK   22  A    between atoms: C_51  and  C_53
REMARK                            x       y       z     vdW  Elec       q    Type
REMARK                         _______ _______ _______ _____ _____    ______ ____
ROOT
ATOM      1  C   UNL     1       9.000  -2.242  24.847  0.00  0.00    +0.179 C 
ATOM      2  O   UNL     1       7.784  -1.630  25.338  0.00  0.00    -0.331 OA
ATOM      3  C   UNL     1       6.801  -1.124  24.420  0.00  0.00    +0.340 C 
ATOM      4  C   UNL     1       7.419  -0.337  23.188  0.00  0.00    +0.221 C 
ATOM      5  C   UNL     1       8.470  -1.280  22.571  0.00  0.00    +0.180 C 
ATOM      6  C   UNL     1       9.570  -1.602  23.580  0.00  0.00    +0.177 C 
ENDROOT
BRANCH   6   7
ATOM      7  O   UNL     1      10.268  -0.384  23.912  0.00  0.00    -0.386 OA
ATOM      8  H   UNL     1      11.224  -0.528  23.737  0.00  0.00    +0.210 HD
ENDBRANCH   6   7
BRANCH   5   9
ATOM      9  O   UNL     1       9.030  -0.743  21.359  0.00  0.00    -0.386 OA
ATOM     10  H   UNL     1       8.482  -1.095  20.624  0.00  0.00    +0.210 HD
ENDBRANCH   5   9
BRANCH   4  11
ATOM     11  O   UNL     1       7.952   0.975  23.552  0.00  0.00    -0.337 OA
BRANCH  11  12
ATOM     12  C   UNL     1       8.199   1.923  22.484  0.00  0.00    +0.282 C 
ATOM     13  O   UNL     1       9.573   2.349  22.497  0.00  0.00    -0.343 OA
ATOM     14  C   UNL     1       9.923   3.194  23.594  0.00  0.00    +0.149 C 
ATOM     15  C   UNL     1      11.368   3.646  23.370  0.00  0.00    +0.041 C 
ATOM     16  C   UNL     1       9.008   4.426  23.730  0.00  0.00    +0.174 C 
ATOM     17  C   UNL     1       7.531   4.021  23.674  0.00  0.00    +0.179 C 
ATOM     18  C   UNL     1       7.299   3.182  22.418  0.00  0.00    +0.201 C 
BRANCH  18  19
ATOM     19  O   UNL     1       5.896   2.938  22.263  0.00  0.00    -0.384 OA
ATOM     20  H   UNL     1       5.765   1.964  22.318  0.00  0.00    +0.210 HD
ENDBRANCH  18  19
BRANCH  17  21
ATOM     21  O   UNL     1       6.704   5.195  23.631  0.00  0.00    -0.386 OA
ATOM     22  H   UNL     1       5.959   4.976  23.036  0.00  0.00    +0.210 HD
ENDBRANCH  17  21
BRANCH  16  23
ATOM     23  O   UNL     1       9.321   5.145  24.923  0.00  0.00    -0.387 OA
ATOM     24  H   UNL     1       9.365   4.519  25.666  0.00  0.00    +0.210 HD
ENDBRANCH  16  23
ENDBRANCH  11  12
ENDBRANCH   4  11
BRANCH   3  25
ATOM     25  O   UNL     1       5.889  -0.216  25.078  0.00  0.00    -0.453 OA
BRANCH  25  26
ATOM     26  C   UNL     1       4.839  -0.586  25.920  0.00  0.00    +0.214 A 
ATOM     27  C   UNL     1       4.053  -1.851  25.802  0.00  0.00    +0.238 A 
ATOM     28  O   UNL     1       4.179  -2.584  24.832  0.00  0.00    -0.283 OA
ATOM     29  C   UNL     1       3.116  -2.195  26.930  0.00  0.00    +0.109 A 
ATOM     30  C   UNL     1       2.872  -1.217  27.905  0.00  0.00    +0.147 A 
ATOM     31  C   UNL     1       1.991  -1.438  28.978  0.00  0.00    +0.092 A 
ATOM     32  C   UNL     1       1.357  -2.663  29.083  0.00  0.00    +0.124 A 
ATOM     33  C   UNL     1       1.585  -3.659  28.140  0.00  0.00    +0.091 A 
ATOM     34  O   UNL     1       3.472   0.015  27.859  0.00  0.00    -0.451 OA
ATOM     35  C   UNL     1       2.473  -3.421  27.071  0.00  0.00    +0.135 A 
ATOM     36  C   UNL     1       4.495   0.213  26.955  0.00  0.00    +0.181 A 
BRANCH  36  37
ATOM     37  C   UNL     1       5.378   1.316  27.355  0.00  0.00    +0.025 A 
ATOM     38  C   UNL     1       5.157   2.536  26.690  0.00  0.00    +0.015 A 
ATOM     39  C   UNL     1       5.946   3.639  26.951  0.00  0.00    +0.050 A 
ATOM     40  C   UNL     1       6.886   3.555  27.958  0.00  0.00    +0.158 A 
ATOM     41  C   UNL     1       7.104   2.361  28.651  0.00  0.00    +0.159 A 
ATOM     42  C   UNL     1       6.398   1.209  28.311  0.00  0.00    +0.060 A 
BRANCH  41  43
ATOM     43  O   UNL     1       7.956   2.383  29.720  0.00  0.00    -0.503 OA
ATOM     44  H   UNL     1       8.070   3.292  30.042  0.00  0.00    +0.292 HD
ENDBRANCH  41  43
BRANCH  40  45
ATOM     45  O   UNL     1       7.517   4.714  28.297  0.00  0.00    -0.503 OA
ATOM     46  H   UNL     1       7.204   5.355  27.637  0.00  0.00    +0.292 HD
ENDBRANCH  40  45
ENDBRANCH  36  37
BRANCH  35  47
ATOM     47  O   UNL     1       2.706  -4.445  26.190  0.00  0.00    -0.506 OA
ATOM     48  H   UNL     1       3.660  -4.587  26.097  0.00  0.00    +0.292 HD
ENDBRANCH  35  47
BRANCH  32  49
ATOM     49  O   UNL     1       0.477  -2.939  30.087  0.00  0.00    -0.507 OA
ATOM     50  H   UNL     1      -0.349  -2.449  29.932  0.00  0.00    +0.292 HD
ENDBRANCH  32  49
ENDBRANCH  25  26
ENDBRANCH   3  25
BRANCH   1  51
ATOM     51  C   UNL     1       9.096  -3.819  24.874  0.00  0.00    +0.197 C 
BRANCH  51  52
ATOM     52  O   UNL     1       7.978  -4.590  25.373  0.00  0.00    -0.346 OA
BRANCH  52  56
ATOM     53  C   UNL     1       6.758  -5.536  21.146  0.00  0.00    +0.041 C 
ATOM     54  C   UNL     1       5.967  -4.802  22.229  0.00  0.00    +0.149 C 
ATOM     55  O   UNL     1       6.822  -4.324  23.294  0.00  0.00    -0.343 OA
ATOM     56  C   UNL     1       7.260  -5.277  24.278  0.00  0.00    +0.282 C 
ATOM     57  C   UNL     1       6.028  -6.034  24.858  0.00  0.00    +0.201 C 
ATOM     58  C   UNL     1       5.247  -6.712  23.712  0.00  0.00    +0.179 C 
ATOM     59  C   UNL     1       4.776  -5.658  22.699  0.00  0.00    +0.174 C 
BRANCH  59  60
ATOM     60  O   UNL     1       3.755  -4.823  23.260  0.00  0.00    -0.387 OA
ATOM     61  H   UNL     1       2.920  -5.342  23.229  0.00  0.00    +0.210 HD
ENDBRANCH  59  60
BRANCH  58  62
ATOM     62  O   UNL     1       4.135  -7.470  24.213  0.00  0.00    -0.386 OA
ATOM     63  H   UNL     1       4.473  -8.128  24.850  0.00  0.00    +0.210 HD
ENDBRANCH  58  62
BRANCH  57  64
ATOM     64  O   UNL     1       5.146  -5.104  25.517  0.00  0.00    -0.384 OA
ATOM     65  H   UNL     1       4.498  -5.666  25.987  0.00  0.00    +0.210 HD
ENDBRANCH  57  64
ENDBRANCH  52  56
ENDBRANCH  51  52
ENDBRANCH   1  51
TORSDOF 20
ENDMDL
MODEL 6
REMARK VINA RESULT:      -6.7      2.285      7.420
REMARK  Name = 
REMARK  22 active torsions:
REMARK  status: ('A' for Active; 'I' for Inactive)
REMARK    1  A    between atoms: C_1  and  C_2
REMARK    2  A    between atoms: C_3  and  O_61
REMARK    3  A    between atoms: C_5  and  O_60
REMARK    4  A    between atoms: C_7  and  O_59
REMARK    5  A    between atoms: C_8  and  O_11
REMARK    6  A    between atoms: O_11  and  C_12
REMARK    7  A    between atoms: C_12  and  C_13
REMARK    8  A    between atoms: C_14  and  O_58
REMARK    9  A    between atoms: C_16  and  O_57
REMARK   10  A    between atoms: C_17  and  O_43
REMARK   11  A    between atoms: C_18  and  O_21
REMARK   12  A    between atoms: O_21  and  C_22
REMARK   13  A    between atoms: C_23  and  C_35
REMARK   14  A    between atoms: C_27  and  O_34
REMARK   15  A    between atoms: C_29  and  O_33
REMARK   16  A    between atoms: C_37  and  O_42
REMARK   17  A    between atoms: C_38  and  O_41
REMARK   18  A    between atoms: O_43  and  C_44
REMARK   19  A    between atoms: C_46  and  O_56
REMARK   20  A    between atoms: C_48  and  O_55
REMARK   21  A    between atoms: C_49  and  O_54
REMARK   22  A    between atoms: C_51  and  C_53
REMARK                            x       y       z     vdW  Elec       q    Type
REMARK                         _______ _______ _______ _____ _____    ______ ____
ROOT
ATOM      1  C   UNL     1       2.677  -0.692  27.715  0.00  0.00    +0.179 C 
ATOM      2  O   UNL     1       3.913  -0.801  26.972  0.00  0.00    -0.331 OA
ATOM      3  C   UNL     1       4.010  -1.689  25.845  0.00  0.00    +0.340 C 
ATOM      4  C   UNL     1       3.318  -3.097  26.078  0.00  0.00    +0.221 C 
ATOM      5  C   UNL     1       1.884  -2.789  26.549  0.00  0.00    +0.180 C 
ATOM      6  C   UNL     1       1.900  -2.001  27.857  0.00  0.00    +0.177 C 
ENDROOT
BRANCH   6   7
ATOM      7  O   UNL     1       2.493  -2.819  28.886  0.00  0.00    -0.386 OA
ATOM      8  H   UNL     1       1.770  -3.306  29.339  0.00  0.00    +0.210 HD
ENDBRANCH   6   7
BRANCH   5   9
ATOM      9  O   UNL     1       1.092  -3.983  26.681  0.00  0.00    -0.386 OA
ATOM     10  H   UNL     1       1.696  -4.735  26.499  0.00  0.00    +0.210 HD
ENDBRANCH   5   9
BRANCH   4  11
ATOM     11  O   UNL     1       4.062  -3.960  26.995  0.00  0.00    -0.337 OA
BRANCH  11  12
ATOM     12  C   UNL     1       4.248  -5.346  26.615  0.00  0.00    +0.282 C 
ATOM     13  O   UNL     1       3.357  -6.196  27.360  0.00  0.00    -0.343 OA
ATOM     14  C   UNL     1       3.681  -6.328  28.745  0.00  0.00    +0.149 C 
ATOM     15  C   UNL     1       2.716  -7.358  29.336  0.00  0.00    +0.041 C 
ATOM     16  C   UNL     1       5.134  -6.775  28.991  0.00  0.00    +0.174 C 
ATOM     17  C   UNL     1       6.116  -5.924  28.178  0.00  0.00    +0.179 C 
ATOM     18  C   UNL     1       5.678  -5.933  26.714  0.00  0.00    +0.201 C 
BRANCH  18  19
ATOM     19  O   UNL     1       6.675  -5.284  25.917  0.00  0.00    -0.384 OA
ATOM     20  H   UNL     1       6.615  -5.666  25.012  0.00  0.00    +0.210 HD
ENDBRANCH  18  19
BRANCH  17  21
ATOM     21  O   UNL     1       7.442  -6.465  28.291  0.00  0.00    -0.386 OA
ATOM     22  H   UNL     1       7.934  -5.850  28.870  0.00  0.00    +0.210 HD
ENDBRANCH  17  21
BRANCH  16  23
ATOM     23  O   UNL     1       5.430  -6.746  30.388  0.00  0.00    -0.387 OA
ATOM     24  H   UNL     1       4.965  -7.482  30.824  0.00  0.00    +0.210 HD
ENDBRANCH  16  23
ENDBRANCH  11  12
ENDBRANCH   4  11
BRANCH   3  25
ATOM     25  O   UNL     1       5.390  -1.954  25.506  0.00  0.00    -0.453 OA
BRANCH  25  26
ATOM     26  C   UNL     1       6.198  -1.152  24.699  0.00  0.00    +0.214 A 
ATOM     27  C   UNL     1       6.749   0.180  25.097  0.00  0.00    +0.238 A 
ATOM     28  O   UNL     1       6.382   0.733  26.122  0.00  0.00    -0.283 OA
ATOM     29  C   UNL     1       7.786   0.798  24.196  0.00  0.00    +0.109 A 
ATOM     30  C   UNL     1       8.009   0.207  22.944  0.00  0.00    +0.147 A 
ATOM     31  C   UNL     1       8.936   0.732  22.027  0.00  0.00    +0.092 A 
ATOM     32  C   UNL     1       9.661   1.857  22.377  0.00  0.00    +0.124 A 
ATOM     33  C   UNL     1       9.473   2.461  23.615  0.00  0.00    +0.091 A 
ATOM     34  O   UNL     1       7.326  -0.910  22.541  0.00  0.00    -0.451 OA
ATOM     35  C   UNL     1       8.541   1.921  24.524  0.00  0.00    +0.135 A 
ATOM     36  C   UNL     1       6.563  -1.584  23.471  0.00  0.00    +0.181 A 
BRANCH  36  37
ATOM     37  C   UNL     1       6.341  -2.986  23.093  0.00  0.00    +0.025 A 
ATOM     38  C   UNL     1       7.507  -3.739  22.863  0.00  0.00    +0.015 A 
ATOM     39  C   UNL     1       7.430  -5.060  22.465  0.00  0.00    +0.050 A 
ATOM     40  C   UNL     1       6.189  -5.660  22.404  0.00  0.00    +0.158 A 
ATOM     41  C   UNL     1       5.019  -4.938  22.656  0.00  0.00    +0.159 A 
ATOM     42  C   UNL     1       5.078  -3.575  22.938  0.00  0.00    +0.060 A 
BRANCH  41  43
ATOM     43  O   UNL     1       3.837  -5.623  22.705  0.00  0.00    -0.503 OA
ATOM     44  H   UNL     1       3.088  -5.006  22.662  0.00  0.00    +0.292 HD
ENDBRANCH  41  43
BRANCH  40  45
ATOM     45  O   UNL     1       6.175  -7.004  22.180  0.00  0.00    -0.503 OA
ATOM     46  H   UNL     1       5.761  -7.373  22.978  0.00  0.00    +0.292 HD
ENDBRANCH  40  45
ENDBRANCH  36  37
BRANCH  35  47
ATOM     47  O   UNL     1       8.421   2.519  25.751  0.00  0.00    -0.506 OA
ATOM     48  H   UNL     1       8.042   1.891  26.385  0.00  0.00    +0.292 HD
ENDBRANCH  35  47
BRANCH  32  49
ATOM     49  O   UNL     1      10.563   2.429  21.529  0.00  0.00    -0.507 OA
ATOM     50  H   UNL     1      10.832   1.777  20.859  0.00  0.00    +0.292 HD
ENDBRANCH  32  49
ENDBRANCH  25  26
ENDBRANCH   3  25
BRANCH   1  51
ATOM     51  C   UNL     1       1.768   0.574  27.454  0.00  0.00    +0.197 C 
BRANCH  51  52
ATOM     52  O   UNL     1       2.127   1.842  28.052  0.00  0.00    -0.346 OA
BRANCH  52  56
ATOM     53  C   UNL     1       2.035   3.819  24.011  0.00  0.00    +0.041 C 
ATOM     54  C   UNL     1       3.193   3.088  24.693  0.00  0.00    +0.149 C 
ATOM     55  O   UNL     1       2.735   2.239  25.771  0.00  0.00    -0.343 OA
ATOM     56  C   UNL     1       2.409   2.866  27.024  0.00  0.00    +0.282 C 
ATOM     57  C   UNL     1       3.601   3.756  27.490  0.00  0.00    +0.201 C 
ATOM     58  C   UNL     1       3.932   4.795  26.398  0.00  0.00    +0.179 C 
ATOM     59  C   UNL     1       4.300   4.084  25.086  0.00  0.00    +0.174 C 
BRANCH  59  60
ATOM     60  O   UNL     1       5.558   3.408  25.201  0.00  0.00    -0.387 OA
ATOM     61  H   UNL     1       5.360   2.444  25.190  0.00  0.00    +0.210 HD
ENDBRANCH  59  60
BRANCH  58  62
ATOM     62  O   UNL     1       4.989   5.674  26.815  0.00  0.00    -0.386 OA
ATOM     63  H   UNL     1       5.537   5.887  26.036  0.00  0.00    +0.210 HD
ENDBRANCH  58  62
BRANCH  57  64
ATOM     64  O   UNL     1       4.769   2.938  27.705  0.00  0.00    -0.384 OA
ATOM     65  H   UNL     1       5.389   3.516  28.193  0.00  0.00    +0.210 HD
ENDBRANCH  57  64
ENDBRANCH  52  56
ENDBRANCH  51  52
ENDBRANCH   1  51
TORSDOF 20
ENDMDL
MODEL 7
REMARK VINA RESULT:      -6.7      2.515      8.569
REMARK  Name = 
REMARK  22 active torsions:
REMARK  status: ('A' for Active; 'I' for Inactive)
REMARK    1  A    between atoms: C_1  and  C_2
REMARK    2  A    between atoms: C_3  and  O_61
REMARK    3  A    between atoms: C_5  and  O_60
REMARK    4  A    between atoms: C_7  and  O_59
REMARK    5  A    between atoms: C_8  and  O_11
REMARK    6  A    between atoms: O_11  and  C_12
REMARK    7  A    between atoms: C_12  and  C_13
REMARK    8  A    between atoms: C_14  and  O_58
REMARK    9  A    between atoms: C_16  and  O_57
REMARK   10  A    between atoms: C_17  and  O_43
REMARK   11  A    between atoms: C_18  and  O_21
REMARK   12  A    between atoms: O_21  and  C_22
REMARK   13  A    between atoms: C_23  and  C_35
REMARK   14  A    between atoms: C_27  and  O_34
REMARK   15  A    between atoms: C_29  and  O_33
REMARK   16  A    between atoms: C_37  and  O_42
REMARK   17  A    between atoms: C_38  and  O_41
REMARK   18  A    between atoms: O_43  and  C_44
REMARK   19  A    between atoms: C_46  and  O_56
REMARK   20  A    between atoms: C_48  and  O_55
REMARK   21  A    between atoms: C_49  and  O_54
REMARK   22  A    between atoms: C_51  and  C_53
REMARK                            x       y       z     vdW  Elec       q    Type
REMARK                         _______ _______ _______ _____ _____    ______ ____
ROOT
ATOM      1  C   UNL     1       7.798  -2.859  23.683  0.00  0.00    +0.179 C 
ATOM      2  O   UNL     1       6.793  -2.756  24.719  0.00  0.00    -0.331 OA
ATOM      3  C   UNL     1       6.154  -3.936  25.235  0.00  0.00    +0.340 C 
ATOM      4  C   UNL     1       5.766  -4.994  24.118  0.00  0.00    +0.221 C 
ATOM      5  C   UNL     1       7.053  -5.245  23.310  0.00  0.00    +0.180 C 
ATOM      6  C   UNL     1       7.539  -3.957  22.650  0.00  0.00    +0.177 C 
ENDROOT
BRANCH   6   7
ATOM      7  O   UNL     1       6.547  -3.517  21.700  0.00  0.00    -0.386 OA
ATOM      8  H   UNL     1       6.711  -3.988  20.854  0.00  0.00    +0.210 HD
ENDBRANCH   6   7
BRANCH   5   9
ATOM      9  O   UNL     1       6.880  -6.287  22.332  0.00  0.00    -0.386 OA
ATOM     10  H   UNL     1       7.643  -6.215  21.718  0.00  0.00    +0.210 HD
ENDBRANCH   5   9
BRANCH   4  11
ATOM     11  O   UNL     1       4.631  -4.575  23.297  0.00  0.00    -0.337 OA
BRANCH  11  12
ATOM     12  C   UNL     1       3.594  -5.551  23.030  0.00  0.00    +0.282 C 
ATOM     13  O   UNL     1       2.294  -4.936  23.101  0.00  0.00    -0.343 OA
ATOM     14  C   UNL     1       1.882  -4.568  24.417  0.00  0.00    +0.149 C 
ATOM     15  C   UNL     1       0.443  -4.058  24.312  0.00  0.00    +0.041 C 
ATOM     16  C   UNL     1       1.949  -5.731  25.425  0.00  0.00    +0.174 C 
ATOM     17  C   UNL     1       3.304  -6.445  25.349  0.00  0.00    +0.179 C 
ATOM     18  C   UNL     1       3.573  -6.834  23.896  0.00  0.00    +0.201 C 
BRANCH  18  19
ATOM     19  O   UNL     1       4.751  -7.647  23.834  0.00  0.00    -0.384 OA
ATOM     20  H   UNL     1       5.317  -7.280  23.117  0.00  0.00    +0.210 HD
ENDBRANCH  18  19
BRANCH  17  21
ATOM     21  O   UNL     1       3.282  -7.624  26.170  0.00  0.00    -0.386 OA
ATOM     22  H   UNL     1       2.511  -8.145  25.869  0.00  0.00    +0.210 HD
ENDBRANCH  17  21
BRANCH  16  23
ATOM     23  O   UNL     1       1.665  -5.261  26.743  0.00  0.00    -0.387 OA
ATOM     24  H   UNL     1       2.101  -4.401  26.872  0.00  0.00    +0.210 HD
ENDBRANCH  16  23
ENDBRANCH  11  12
ENDBRANCH   4  11
BRANCH   3  25
ATOM     25  O   UNL     1       4.935  -3.606  25.938  0.00  0.00    -0.453 OA
BRANCH  25  26
ATOM     26  C   UNL     1       4.755  -2.512  26.785  0.00  0.00    +0.214 A 
ATOM     27  C   UNL     1       4.656  -1.090  26.336  0.00  0.00    +0.238 A 
ATOM     28  O   UNL     1       4.895  -0.776  25.179  0.00  0.00    -0.283 OA
ATOM     29  C   UNL     1       4.232  -0.067  27.357  0.00  0.00    +0.109 A 
ATOM     30  C   UNL     1       4.172  -0.464  28.701  0.00  0.00    +0.147 A 
ATOM     31  C   UNL     1       3.815   0.430  29.726  0.00  0.00    +0.092 A 
ATOM     32  C   UNL     1       3.499   1.736  29.396  0.00  0.00    +0.124 A 
ATOM     33  C   UNL     1       3.537   2.159  28.072  0.00  0.00    +0.091 A 
ATOM     34  O   UNL     1       4.470  -1.743  29.091  0.00  0.00    -0.451 OA
ATOM     35  C   UNL     1       3.895   1.250  27.056  0.00  0.00    +0.135 A 
ATOM     36  C   UNL     1       4.623  -2.707  28.116  0.00  0.00    +0.181 A 
BRANCH  36  37
ATOM     37  C   UNL     1       4.399  -4.061  28.639  0.00  0.00    +0.025 A 
ATOM     38  C   UNL     1       3.299  -4.198  29.505  0.00  0.00    +0.015 A 
ATOM     39  C   UNL     1       3.006  -5.415  30.092  0.00  0.00    +0.050 A 
ATOM     40  C   UNL     1       3.748  -6.519  29.725  0.00  0.00    +0.158 A 
ATOM     41  C   UNL     1       4.828  -6.412  28.845  0.00  0.00    +0.159 A 
ATOM     42  C   UNL     1       5.208  -5.168  28.344  0.00  0.00    +0.060 A 
BRANCH  41  43
ATOM     43  O   UNL     1       5.435  -7.562  28.426  0.00  0.00    -0.503 OA
ATOM     44  H   UNL     1       4.821  -8.312  28.494  0.00  0.00    +0.292 HD
ENDBRANCH  41  43
BRANCH  40  45
ATOM     45  O   UNL     1       3.313  -7.723  30.193  0.00  0.00    -0.503 OA
ATOM     46  H   UNL     1       3.466  -8.334  29.451  0.00  0.00    +0.292 HD
ENDBRANCH  40  45
ENDBRANCH  36  37
BRANCH  35  47
ATOM     47  O   UNL     1       3.875   1.695  25.761  0.00  0.00    -0.506 OA
ATOM     48  H   UNL     1       4.142   0.979  25.164  0.00  0.00    +0.292 HD
ENDBRANCH  35  47
BRANCH  32  49
ATOM     49  O   UNL     1       3.162   2.659  30.341  0.00  0.00    -0.507 OA
ATOM     50  H   UNL     1       3.663   2.482  31.156  0.00  0.00    +0.292 HD
ENDBRANCH  32  49
ENDBRANCH  25  26
ENDBRANCH   3  25
BRANCH   1  51
ATOM     51  C   UNL     1       9.313  -2.716  24.108  0.00  0.00    +0.197 C 
BRANCH  51  52
ATOM     52  O   UNL     1      10.102  -1.630  23.569  0.00  0.00    -0.346 OA
BRANCH  52  56
ATOM     53  C   UNL     1       7.995   1.693  21.385  0.00  0.00    +0.041 C 
ATOM     54  C   UNL     1       9.294   1.749  22.189  0.00  0.00    +0.149 C 
ATOM     55  O   UNL     1       9.869   0.435  22.380  0.00  0.00    -0.343 OA
ATOM     56  C   UNL     1       9.292  -0.405  23.396  0.00  0.00    +0.282 C 
ATOM     57  C   UNL     1       9.230   0.372  24.745  0.00  0.00    +0.201 C 
ATOM     58  C   UNL     1       8.427   1.677  24.557  0.00  0.00    +0.179 C 
ATOM     59  C   UNL     1       9.090   2.555  23.485  0.00  0.00    +0.174 C 
BRANCH  59  60
ATOM     60  O   UNL     1      10.342   3.077  23.948  0.00  0.00    -0.387 OA
ATOM     61  H   UNL     1      10.255   3.192  24.921  0.00  0.00    +0.210 HD
ENDBRANCH  59  60
BRANCH  58  62
ATOM     62  O   UNL     1       8.296   2.394  25.795  0.00  0.00    -0.386 OA
ATOM     63  H   UNL     1       7.779   1.847  26.415  0.00  0.00    +0.210 HD
ENDBRANCH  58  62
BRANCH  57  64
ATOM     64  O   UNL     1      10.562   0.719  25.174  0.00  0.00    -0.384 OA
ATOM     65  H   UNL     1      10.950   1.197  24.414  0.00  0.00    +0.210 HD
ENDBRANCH  57  64
ENDBRANCH  52  56
ENDBRANCH  51  52
ENDBRANCH   1  51
TORSDOF 20
ENDMDL
MODEL 8
REMARK VINA RESULT:      -6.7      2.415      8.670
REMARK  Name = 
REMARK  22 active torsions:
REMARK  status: ('A' for Active; 'I' for Inactive)
REMARK    1  A    between atoms: C_1  and  C_2
REMARK    2  A    between atoms: C_3  and  O_61
REMARK    3  A    between atoms: C_5  and  O_60
REMARK    4  A    between atoms: C_7  and  O_59
REMARK    5  A    between atoms: C_8  and  O_11
REMARK    6  A    between atoms: O_11  and  C_12
REMARK    7  A    between atoms: C_12  and  C_13
REMARK    8  A    between atoms: C_14  and  O_58
REMARK    9  A    between atoms: C_16  and  O_57
REMARK   10  A    between atoms: C_17  and  O_43
REMARK   11  A    between atoms: C_18  and  O_21
REMARK   12  A    between atoms: O_21  and  C_22
REMARK   13  A    between atoms: C_23  and  C_35
REMARK   14  A    between atoms: C_27  and  O_34
REMARK   15  A    between atoms: C_29  and  O_33
REMARK   16  A    between atoms: C_37  and  O_42
REMARK   17  A    between atoms: C_38  and  O_41
REMARK   18  A    between atoms: O_43  and  C_44
REMARK   19  A    between atoms: C_46  and  O_56
REMARK   20  A    between atoms: C_48  and  O_55
REMARK   21  A    between atoms: C_49  and  O_54
REMARK   22  A    between atoms: C_51  and  C_53
REMARK                            x       y       z     vdW  Elec       q    Type
REMARK                         _______ _______ _______ _____ _____    ______ ____
ROOT
ATOM      1  C   UNL     1       7.608   0.019  23.303  0.00  0.00    +0.179 C 
ATOM      2  O   UNL     1       7.001  -0.049  24.615  0.00  0.00    -0.331 OA
ATOM      3  C   UNL     1       7.708  -0.643  25.716  0.00  0.00    +0.340 C 
ATOM      4  C   UNL     1       8.479  -1.977  25.336  0.00  0.00    +0.221 C 
ATOM      5  C   UNL     1       9.346  -1.629  24.110  0.00  0.00    +0.180 C 
ATOM      6  C   UNL     1       8.473  -1.187  22.937  0.00  0.00    +0.177 C 
ENDROOT
BRANCH   6   7
ATOM      7  O   UNL     1       7.636  -2.293  22.537  0.00  0.00    -0.386 OA
ATOM      8  H   UNL     1       7.549  -2.897  23.306  0.00  0.00    +0.210 HD
ENDBRANCH   6   7
BRANCH   5   9
ATOM      9  O   UNL     1      10.202  -2.720  23.728  0.00  0.00    -0.386 OA
ATOM     10  H   UNL     1      11.032  -2.314  23.396  0.00  0.00    +0.210 HD
ENDBRANCH   5   9
BRANCH   4  11
ATOM     11  O   UNL     1       7.588  -3.116  25.118  0.00  0.00    -0.337 OA
BRANCH  11  12
ATOM     12  C   UNL     1       8.181  -4.437  25.066  0.00  0.00    +0.282 C 
ATOM     13  O   UNL     1       8.078  -4.982  23.738  0.00  0.00    -0.343 OA
ATOM     14  C   UNL     1       6.754  -5.346  23.346  0.00  0.00    +0.149 C 
ATOM     15  C   UNL     1       6.860  -6.019  21.975  0.00  0.00    +0.041 C 
ATOM     16  C   UNL     1       6.064  -6.299  24.341  0.00  0.00    +0.174 C 
ATOM     17  C   UNL     1       6.191  -5.778  25.777  0.00  0.00    +0.179 C 
ATOM     18  C   UNL     1       7.665  -5.497  26.069  0.00  0.00    +0.201 C 
BRANCH  18  19
ATOM     19  O   UNL     1       7.819  -5.171  27.455  0.00  0.00    -0.384 OA
ATOM     20  H   UNL     1       7.240  -4.397  27.635  0.00  0.00    +0.210 HD
ENDBRANCH  18  19
BRANCH  17  21
ATOM     21  O   UNL     1       5.693  -6.761  26.699  0.00  0.00    -0.386 OA
ATOM     22  H   UNL     1       5.070  -7.315  26.188  0.00  0.00    +0.210 HD
ENDBRANCH  17  21
BRANCH  16  23
ATOM     23  O   UNL     1       4.702  -6.505  23.964  0.00  0.00    -0.387 OA
ATOM     24  H   UNL     1       4.318  -5.653  23.694  0.00  0.00    +0.210 HD
ENDBRANCH  16  23
ENDBRANCH  11  12
ENDBRANCH   4  11
BRANCH   3  25
ATOM     25  O   UNL     1       6.809  -0.976  26.797  0.00  0.00    -0.453 OA
BRANCH  25  26
ATOM     26  C   UNL     1       5.860  -0.120  27.358  0.00  0.00    +0.214 A 
ATOM     27  C   UNL     1       6.082   1.328  27.652  0.00  0.00    +0.238 A 
ATOM     28  O   UNL     1       7.195   1.826  27.565  0.00  0.00    -0.283 OA
ATOM     29  C   UNL     1       4.881   2.150  28.039  0.00  0.00    +0.109 A 
ATOM     30  C   UNL     1       3.683   1.476  28.315  0.00  0.00    +0.147 A 
ATOM     31  C   UNL     1       2.518   2.158  28.711  0.00  0.00    +0.092 A 
ATOM     32  C   UNL     1       2.554   3.537  28.818  0.00  0.00    +0.124 A 
ATOM     33  C   UNL     1       3.722   4.237  28.541  0.00  0.00    +0.091 A 
ATOM     34  O   UNL     1       3.582   0.113  28.223  0.00  0.00    -0.451 OA
ATOM     35  C   UNL     1       4.880   3.538  28.143  0.00  0.00    +0.135 A 
ATOM     36  C   UNL     1       4.622  -0.584  27.643  0.00  0.00    +0.181 A 
BRANCH  36  37
ATOM     37  C   UNL     1       4.192  -1.889  27.126  0.00  0.00    +0.025 A 
ATOM     38  C   UNL     1       3.767  -2.812  28.098  0.00  0.00    +0.015 A 
ATOM     39  C   UNL     1       3.372  -4.087  27.741  0.00  0.00    +0.050 A 
ATOM     40  C   UNL     1       3.296  -4.402  26.399  0.00  0.00    +0.158 A 
ATOM     41  C   UNL     1       3.686  -3.491  25.414  0.00  0.00    +0.159 A 
ATOM     42  C   UNL     1       4.202  -2.247  25.770  0.00  0.00    +0.060 A 
BRANCH  41  43
ATOM     43  O   UNL     1       3.464  -3.820  24.107  0.00  0.00    -0.503 OA
ATOM     44  H   UNL     1       4.288  -4.121  23.689  0.00  0.00    +0.292 HD
ENDBRANCH  41  43
BRANCH  40  45
ATOM     45  O   UNL     1       2.737  -5.606  26.090  0.00  0.00    -0.503 OA
ATOM     46  H   UNL     1       3.495  -6.213  26.044  0.00  0.00    +0.292 HD
ENDBRANCH  40  45
ENDBRANCH  36  37
BRANCH  35  47
ATOM     47  O   UNL     1       5.997   4.270  27.834  0.00  0.00    -0.506 OA
ATOM     48  H   UNL     1       6.451   3.870  27.077  0.00  0.00    +0.292 HD
ENDBRANCH  35  47
BRANCH  32  49
ATOM     49  O   UNL     1       1.467   4.260  29.214  0.00  0.00    -0.507 OA
ATOM     50  H   UNL     1       1.739   5.177  29.389  0.00  0.00    +0.292 HD
ENDBRANCH  32  49
ENDBRANCH  25  26
ENDBRANCH   3  25
BRANCH   1  51
ATOM     51  C   UNL     1       8.203   1.407  22.836  0.00  0.00    +0.197 C 
BRANCH  51  52
ATOM     52  O   UNL     1       7.309   2.436  22.352  0.00  0.00    -0.346 OA
BRANCH  52  56
ATOM     53  C   UNL     1       9.850   6.010  23.360  0.00  0.00    +0.041 C 
ATOM     54  C   UNL     1       9.371   4.887  24.280  0.00  0.00    +0.149 C 
ATOM     55  O   UNL     1       8.946   3.722  23.534  0.00  0.00    -0.343 OA
ATOM     56  C   UNL     1       7.645   3.758  22.922  0.00  0.00    +0.282 C 
ATOM     57  C   UNL     1       6.577   4.153  23.986  0.00  0.00    +0.201 C 
ATOM     58  C   UNL     1       6.950   5.510  24.620  0.00  0.00    +0.179 C 
ATOM     59  C   UNL     1       8.333   5.420  25.284  0.00  0.00    +0.174 C 
BRANCH  59  60
ATOM     60  O   UNL     1       8.292   4.584  26.448  0.00  0.00    -0.387 OA
ATOM     61  H   UNL     1       8.945   3.864  26.298  0.00  0.00    +0.210 HD
ENDBRANCH  59  60
BRANCH  58  62
ATOM     62  O   UNL     1       5.957   5.937  25.565  0.00  0.00    -0.386 OA
ATOM     63  H   UNL     1       5.096   5.982  25.108  0.00  0.00    +0.210 HD
ENDBRANCH  58  62
BRANCH  57  64
ATOM     64  O   UNL     1       6.536   3.162  25.032  0.00  0.00    -0.384 OA
ATOM     65  H   UNL     1       5.669   2.723  24.924  0.00  0.00    +0.210 HD
ENDBRANCH  57  64
ENDBRANCH  52  56
ENDBRANCH  51  52
ENDBRANCH   1  51
TORSDOF 20
ENDMDL
MODEL 9
REMARK VINA RESULT:      -6.5      2.457      7.547
REMARK  Name = 
REMARK  22 active torsions:
REMARK  status: ('A' for Active; 'I' for Inactive)
REMARK    1  A    between atoms: C_1  and  C_2
REMARK    2  A    between atoms: C_3  and  O_61
REMARK    3  A    between atoms: C_5  and  O_60
REMARK    4  A    between atoms: C_7  and  O_59
REMARK    5  A    between atoms: C_8  and  O_11
REMARK    6  A    between atoms: O_11  and  C_12
REMARK    7  A    between atoms: C_12  and  C_13
REMARK    8  A    between atoms: C_14  and  O_58
REMARK    9  A    between atoms: C_16  and  O_57
REMARK   10  A    between atoms: C_17  and  O_43
REMARK   11  A    between atoms: C_18  and  O_21
REMARK   12  A    between atoms: O_21  and  C_22
REMARK   13  A    between atoms: C_23  and  C_35
REMARK   14  A    between atoms: C_27  and  O_34
REMARK   15  A    between atoms: C_29  and  O_33
REMARK   16  A    between atoms: C_37  and  O_42
REMARK   17  A    between atoms: C_38  and  O_41
REMARK   18  A    between atoms: O_43  and  C_44
REMARK   19  A    between atoms: C_46  and  O_56
REMARK   20  A    between atoms: C_48  and  O_55
REMARK   21  A    between atoms: C_49  and  O_54
REMARK   22  A    between atoms: C_51  and  C_53
REMARK                            x       y       z     vdW  Elec       q    Type
REMARK                         _______ _______ _______ _____ _____    ______ ____
ROOT
ATOM      1  C   UNL     1       8.964  -3.094  24.163  0.00  0.00    +0.179 C 
ATOM      2  O   UNL     1       8.083  -2.341  25.028  0.00  0.00    -0.331 OA
ATOM      3  C   UNL     1       7.861  -2.760  26.385  0.00  0.00    +0.340 C 
ATOM      4  C   UNL     1       7.676  -4.327  26.550  0.00  0.00    +0.221 C 
ATOM      5  C   UNL     1       8.892  -4.970  25.855  0.00  0.00    +0.180 C 
ATOM      6  C   UNL     1       8.923  -4.609  24.372  0.00  0.00    +0.177 C 
ENDROOT
BRANCH   6   7
ATOM      7  O   UNL     1       7.755  -5.164  23.733  0.00  0.00    -0.386 OA
ATOM      8  H   UNL     1       7.775  -4.899  22.787  0.00  0.00    +0.210 HD
ENDBRANCH   6   7
BRANCH   5   9
ATOM      9  O   UNL     1       8.923  -6.397  26.035  0.00  0.00    -0.386 OA
ATOM     10  H   UNL     1       8.902  -6.553  27.004  0.00  0.00    +0.210 HD
ENDBRANCH   5   9
BRANCH   4  11
ATOM     11  O   UNL     1       6.391  -4.812  26.047  0.00  0.00    -0.337 OA
BRANCH  11  12
ATOM     12  C   UNL     1       5.800  -5.961  26.703  0.00  0.00    +0.282 C 
ATOM     13  O   UNL     1       4.370  -5.954  26.539  0.00  0.00    -0.343 OA
ATOM     14  C   UNL     1       3.693  -4.937  27.278  0.00  0.00    +0.149 C 
ATOM     15  C   UNL     1       2.192  -5.165  27.085  0.00  0.00    +0.041 C 
ATOM     16  C   UNL     1       4.032  -4.948  28.780  0.00  0.00    +0.174 C 
ATOM     17  C   UNL     1       5.548  -5.003  29.001  0.00  0.00    +0.179 C 
ATOM     18  C   UNL     1       6.117  -6.175  28.203  0.00  0.00    +0.201 C 
BRANCH  18  19
ATOM     19  O   UNL     1       7.502  -6.342  28.530  0.00  0.00    -0.384 OA
ATOM     20  H   UNL     1       7.593  -6.171  29.495  0.00  0.00    +0.210 HD
ENDBRANCH  18  19
BRANCH  17  21
ATOM     21  O   UNL     1       5.832  -5.183  30.397  0.00  0.00    -0.386 OA
ATOM     22  H   UNL     1       5.392  -4.441  30.858  0.00  0.00    +0.210 HD
ENDBRANCH  17  21
BRANCH  16  23
ATOM     23  O   UNL     1       3.437  -3.823  29.429  0.00  0.00    -0.387 OA
ATOM     24  H   UNL     1       4.116  -3.138  29.558  0.00  0.00    +0.210 HD
ENDBRANCH  16  23
ENDBRANCH  11  12
ENDBRANCH   4  11
BRANCH   3  25
ATOM     25  O   UNL     1       6.676  -2.141  26.937  0.00  0.00    -0.453 OA
BRANCH  25  26
ATOM     26  C   UNL     1       6.222  -0.854  26.648  0.00  0.00    +0.214 A 
ATOM     27  C   UNL     1       6.546   0.367  27.448  0.00  0.00    +0.238 A 
ATOM     28  O   UNL     1       7.114   0.282  28.526  0.00  0.00    -0.283 OA
ATOM     29  C   UNL     1       6.164   1.701  26.863  0.00  0.00    +0.109 A 
ATOM     30  C   UNL     1       5.341   1.712  25.728  0.00  0.00    +0.147 A 
ATOM     31  C   UNL     1       4.910   2.910  25.130  0.00  0.00    +0.092 A 
ATOM     32  C   UNL     1       5.323   4.114  25.672  0.00  0.00    +0.124 A 
ATOM     33  C   UNL     1       6.149   4.139  26.791  0.00  0.00    +0.091 A 
ATOM     34  O   UNL     1       4.901   0.553  25.142  0.00  0.00    -0.451 OA
ATOM     35  C   UNL     1       6.573   2.929  27.375  0.00  0.00    +0.135 A 
ATOM     36  C   UNL     1       5.455  -0.641  25.555  0.00  0.00    +0.181 A 
BRANCH  36  37
ATOM     37  C   UNL     1       5.324  -1.691  24.536  0.00  0.00    +0.025 A 
ATOM     38  C   UNL     1       6.071  -1.488  23.362  0.00  0.00    +0.015 A 
ATOM     39  C   UNL     1       6.003  -2.386  22.315  0.00  0.00    +0.050 A 
ATOM     40  C   UNL     1       5.274  -3.546  22.486  0.00  0.00    +0.158 A 
ATOM     41  C   UNL     1       4.547  -3.782  23.655  0.00  0.00    +0.159 A 
ATOM     42  C   UNL     1       4.510  -2.825  24.668  0.00  0.00    +0.060 A 
BRANCH  41  43
ATOM     43  O   UNL     1       3.955  -5.003  23.811  0.00  0.00    -0.503 OA
ATOM     44  H   UNL     1       3.609  -5.321  22.960  0.00  0.00    +0.292 HD
ENDBRANCH  41  43
BRANCH  40  45
ATOM     45  O   UNL     1       5.379  -4.479  21.499  0.00  0.00    -0.503 OA
ATOM     46  H   UNL     1       6.149  -5.012  21.758  0.00  0.00    +0.292 HD
ENDBRANCH  40  45
ENDBRANCH  36  37
BRANCH  35  47
ATOM     47  O   UNL     1       7.424   2.998  28.447  0.00  0.00    -0.506 OA
ATOM     48  H   UNL     1       7.577   2.109  28.802  0.00  0.00    +0.292 HD
ENDBRANCH  35  47
BRANCH  32  49
ATOM     49  O   UNL     1       4.929   5.313  25.156  0.00  0.00    -0.507 OA
ATOM     50  H   UNL     1       5.664   5.947  25.219  0.00  0.00    +0.292 HD
ENDBRANCH  32  49
ENDBRANCH  25  26
ENDBRANCH   3  25
BRANCH   1  51
ATOM     51  C   UNL     1      10.412  -2.517  23.902  0.00  0.00    +0.197 C 
BRANCH  51  52
ATOM     52  O   UNL     1      10.633  -1.635  22.776  0.00  0.00    -0.346 OA
BRANCH  52  56
ATOM     53  C   UNL     1       7.813   1.497  21.198  0.00  0.00    +0.041 C 
ATOM     54  C   UNL     1       9.267   1.655  21.641  0.00  0.00    +0.149 C 
ATOM     55  O   UNL     1       9.961   0.386  21.682  0.00  0.00    -0.343 OA
ATOM     56  C   UNL     1       9.723  -0.470  22.814  0.00  0.00    +0.282 C 
ATOM     57  C   UNL     1       9.953   0.328  24.132  0.00  0.00    +0.201 C 
ATOM     58  C   UNL     1       9.041   1.573  24.153  0.00  0.00    +0.179 C 
ATOM     59  C   UNL     1       9.347   2.472  22.944  0.00  0.00    +0.174 C 
BRANCH  59  60
ATOM     60  O   UNL     1      10.636   3.084  23.070  0.00  0.00    -0.387 OA
ATOM     61  H   UNL     1      11.281   2.464  22.662  0.00  0.00    +0.210 HD
ENDBRANCH  59  60
BRANCH  58  62
ATOM     62  O   UNL     1       9.182   2.305  25.381  0.00  0.00    -0.386 OA
ATOM     63  H   UNL     1       9.413   1.675  26.090  0.00  0.00    +0.210 HD
ENDBRANCH  58  62
BRANCH  57  64
ATOM     64  O   UNL     1      11.324   0.771  24.204  0.00  0.00    -0.384 OA
ATOM     65  H   UNL     1      11.585   0.619  25.135  0.00  0.00    +0.210 HD
ENDBRANCH  57  64
ENDBRANCH  52  56
ENDBRANCH  51  52
ENDBRANCH   1  51
TORSDOF 20
ENDMDL
