MODEL 1
REMARK VINA RESULT:      -7.0      0.000      0.000
REMARK  Name = 
REMARK  24 active torsions:
REMARK  status: ('A' for Active; 'I' for Inactive)
REMARK    1  A    between atoms: C_3  and  O_63
REMARK    2  A    between atoms: C_4  and  O_62
REMARK    3  A    between atoms: C_6  and  C_7
REMARK    4  A    between atoms: C_8  and  O_20
REMARK    5  A    between atoms: C_12  and  O_19
REMARK    6  A    between atoms: C_14  and  O_18
REMARK    7  A    between atoms: O_20  and  C_21
REMARK    8  A    between atoms: C_23  and  O_47
REMARK    9  A    between atoms: C_24  and  O_46
REMARK   10  A    between atoms: C_25  and  O_45
REMARK   11  A    between atoms: C_27  and  C_29
REMARK   12  A    between atoms: C_29  and  O_30
REMARK   13  A    between atoms: O_30  and  C_31
REMARK   14  A    between atoms: C_33  and  O_44
REMARK   15  A    between atoms: C_34  and  O_43
REMARK   16  A    between atoms: C_36  and  O_42
REMARK   17  A    between atoms: C_38  and  C_40
REMARK   18  A    between atoms: C_40  and  O_41
REMARK   19  A    between atoms: O_47  and  C_48
REMARK   20  A    between atoms: C_50  and  O_61
REMARK   21  A    between atoms: C_52  and  O_60
REMARK   22  A    between atoms: C_53  and  O_59
REMARK   23  A    between atoms: C_55  and  C_57
REMARK   24  A    between atoms: C_57  and  O_58
REMARK                            x       y       z     vdW  Elec       q    Type
REMARK                         _______ _______ _______ _____ _____    ______ ____
ROOT
ATOM      1  C   UNL     1       6.116   1.200  24.965  0.00  0.00    +0.340 C 
ATOM      2  O   UNL     1       5.213   0.054  24.928  0.00  0.00    -0.331 OA
ATOM      3  C   UNL     1       4.951  -0.608  26.199  0.00  0.00    +0.179 C 
ATOM      4  C   UNL     1       6.118  -0.701  27.223  0.00  0.00    +0.177 C 
ATOM      5  C   UNL     1       7.114   0.424  27.052  0.00  0.00    +0.180 C 
ATOM      6  C   UNL     1       7.397   0.610  25.545  0.00  0.00    +0.221 C 
ENDROOT
BRANCH   5   7
ATOM      7  O   UNL     1       8.280   0.149  27.834  0.00  0.00    -0.386 OA
ATOM      8  H   UNL     1       8.298   0.826  28.529  0.00  0.00    +0.210 HD
ENDBRANCH   5   7
BRANCH   4   9
ATOM      9  O   UNL     1       6.884  -1.919  27.111  0.00  0.00    -0.386 OA
ATOM     10  H   UNL     1       7.732  -1.664  26.695  0.00  0.00    +0.210 HD
ENDBRANCH   4   9
BRANCH   6  11
ATOM     11  O   UNL     1       8.654   1.202  25.338  0.00  0.00    -0.337 OA
BRANCH  11  12
ATOM     12  C   UNL     1       9.731   0.607  24.641  0.00  0.00    +0.282 C 
ATOM     13  O   UNL     1      10.873   1.447  24.421  0.00  0.00    -0.341 OA
ATOM     14  C   UNL     1      10.558   2.722  23.821  0.00  0.00    +0.178 C 
ATOM     15  C   UNL     1       9.714   2.615  22.543  0.00  0.00    +0.177 C 
ATOM     16  C   UNL     1       8.589   1.581  22.657  0.00  0.00    +0.179 C 
ATOM     17  C   UNL     1       9.070   0.264  23.299  0.00  0.00    +0.201 C 
BRANCH  17  18
ATOM     18  O   UNL     1       9.917  -0.449  22.408  0.00  0.00    -0.384 OA
ATOM     19  H   UNL     1      10.822  -0.419  22.776  0.00  0.00    +0.210 HD
ENDBRANCH  17  18
BRANCH  16  20
ATOM     20  O   UNL     1       8.065   1.326  21.343  0.00  0.00    -0.386 OA
ATOM     21  H   UNL     1       7.593   2.145  21.085  0.00  0.00    +0.210 HD
ENDBRANCH  16  20
BRANCH  15  22
ATOM     22  O   UNL     1      10.507   2.260  21.397  0.00  0.00    -0.386 OA
ATOM     23  H   UNL     1      11.096   3.035  21.268  0.00  0.00    +0.210 HD
ENDBRANCH  15  22
BRANCH  14  24
ATOM     24  C   UNL     1      11.873   3.512  23.582  0.00  0.00    +0.190 C 
BRANCH  24  25
ATOM     25  O   UNL     1      11.673   4.524  22.593  0.00  0.00    -0.392 OA
ATOM     26  H   UNL     1      10.947   4.232  22.016  0.00  0.00    +0.210 HD
ENDBRANCH  24  25
ENDBRANCH  14  24
ENDBRANCH  11  12
ENDBRANCH   6  11
BRANCH   3  27
ATOM     27  C   UNL     1       4.477  -2.039  25.881  0.00  0.00    +0.197 C 
BRANCH  27  28
ATOM     28  O   UNL     1       4.917  -2.584  24.629  0.00  0.00    -0.346 OA
BRANCH  28  29
ATOM     29  C   UNL     1       5.376  -3.944  24.660  0.00  0.00    +0.282 C 
ATOM     30  O   UNL     1       6.753  -3.966  25.073  0.00  0.00    -0.341 OA
ATOM     31  C   UNL     1       7.677  -3.372  24.138  0.00  0.00    +0.178 C 
ATOM     32  C   UNL     1       7.547  -3.974  22.719  0.00  0.00    +0.177 C 
ATOM     33  C   UNL     1       6.092  -3.963  22.248  0.00  0.00    +0.179 C 
ATOM     34  C   UNL     1       5.230  -4.670  23.302  0.00  0.00    +0.201 C 
BRANCH  34  35
ATOM     35  O   UNL     1       3.877  -4.792  22.854  0.00  0.00    -0.384 OA
ATOM     36  H   UNL     1       3.318  -4.870  23.652  0.00  0.00    +0.210 HD
ENDBRANCH  34  35
BRANCH  33  37
ATOM     37  O   UNL     1       5.627  -2.622  21.997  0.00  0.00    -0.386 OA
ATOM     38  H   UNL     1       5.726  -2.453  21.031  0.00  0.00    +0.210 HD
ENDBRANCH  33  37
BRANCH  32  39
ATOM     39  O   UNL     1       8.019  -5.328  22.719  0.00  0.00    -0.386 OA
ATOM     40  H   UNL     1       8.562  -5.472  23.515  0.00  0.00    +0.210 HD
ENDBRANCH  32  39
BRANCH  31  41
ATOM     41  C   UNL     1       9.114  -3.563  24.667  0.00  0.00    +0.190 C 
BRANCH  41  42
ATOM     42  O   UNL     1      10.104  -3.130  23.735  0.00  0.00    -0.392 OA
ATOM     43  H   UNL     1       9.652  -2.809  22.938  0.00  0.00    +0.210 HD
ENDBRANCH  41  42
ENDBRANCH  31  41
ENDBRANCH  28  29
ENDBRANCH  27  28
ENDBRANCH   3  27
BRANCH   1  44
ATOM     44  O   UNL     1       5.449   2.287  25.645  0.00  0.00    -0.453 OA
BRANCH  44  55
ATOM     45  C   UNL     1       5.299   4.391  24.418  0.00  0.00    +0.181 A 
ATOM     46  O   UNL     1       4.621   5.164  23.446  0.00  0.00    -0.451 OA
ATOM     47  C   UNL     1       3.328   4.860  23.080  0.00  0.00    +0.147 A 
ATOM     48  C   UNL     1       2.596   3.886  23.728  0.00  0.00    +0.109 A 
ATOM     49  C   UNL     1       1.236   3.685  23.420  0.00  0.00    +0.135 A 
ATOM     50  C   UNL     1       0.611   4.438  22.430  0.00  0.00    +0.091 A 
ATOM     51  C   UNL     1       1.365   5.362  21.721  0.00  0.00    +0.124 A 
ATOM     52  C   UNL     1       3.290   3.052  24.699  0.00  0.00    +0.238 A 
ATOM     53  O   UNL     1       2.637   2.157  25.223  0.00  0.00    -0.283 OA
ATOM     54  C   UNL     1       2.716   5.579  22.037  0.00  0.00    +0.092 A 
ATOM     55  C   UNL     1       4.734   3.307  25.021  0.00  0.00    +0.214 A 
BRANCH  45  57
ATOM     56  C   UNL     1       7.177   5.133  26.000  0.00  0.00    +0.015 A 
ATOM     57  C   UNL     1       6.691   4.924  24.693  0.00  0.00    +0.025 A 
ATOM     58  C   UNL     1       7.550   5.355  23.662  0.00  0.00    +0.060 A 
ATOM     59  C   UNL     1       8.802   5.926  23.958  0.00  0.00    +0.159 A 
ATOM     60  C   UNL     1       9.225   6.122  25.270  0.00  0.00    +0.158 A 
ATOM     61  C   UNL     1       8.402   5.738  26.300  0.00  0.00    +0.050 A 
BRANCH  60  62
ATOM     62  O   UNL     1      10.442   6.684  25.510  0.00  0.00    -0.503 OA
ATOM     63  H   UNL     1      10.314   7.622  25.746  0.00  0.00    +0.292 HD
ENDBRANCH  60  62
BRANCH  59  64
ATOM     64  O   UNL     1       9.627   6.310  22.934  0.00  0.00    -0.503 OA
ATOM     65  H   UNL     1       9.710   7.279  23.043  0.00  0.00    +0.292 HD
ENDBRANCH  59  64
ENDBRANCH  45  57
BRANCH  51  66
ATOM     66  O   UNL     1       0.791   6.079  20.706  0.00  0.00    -0.507 OA
ATOM     67  H   UNL     1       0.074   5.556  20.308  0.00  0.00    +0.292 HD
ENDBRANCH  51  66
BRANCH  49  68
ATOM     68  O   UNL     1       0.443   2.761  24.052  0.00  0.00    -0.506 OA
ATOM     69  H   UNL     1      -0.279   2.500  23.434  0.00  0.00    +0.292 HD
ENDBRANCH  49  68
ENDBRANCH  44  55
ENDBRANCH   1  44
TORSDOF 24
ENDMDL
MODEL 2
REMARK VINA RESULT:      -6.9      2.399      8.314
REMARK  Name = 
REMARK  24 active torsions:
REMARK  status: ('A' for Active; 'I' for Inactive)
REMARK    1  A    between atoms: C_3  and  O_63
REMARK    2  A    between atoms: C_4  and  O_62
REMARK    3  A    between atoms: C_6  and  C_7
REMARK    4  A    between atoms: C_8  and  O_20
REMARK    5  A    between atoms: C_12  and  O_19
REMARK    6  A    between atoms: C_14  and  O_18
REMARK    7  A    between atoms: O_20  and  C_21
REMARK    8  A    between atoms: C_23  and  O_47
REMARK    9  A    between atoms: C_24  and  O_46
REMARK   10  A    between atoms: C_25  and  O_45
REMARK   11  A    between atoms: C_27  and  C_29
REMARK   12  A    between atoms: C_29  and  O_30
REMARK   13  A    between atoms: O_30  and  C_31
REMARK   14  A    between atoms: C_33  and  O_44
REMARK   15  A    between atoms: C_34  and  O_43
REMARK   16  A    between atoms: C_36  and  O_42
REMARK   17  A    between atoms: C_38  and  C_40
REMARK   18  A    between atoms: C_40  and  O_41
REMARK   19  A    between atoms: O_47  and  C_48
REMARK   20  A    between atoms: C_50  and  O_61
REMARK   21  A    between atoms: C_52  and  O_60
REMARK   22  A    between atoms: C_53  and  O_59
REMARK   23  A    between atoms: C_55  and  C_57
REMARK   24  A    between atoms: C_57  and  O_58
REMARK                            x       y       z     vdW  Elec       q    Type
REMARK                         _______ _______ _______ _____ _____    ______ ____
ROOT
ATOM      1  C   UNL     1       4.939  -0.864  26.278  0.00  0.00    +0.340 C 
ATOM      2  O   UNL     1       4.143   0.324  25.988  0.00  0.00    -0.331 OA
ATOM      3  C   UNL     1       3.546   1.001  27.132  0.00  0.00    +0.179 C 
ATOM      4  C   UNL     1       3.043   0.124  28.314  0.00  0.00    +0.177 C 
ATOM      5  C   UNL     1       3.799  -1.183  28.412  0.00  0.00    +0.180 C 
ATOM      6  C   UNL     1       3.948  -1.777  26.993  0.00  0.00    +0.221 C 
ENDROOT
BRANCH   5   7
ATOM      7  O   UNL     1       3.134  -2.048  29.338  0.00  0.00    -0.386 OA
ATOM      8  H   UNL     1       3.107  -1.563  30.179  0.00  0.00    +0.210 HD
ENDBRANCH   5   7
BRANCH   4   9
ATOM      9  O   UNL     1       1.651  -0.240  28.207  0.00  0.00    -0.386 OA
ATOM     10  H   UNL     1       1.238   0.445  27.645  0.00  0.00    +0.210 HD
ENDBRANCH   4   9
BRANCH   6  11
ATOM     11  O   UNL     1       4.117  -3.170  27.045  0.00  0.00    -0.337 OA
BRANCH  11  12
ATOM     12  C   UNL     1       5.324  -3.856  26.776  0.00  0.00    +0.282 C 
ATOM     13  O   UNL     1       5.243  -4.899  25.794  0.00  0.00    -0.341 OA
ATOM     14  C   UNL     1       4.190  -5.856  26.038  0.00  0.00    +0.178 C 
ATOM     15  C   UNL     1       4.206  -6.449  27.453  0.00  0.00    +0.177 C 
ATOM     16  C   UNL     1       4.483  -5.400  28.536  0.00  0.00    +0.179 C 
ATOM     17  C   UNL     1       5.642  -4.458  28.151  0.00  0.00    +0.201 C 
BRANCH  17  18
ATOM     18  O   UNL     1       6.886  -5.144  28.203  0.00  0.00    -0.384 OA
ATOM     19  H   UNL     1       6.731  -6.057  27.890  0.00  0.00    +0.210 HD
ENDBRANCH  17  18
BRANCH  16  20
ATOM     20  O   UNL     1       4.789  -6.080  29.765  0.00  0.00    -0.386 OA
ATOM     21  H   UNL     1       4.747  -7.036  29.554  0.00  0.00    +0.210 HD
ENDBRANCH  16  20
BRANCH  15  22
ATOM     22  O   UNL     1       5.195  -7.485  27.597  0.00  0.00    -0.386 OA
ATOM     23  H   UNL     1       6.044  -6.994  27.644  0.00  0.00    +0.210 HD
ENDBRANCH  15  22
BRANCH  14  24
ATOM     24  C   UNL     1       4.242  -6.959  24.946  0.00  0.00    +0.190 C 
BRANCH  24  25
ATOM     25  O   UNL     1       3.490  -8.103  25.359  0.00  0.00    -0.392 OA
ATOM     26  H   UNL     1       2.547  -7.873  25.297  0.00  0.00    +0.210 HD
ENDBRANCH  24  25
ENDBRANCH  14  24
ENDBRANCH  11  12
ENDBRANCH   6  11
BRANCH   3  27
ATOM     27  C   UNL     1       2.355   1.825  26.607  0.00  0.00    +0.197 C 
BRANCH  27  28
ATOM     28  O   UNL     1       2.398   2.175  25.216  0.00  0.00    -0.346 OA
BRANCH  28  29
ATOM     29  C   UNL     1       2.470   3.578  24.921  0.00  0.00    +0.282 C 
ATOM     30  O   UNL     1       1.792   3.833  23.680  0.00  0.00    -0.341 OA
ATOM     31  C   UNL     1       2.422   3.262  22.515  0.00  0.00    +0.178 C 
ATOM     32  C   UNL     1       3.909   3.669  22.391  0.00  0.00    +0.177 C 
ATOM     33  C   UNL     1       4.662   3.407  23.697  0.00  0.00    +0.179 C 
ATOM     34  C   UNL     1       3.919   4.112  24.840  0.00  0.00    +0.201 C 
BRANCH  34  35
ATOM     35  O   UNL     1       4.648   3.998  26.065  0.00  0.00    -0.384 OA
ATOM     36  H   UNL     1       4.091   4.392  26.766  0.00  0.00    +0.210 HD
ENDBRANCH  34  35
BRANCH  33  37
ATOM     37  O   UNL     1       4.807   1.996  23.950  0.00  0.00    -0.386 OA
ATOM     38  H   UNL     1       4.055   1.539  23.505  0.00  0.00    +0.210 HD
ENDBRANCH  33  37
BRANCH  32  39
ATOM     39  O   UNL     1       4.008   5.065  22.076  0.00  0.00    -0.386 OA
ATOM     40  H   UNL     1       4.859   5.403  22.408  0.00  0.00    +0.210 HD
ENDBRANCH  32  39
BRANCH  31  41
ATOM     41  C   UNL     1       1.644   3.705  21.259  0.00  0.00    +0.190 C 
BRANCH  41  42
ATOM     42  O   UNL     1       2.495   3.931  20.136  0.00  0.00    -0.392 OA
ATOM     43  H   UNL     1       3.335   3.470  20.293  0.00  0.00    +0.210 HD
ENDBRANCH  41  42
ENDBRANCH  31  41
ENDBRANCH  28  29
ENDBRANCH  27  28
ENDBRANCH   3  27
BRANCH   1  44
ATOM     44  O   UNL     1       6.152  -0.451  26.947  0.00  0.00    -0.453 OA
BRANCH  44  55
ATOM     45  C   UNL     1       7.980  -0.123  25.362  0.00  0.00    +0.181 A 
ATOM     46  O   UNL     1       8.687   0.766  24.519  0.00  0.00    -0.451 OA
ATOM     47  C   UNL     1       8.601   2.129  24.700  0.00  0.00    +0.147 A 
ATOM     48  C   UNL     1       7.940   2.681  25.778  0.00  0.00    +0.109 A 
ATOM     49  C   UNL     1       7.978   4.071  26.010  0.00  0.00    +0.135 A 
ATOM     50  C   UNL     1       8.652   4.920  25.137  0.00  0.00    +0.091 A 
ATOM     51  C   UNL     1       9.250   4.377  24.009  0.00  0.00    +0.124 A 
ATOM     52  C   UNL     1       7.170   1.786  26.631  0.00  0.00    +0.238 A 
ATOM     53  O   UNL     1       6.545   2.303  27.549  0.00  0.00    -0.283 OA
ATOM     54  C   UNL     1       9.230   2.991  23.784  0.00  0.00    +0.092 A 
ATOM     55  C   UNL     1       7.169   0.308  26.370  0.00  0.00    +0.214 A 
BRANCH  45  57
ATOM     56  C   UNL     1       7.981  -2.100  23.729  0.00  0.00    +0.015 A 
ATOM     57  C   UNL     1       8.248  -1.572  25.008  0.00  0.00    +0.025 A 
ATOM     58  C   UNL     1       8.672  -2.515  25.966  0.00  0.00    +0.060 A 
ATOM     59  C   UNL     1       8.828  -3.871  25.623  0.00  0.00    +0.159 A 
ATOM     60  C   UNL     1       8.536  -4.340  24.345  0.00  0.00    +0.158 A 
ATOM     61  C   UNL     1       8.094  -3.454  23.394  0.00  0.00    +0.050 A 
BRANCH  60  62
ATOM     62  O   UNL     1       8.695  -5.662  24.058  0.00  0.00    -0.503 OA
ATOM     63  H   UNL     1       7.824  -6.043  23.837  0.00  0.00    +0.292 HD
ENDBRANCH  60  62
BRANCH  59  64
ATOM     64  O   UNL     1       9.269  -4.759  26.567  0.00  0.00    -0.503 OA
ATOM     65  H   UNL     1       9.989  -4.283  27.029  0.00  0.00    +0.292 HD
ENDBRANCH  59  64
ENDBRANCH  45  57
BRANCH  51  66
ATOM     66  O   UNL     1       9.874   5.194  23.105  0.00  0.00    -0.507 OA
ATOM     67  H   UNL     1      10.625   5.637  23.536  0.00  0.00    +0.292 HD
ENDBRANCH  51  66
BRANCH  49  68
ATOM     68  O   UNL     1       7.374   4.679  27.081  0.00  0.00    -0.506 OA
ATOM     69  H   UNL     1       7.867   5.507  27.285  0.00  0.00    +0.292 HD
ENDBRANCH  49  68
ENDBRANCH  44  55
ENDBRANCH   1  44
TORSDOF 24
ENDMDL
MODEL 3
REMARK VINA RESULT:      -6.7      2.994      7.053
REMARK  Name = 
REMARK  24 active torsions:
REMARK  status: ('A' for Active; 'I' for Inactive)
REMARK    1  A    between atoms: C_3  and  O_63
REMARK    2  A    between atoms: C_4  and  O_62
REMARK    3  A    between atoms: C_6  and  C_7
REMARK    4  A    between atoms: C_8  and  O_20
REMARK    5  A    between atoms: C_12  and  O_19
REMARK    6  A    between atoms: C_14  and  O_18
REMARK    7  A    between atoms: O_20  and  C_21
REMARK    8  A    between atoms: C_23  and  O_47
REMARK    9  A    between atoms: C_24  and  O_46
REMARK   10  A    between atoms: C_25  and  O_45
REMARK   11  A    between atoms: C_27  and  C_29
REMARK   12  A    between atoms: C_29  and  O_30
REMARK   13  A    between atoms: O_30  and  C_31
REMARK   14  A    between atoms: C_33  and  O_44
REMARK   15  A    between atoms: C_34  and  O_43
REMARK   16  A    between atoms: C_36  and  O_42
REMARK   17  A    between atoms: C_38  and  C_40
REMARK   18  A    between atoms: C_40  and  O_41
REMARK   19  A    between atoms: O_47  and  C_48
REMARK   20  A    between atoms: C_50  and  O_61
REMARK   21  A    between atoms: C_52  and  O_60
REMARK   22  A    between atoms: C_53  and  O_59
REMARK   23  A    between atoms: C_55  and  C_57
REMARK   24  A    between atoms: C_57  and  O_58
REMARK                            x       y       z     vdW  Elec       q    Type
REMARK                         _______ _______ _______ _____ _____    ______ ____
ROOT
ATOM      1  C   UNL     1       6.124  -2.138  24.294  0.00  0.00    +0.340 C 
ATOM      2  O   UNL     1       5.268  -3.235  23.855  0.00  0.00    -0.331 OA
ATOM      3  C   UNL     1       5.942  -4.450  23.418  0.00  0.00    +0.179 C 
ATOM      4  C   UNL     1       7.289  -4.299  22.654  0.00  0.00    +0.177 C 
ATOM      5  C   UNL     1       8.013  -3.025  23.029  0.00  0.00    +0.180 C 
ATOM      6  C   UNL     1       6.992  -1.867  23.069  0.00  0.00    +0.221 C 
ENDROOT
BRANCH   5   7
ATOM      7  O   UNL     1       9.100  -2.813  22.123  0.00  0.00    -0.386 OA
ATOM      8  H   UNL     1       9.771  -3.476  22.355  0.00  0.00    +0.210 HD
ENDBRANCH   5   7
BRANCH   4   9
ATOM      9  O   UNL     1       7.134  -4.250  21.220  0.00  0.00    -0.386 OA
ATOM     10  H   UNL     1       6.606  -3.448  21.036  0.00  0.00    +0.210 HD
ENDBRANCH   4   9
BRANCH   6  11
ATOM     11  O   UNL     1       7.623  -0.631  22.857  0.00  0.00    -0.337 OA
BRANCH  11  12
ATOM     12  C   UNL     1       7.877   0.337  23.856  0.00  0.00    +0.282 C 
ATOM     13  O   UNL     1       6.893   1.372  23.988  0.00  0.00    -0.341 OA
ATOM     14  C   UNL     1       6.568   2.035  22.747  0.00  0.00    +0.178 C 
ATOM     15  C   UNL     1       7.794   2.552  21.981  0.00  0.00    +0.177 C 
ATOM     16  C   UNL     1       8.957   1.554  21.975  0.00  0.00    +0.179 C 
ATOM     17  C   UNL     1       9.202   0.936  23.366  0.00  0.00    +0.201 C 
BRANCH  17  18
ATOM     18  O   UNL     1       9.759   1.898  24.252  0.00  0.00    -0.384 OA
ATOM     19  H   UNL     1       9.567   1.603  25.164  0.00  0.00    +0.210 HD
ENDBRANCH  17  18
BRANCH  16  20
ATOM     20  O   UNL     1      10.141   2.232  21.521  0.00  0.00    -0.386 OA
ATOM     21  H   UNL     1      10.320   1.876  20.626  0.00  0.00    +0.210 HD
ENDBRANCH  16  20
BRANCH  15  22
ATOM     22  O   UNL     1       8.293   3.787  22.523  0.00  0.00    -0.386 OA
ATOM     23  H   UNL     1       9.266   3.720  22.406  0.00  0.00    +0.210 HD
ENDBRANCH  15  22
BRANCH  14  24
ATOM     24  C   UNL     1       5.541   3.166  23.027  0.00  0.00    +0.190 C 
BRANCH  24  25
ATOM     25  O   UNL     1       5.457   4.050  21.907  0.00  0.00    -0.392 OA
ATOM     26  H   UNL     1       6.332   4.070  21.482  0.00  0.00    +0.210 HD
ENDBRANCH  24  25
ENDBRANCH  14  24
ENDBRANCH  11  12
ENDBRANCH   6  11
BRANCH   3  27
ATOM     27  C   UNL     1       4.961  -5.218  22.511  0.00  0.00    +0.197 C 
BRANCH  27  28
ATOM     28  O   UNL     1       3.633  -5.390  23.025  0.00  0.00    -0.346 OA
BRANCH  28  29
ATOM     29  C   UNL     1       3.537  -5.793  24.400  0.00  0.00    +0.282 C 
ATOM     30  O   UNL     1       3.202  -7.189  24.459  0.00  0.00    -0.341 OA
ATOM     31  C   UNL     1       1.885  -7.519  23.970  0.00  0.00    +0.178 C 
ATOM     32  C   UNL     1       0.777  -6.686  24.657  0.00  0.00    +0.177 C 
ATOM     33  C   UNL     1       1.102  -5.192  24.609  0.00  0.00    +0.179 C 
ATOM     34  C   UNL     1       2.500  -4.975  25.205  0.00  0.00    +0.201 C 
BRANCH  34  35
ATOM     35  O   UNL     1       2.804  -3.581  25.294  0.00  0.00    -0.384 OA
ATOM     36  H   UNL     1       2.467  -3.271  26.158  0.00  0.00    +0.210 HD
ENDBRANCH  34  35
BRANCH  33  37
ATOM     37  O   UNL     1       1.013  -4.674  23.268  0.00  0.00    -0.386 OA
ATOM     38  H   UNL     1       0.437  -3.875  23.299  0.00  0.00    +0.210 HD
ENDBRANCH  33  37
BRANCH  32  39
ATOM     39  O   UNL     1       0.647  -7.084  26.029  0.00  0.00    -0.386 OA
ATOM     40  H   UNL     1       0.840  -8.036  26.100  0.00  0.00    +0.210 HD
ENDBRANCH  32  39
BRANCH  31  41
ATOM     41  C   UNL     1       1.633  -9.024  24.193  0.00  0.00    +0.190 C 
BRANCH  41  42
ATOM     42  O   UNL     1       2.359  -9.545  25.305  0.00  0.00    -0.392 OA
ATOM     43  H   UNL     1       1.725  -9.756  26.010  0.00  0.00    +0.210 HD
ENDBRANCH  41  42
ENDBRANCH  31  41
ENDBRANCH  28  29
ENDBRANCH  27  28
ENDBRANCH   3  27
BRANCH   1  44
ATOM     44  O   UNL     1       6.741  -2.510  25.546  0.00  0.00    -0.453 OA
BRANCH  44  55
ATOM     45  C   UNL     1       5.235  -1.996  27.397  0.00  0.00    +0.181 A 
ATOM     46  O   UNL     1       4.239  -2.453  28.292  0.00  0.00    -0.451 OA
ATOM     47  C   UNL     1       4.068  -3.800  28.530  0.00  0.00    +0.147 A 
ATOM     48  C   UNL     1       4.933  -4.746  28.018  0.00  0.00    +0.109 A 
ATOM     49  C   UNL     1       4.812  -6.102  28.382  0.00  0.00    +0.135 A 
ATOM     50  C   UNL     1       3.795  -6.522  29.235  0.00  0.00    +0.091 A 
ATOM     51  C   UNL     1       2.876  -5.586  29.687  0.00  0.00    +0.124 A 
ATOM     52  C   UNL     1       5.936  -4.299  27.061  0.00  0.00    +0.238 A 
ATOM     53  O   UNL     1       6.657  -5.163  26.576  0.00  0.00    -0.283 OA
ATOM     54  C   UNL     1       3.004  -4.231  29.342  0.00  0.00    +0.092 A 
ATOM     55  C   UNL     1       6.054  -2.844  26.712  0.00  0.00    +0.214 A 
BRANCH  45  57
ATOM     56  C   UNL     1       4.255   0.266  26.692  0.00  0.00    +0.015 A 
ATOM     57  C   UNL     1       5.271  -0.483  27.317  0.00  0.00    +0.025 A 
ATOM     58  C   UNL     1       6.379   0.268  27.760  0.00  0.00    +0.060 A 
ATOM     59  C   UNL     1       6.416   1.665  27.591  0.00  0.00    +0.159 A 
ATOM     60  C   UNL     1       5.388   2.353  26.952  0.00  0.00    +0.158 A 
ATOM     61  C   UNL     1       4.306   1.649  26.484  0.00  0.00    +0.050 A 
BRANCH  60  62
ATOM     62  O   UNL     1       5.469   3.704  26.804  0.00  0.00    -0.503 OA
ATOM     63  H   UNL     1       6.405   3.953  26.688  0.00  0.00    +0.292 HD
ENDBRANCH  60  62
BRANCH  59  64
ATOM     64  O   UNL     1       7.493   2.372  28.057  0.00  0.00    -0.503 OA
ATOM     65  H   UNL     1       8.263   1.955  27.618  0.00  0.00    +0.292 HD
ENDBRANCH  59  64
ENDBRANCH  45  57
BRANCH  51  66
ATOM     66  O   UNL     1       1.835  -5.979  30.484  0.00  0.00    -0.507 OA
ATOM     67  H   UNL     1       1.824  -6.950  30.544  0.00  0.00    +0.292 HD
ENDBRANCH  51  66
BRANCH  49  68
ATOM     68  O   UNL     1       5.659  -7.085  27.939  0.00  0.00    -0.506 OA
ATOM     69  H   UNL     1       6.336  -6.670  27.356  0.00  0.00    +0.292 HD
ENDBRANCH  49  68
ENDBRANCH  44  55
ENDBRANCH   1  44
TORSDOF 24
ENDMDL
MODEL 4
REMARK VINA RESULT:      -6.5      3.119      7.144
REMARK  Name = 
REMARK  24 active torsions:
REMARK  status: ('A' for Active; 'I' for Inactive)
REMARK    1  A    between atoms: C_3  and  O_63
REMARK    2  A    between atoms: C_4  and  O_62
REMARK    3  A    between atoms: C_6  and  C_7
REMARK    4  A    between atoms: C_8  and  O_20
REMARK    5  A    between atoms: C_12  and  O_19
REMARK    6  A    between atoms: C_14  and  O_18
REMARK    7  A    between atoms: O_20  and  C_21
REMARK    8  A    between atoms: C_23  and  O_47
REMARK    9  A    between atoms: C_24  and  O_46
REMARK   10  A    between atoms: C_25  and  O_45
REMARK   11  A    between atoms: C_27  and  C_29
REMARK   12  A    between atoms: C_29  and  O_30
REMARK   13  A    between atoms: O_30  and  C_31
REMARK   14  A    between atoms: C_33  and  O_44
REMARK   15  A    between atoms: C_34  and  O_43
REMARK   16  A    between atoms: C_36  and  O_42
REMARK   17  A    between atoms: C_38  and  C_40
REMARK   18  A    between atoms: C_40  and  O_41
REMARK   19  A    between atoms: O_47  and  C_48
REMARK   20  A    between atoms: C_50  and  O_61
REMARK   21  A    between atoms: C_52  and  O_60
REMARK   22  A    between atoms: C_53  and  O_59
REMARK   23  A    between atoms: C_55  and  C_57
REMARK   24  A    between atoms: C_57  and  O_58
REMARK                            x       y       z     vdW  Elec       q    Type
REMARK                         _______ _______ _______ _____ _____    ______ ____
ROOT
ATOM      1  C   UNL     1       5.966  -0.946  26.053  0.00  0.00    +0.340 C 
ATOM      2  O   UNL     1       5.645  -1.664  27.281  0.00  0.00    -0.331 OA
ATOM      3  C   UNL     1       4.388  -1.313  27.930  0.00  0.00    +0.179 C 
ATOM      4  C   UNL     1       3.936   0.174  27.881  0.00  0.00    +0.177 C 
ATOM      5  C   UNL     1       4.487   0.894  26.670  0.00  0.00    +0.180 C 
ATOM      6  C   UNL     1       5.974   0.513  26.499  0.00  0.00    +0.221 C 
ENDROOT
BRANCH   5   7
ATOM      7  O   UNL     1       4.258   2.300  26.808  0.00  0.00    -0.386 OA
ATOM      8  H   UNL     1       4.719   2.717  26.062  0.00  0.00    +0.210 HD
ENDBRANCH   5   7
BRANCH   4   9
ATOM      9  O   UNL     1       4.372   0.944  29.021  0.00  0.00    -0.386 OA
ATOM     10  H   UNL     1       5.267   0.618  29.238  0.00  0.00    +0.210 HD
ENDBRANCH   4   9
BRANCH   6  11
ATOM     11  O   UNL     1       6.672   1.507  25.795  0.00  0.00    -0.337 OA
BRANCH  11  12
ATOM     12  C   UNL     1       6.744   1.611  24.387  0.00  0.00    +0.282 C 
ATOM     13  O   UNL     1       7.987   1.209  23.793  0.00  0.00    -0.341 OA
ATOM     14  C   UNL     1       9.148   1.835  24.382  0.00  0.00    +0.178 C 
ATOM     15  C   UNL     1       9.057   3.365  24.457  0.00  0.00    +0.177 C 
ATOM     16  C   UNL     1       7.676   3.858  24.904  0.00  0.00    +0.179 C 
ATOM     17  C   UNL     1       6.532   3.116  24.183  0.00  0.00    +0.201 C 
BRANCH  17  18
ATOM     18  O   UNL     1       6.460   3.507  22.819  0.00  0.00    -0.384 OA
ATOM     19  H   UNL     1       7.265   3.176  22.376  0.00  0.00    +0.210 HD
ENDBRANCH  17  18
BRANCH  16  20
ATOM     20  O   UNL     1       7.587   5.270  24.645  0.00  0.00    -0.386 OA
ATOM     21  H   UNL     1       6.965   5.360  23.894  0.00  0.00    +0.210 HD
ENDBRANCH  16  20
BRANCH  15  22
ATOM     22  O   UNL     1       9.346   3.990  23.194  0.00  0.00    -0.386 OA
ATOM     23  H   UNL     1      10.232   3.638  22.955  0.00  0.00    +0.210 HD
ENDBRANCH  15  22
BRANCH  14  24
ATOM     24  C   UNL     1      10.419   1.367  23.621  0.00  0.00    +0.190 C 
BRANCH  24  25
ATOM     25  O   UNL     1      10.210   1.446  22.209  0.00  0.00    -0.392 OA
ATOM     26  H   UNL     1       9.256   1.562  22.059  0.00  0.00    +0.210 HD
ENDBRANCH  24  25
ENDBRANCH  14  24
ENDBRANCH  11  12
ENDBRANCH   6  11
BRANCH   3  27
ATOM     27  C   UNL     1       4.503  -1.731  29.409  0.00  0.00    +0.197 C 
BRANCH  27  28
ATOM     28  O   UNL     1       4.321  -3.127  29.684  0.00  0.00    -0.346 OA
BRANCH  28  29
ATOM     29  C   UNL     1       3.964  -3.949  28.562  0.00  0.00    +0.282 C 
ATOM     30  O   UNL     1       2.752  -4.658  28.865  0.00  0.00    -0.341 OA
ATOM     31  C   UNL     1       2.869  -5.640  29.915  0.00  0.00    +0.178 C 
ATOM     32  C   UNL     1       4.012  -6.649  29.654  0.00  0.00    +0.177 C 
ATOM     33  C   UNL     1       5.320  -5.925  29.330  0.00  0.00    +0.179 C 
ATOM     34  C   UNL     1       5.070  -4.956  28.166  0.00  0.00    +0.201 C 
BRANCH  34  35
ATOM     35  O   UNL     1       6.291  -4.341  27.746  0.00  0.00    -0.384 OA
ATOM     36  H   UNL     1       6.338  -3.470  28.187  0.00  0.00    +0.210 HD
ENDBRANCH  34  35
BRANCH  33  37
ATOM     37  O   UNL     1       5.846  -5.241  30.484  0.00  0.00    -0.386 OA
ATOM     38  H   UNL     1       6.655  -4.757  30.196  0.00  0.00    +0.210 HD
ENDBRANCH  33  37
BRANCH  32  39
ATOM     39  O   UNL     1       3.671  -7.496  28.548  0.00  0.00    -0.386 OA
ATOM     40  H   UNL     1       3.930  -8.411  28.760  0.00  0.00    +0.210 HD
ENDBRANCH  32  39
BRANCH  31  41
ATOM     41  C   UNL     1       1.525  -6.385  30.053  0.00  0.00    +0.190 C 
BRANCH  41  42
ATOM     42  O   UNL     1       0.956  -6.732  28.791  0.00  0.00    -0.392 OA
ATOM     43  H   UNL     1      -0.007  -6.804  28.901  0.00  0.00    +0.210 HD
ENDBRANCH  41  42
ENDBRANCH  31  41
ENDBRANCH  28  29
ENDBRANCH  27  28
ENDBRANCH   3  27
BRANCH   1  44
ATOM     44  O   UNL     1       5.056  -1.379  25.017  0.00  0.00    -0.453 OA
BRANCH  44  55
ATOM     45  C   UNL     1       5.830  -3.578  24.292  0.00  0.00    +0.181 A 
ATOM     46  O   UNL     1       5.654  -4.981  24.332  0.00  0.00    -0.451 OA
ATOM     47  C   UNL     1       4.448  -5.531  24.708  0.00  0.00    +0.147 A 
ATOM     48  C   UNL     1       3.330  -4.753  24.930  0.00  0.00    +0.109 A 
ATOM     49  C   UNL     1       2.079  -5.349  25.185  0.00  0.00    +0.135 A 
ATOM     50  C   UNL     1       1.951  -6.734  25.256  0.00  0.00    +0.091 A 
ATOM     51  C   UNL     1       3.089  -7.516  25.113  0.00  0.00    +0.124 A 
ATOM     52  C   UNL     1       3.501  -3.307  24.937  0.00  0.00    +0.238 A 
ATOM     53  O   UNL     1       2.508  -2.636  25.192  0.00  0.00    -0.283 OA
ATOM     54  C   UNL     1       4.334  -6.927  24.840  0.00  0.00    +0.092 A 
ATOM     55  C   UNL     1       4.843  -2.703  24.638  0.00  0.00    +0.214 A 
BRANCH  45  57
ATOM     56  C   UNL     1       8.384  -3.569  24.512  0.00  0.00    +0.015 A 
ATOM     57  C   UNL     1       7.217  -3.195  23.817  0.00  0.00    +0.025 A 
ATOM     58  C   UNL     1       7.427  -2.343  22.714  0.00  0.00    +0.060 A 
ATOM     59  C   UNL     1       8.725  -1.938  22.353  0.00  0.00    +0.159 A 
ATOM     60  C   UNL     1       9.844  -2.326  23.085  0.00  0.00    +0.158 A 
ATOM     61  C   UNL     1       9.674  -3.135  24.182  0.00  0.00    +0.050 A 
BRANCH  60  62
ATOM     62  O   UNL     1      11.081  -1.905  22.704  0.00  0.00    -0.503 OA
ATOM     63  H   UNL     1      11.752  -2.458  23.147  0.00  0.00    +0.292 HD
ENDBRANCH  60  62
BRANCH  59  64
ATOM     64  O   UNL     1       8.900  -1.132  21.260  0.00  0.00    -0.503 OA
ATOM     65  H   UNL     1       8.028  -0.708  21.130  0.00  0.00    +0.292 HD
ENDBRANCH  59  64
ENDBRANCH  45  57
BRANCH  51  66
ATOM     66  O   UNL     1       3.002  -8.876  25.230  0.00  0.00    -0.507 OA
ATOM     67  H   UNL     1       2.880  -9.112  26.167  0.00  0.00    +0.292 HD
ENDBRANCH  51  66
BRANCH  49  68
ATOM     68  O   UNL     1       0.923  -4.637  25.378  0.00  0.00    -0.506 OA
ATOM     69  H   UNL     1       1.110  -3.688  25.187  0.00  0.00    +0.292 HD
ENDBRANCH  49  68
ENDBRANCH  44  55
ENDBRANCH   1  44
TORSDOF 24
ENDMDL
MODEL 5
REMARK VINA RESULT:      -6.4      2.365      6.559
REMARK  Name = 
REMARK  24 active torsions:
REMARK  status: ('A' for Active; 'I' for Inactive)
REMARK    1  A    between atoms: C_3  and  O_63
REMARK    2  A    between atoms: C_4  and  O_62
REMARK    3  A    between atoms: C_6  and  C_7
REMARK    4  A    between atoms: C_8  and  O_20
REMARK    5  A    between atoms: C_12  and  O_19
REMARK    6  A    between atoms: C_14  and  O_18
REMARK    7  A    between atoms: O_20  and  C_21
REMARK    8  A    between atoms: C_23  and  O_47
REMARK    9  A    between atoms: C_24  and  O_46
REMARK   10  A    between atoms: C_25  and  O_45
REMARK   11  A    between atoms: C_27  and  C_29
REMARK   12  A    between atoms: C_29  and  O_30
REMARK   13  A    between atoms: O_30  and  C_31
REMARK   14  A    between atoms: C_33  and  O_44
REMARK   15  A    between atoms: C_34  and  O_43
REMARK   16  A    between atoms: C_36  and  O_42
REMARK   17  A    between atoms: C_38  and  C_40
REMARK   18  A    between atoms: C_40  and  O_41
REMARK   19  A    between atoms: O_47  and  C_48
REMARK   20  A    between atoms: C_50  and  O_61
REMARK   21  A    between atoms: C_52  and  O_60
REMARK   22  A    between atoms: C_53  and  O_59
REMARK   23  A    between atoms: C_55  and  C_57
REMARK   24  A    between atoms: C_57  and  O_58
REMARK                            x       y       z     vdW  Elec       q    Type
REMARK                         _______ _______ _______ _____ _____    ______ ____
ROOT
ATOM      1  C   UNL     1       7.818  -0.209  24.712  0.00  0.00    +0.340 C 
ATOM      2  O   UNL     1       7.511  -1.245  23.733  0.00  0.00    -0.331 OA
ATOM      3  C   UNL     1       8.641  -2.008  23.219  0.00  0.00    +0.179 C 
ATOM      4  C   UNL     1       9.988  -1.259  23.009  0.00  0.00    +0.177 C 
ATOM      5  C   UNL     1      10.127  -0.072  23.937  0.00  0.00    +0.180 C 
ATOM      6  C   UNL     1       8.788   0.698  23.963  0.00  0.00    +0.221 C 
ENDROOT
BRANCH   5   7
ATOM      7  O   UNL     1      11.247   0.720  23.531  0.00  0.00    -0.386 OA
ATOM      8  H   UNL     1      12.019   0.334  23.976  0.00  0.00    +0.210 HD
ENDBRANCH   5   7
BRANCH   4   9
ATOM      9  O   UNL     1      10.148  -0.729  21.676  0.00  0.00    -0.386 OA
ATOM     10  H   UNL     1       9.320  -0.249  21.477  0.00  0.00    +0.210 HD
ENDBRANCH   4   9
BRANCH   6  11
ATOM     11  O   UNL     1       8.986   2.041  24.320  0.00  0.00    -0.337 OA
BRANCH  11  12
ATOM     12  C   UNL     1       8.079   2.829  25.065  0.00  0.00    +0.282 C 
ATOM     13  O   UNL     1       6.722   2.827  24.600  0.00  0.00    -0.341 OA
ATOM     14  C   UNL     1       6.581   3.130  23.195  0.00  0.00    +0.178 C 
ATOM     15  C   UNL     1       7.296   4.418  22.764  0.00  0.00    +0.177 C 
ATOM     16  C   UNL     1       8.686   4.567  23.392  0.00  0.00    +0.179 C 
ATOM     17  C   UNL     1       8.685   4.228  24.897  0.00  0.00    +0.201 C 
BRANCH  17  18
ATOM     18  O   UNL     1       8.014   5.238  25.639  0.00  0.00    -0.384 OA
ATOM     19  H   UNL     1       8.175   5.061  26.587  0.00  0.00    +0.210 HD
ENDBRANCH  17  18
BRANCH  16  20
ATOM     20  O   UNL     1       9.139   5.917  23.192  0.00  0.00    -0.386 OA
ATOM     21  H   UNL     1       9.837   5.860  22.506  0.00  0.00    +0.210 HD
ENDBRANCH  16  20
BRANCH  15  22
ATOM     22  O   UNL     1       6.545   5.597  23.105  0.00  0.00    -0.386 OA
ATOM     23  H   UNL     1       7.071   6.331  22.720  0.00  0.00    +0.210 HD
ENDBRANCH  15  22
BRANCH  14  24
ATOM     24  C   UNL     1       5.073   3.154  22.827  0.00  0.00    +0.190 C 
BRANCH  24  25
ATOM     25  O   UNL     1       4.344   2.245  23.656  0.00  0.00    -0.392 OA
ATOM     26  H   UNL     1       3.426   2.561  23.702  0.00  0.00    +0.210 HD
ENDBRANCH  24  25
ENDBRANCH  14  24
ENDBRANCH  11  12
ENDBRANCH   6  11
BRANCH   3  27
ATOM     27  C   UNL     1       8.212  -2.610  21.867  0.00  0.00    +0.197 C 
BRANCH  27  28
ATOM     28  O   UNL     1       7.508  -3.858  21.929  0.00  0.00    -0.346 OA
BRANCH  28  29
ATOM     29  C   UNL     1       6.158  -3.846  21.441  0.00  0.00    +0.282 C 
ATOM     30  O   UNL     1       5.310  -3.223  22.420  0.00  0.00    -0.341 OA
ATOM     31  C   UNL     1       5.162  -3.959  23.652  0.00  0.00    +0.178 C 
ATOM     32  C   UNL     1       4.705  -5.418  23.415  0.00  0.00    +0.177 C 
ATOM     33  C   UNL     1       5.591  -6.111  22.379  0.00  0.00    +0.179 C 
ATOM     34  C   UNL     1       5.617  -5.255  21.105  0.00  0.00    +0.201 C 
BRANCH  34  35
ATOM     35  O   UNL     1       6.336  -5.919  20.061  0.00  0.00    -0.384 OA
ATOM     36  H   UNL     1       7.284  -5.733  20.207  0.00  0.00    +0.210 HD
ENDBRANCH  34  35
BRANCH  33  37
ATOM     37  O   UNL     1       6.919  -6.342  22.888  0.00  0.00    -0.386 OA
ATOM     38  H   UNL     1       7.019  -7.314  23.017  0.00  0.00    +0.210 HD
ENDBRANCH  33  37
BRANCH  32  39
ATOM     39  O   UNL     1       3.350  -5.434  22.945  0.00  0.00    -0.386 OA
ATOM     40  H   UNL     1       3.024  -6.351  22.954  0.00  0.00    +0.210 HD
ENDBRANCH  32  39
BRANCH  31  41
ATOM     41  C   UNL     1       4.149  -3.225  24.553  0.00  0.00    +0.190 C 
BRANCH  41  42
ATOM     42  O   UNL     1       4.542  -1.884  24.844  0.00  0.00    -0.392 OA
ATOM     43  H   UNL     1       5.366  -1.698  24.364  0.00  0.00    +0.210 HD
ENDBRANCH  41  42
ENDBRANCH  31  41
ENDBRANCH  28  29
ENDBRANCH  27  28
ENDBRANCH   3  27
BRANCH   1  44
ATOM     44  O   UNL     1       8.229  -0.847  25.942  0.00  0.00    -0.453 OA
BRANCH  44  55
ATOM     45  C   UNL     1       6.275  -1.127  27.377  0.00  0.00    +0.181 A 
ATOM     46  O   UNL     1       5.244  -1.977  27.843  0.00  0.00    -0.451 OA
ATOM     47  C   UNL     1       5.350  -3.345  27.722  0.00  0.00    +0.147 A 
ATOM     48  C   UNL     1       6.505  -3.951  27.271  0.00  0.00    +0.109 A 
ATOM     49  C   UNL     1       6.632  -5.354  27.281  0.00  0.00    +0.135 A 
ATOM     50  C   UNL     1       5.582  -6.161  27.710  0.00  0.00    +0.091 A 
ATOM     51  C   UNL     1       4.390  -5.558  28.088  0.00  0.00    +0.124 A 
ATOM     52  C   UNL     1       7.558  -3.093  26.747  0.00  0.00    +0.238 A 
ATOM     53  O   UNL     1       8.553  -3.653  26.300  0.00  0.00    -0.283 OA
ATOM     54  C   UNL     1       4.266  -4.160  28.097  0.00  0.00    +0.092 A 
ATOM     55  C   UNL     1       7.401  -1.600  26.773  0.00  0.00    +0.214 A 
BRANCH  45  57
ATOM     56  C   UNL     1       4.786   0.953  27.191  0.00  0.00    +0.015 A 
ATOM     57  C   UNL     1       5.967   0.333  27.644  0.00  0.00    +0.025 A 
ATOM     58  C   UNL     1       6.894   1.196  28.263  0.00  0.00    +0.060 A 
ATOM     59  C   UNL     1       6.611   2.566  28.417  0.00  0.00    +0.159 A 
ATOM     60  C   UNL     1       5.431   3.129  27.936  0.00  0.00    +0.158 A 
ATOM     61  C   UNL     1       4.518   2.322  27.304  0.00  0.00    +0.050 A 
BRANCH  60  62
ATOM     62  O   UNL     1       5.201   4.460  28.101  0.00  0.00    -0.503 OA
ATOM     63  H   UNL     1       4.676   4.785  27.346  0.00  0.00    +0.292 HD
ENDBRANCH  60  62
BRANCH  59  64
ATOM     64  O   UNL     1       7.518   3.376  29.047  0.00  0.00    -0.503 OA
ATOM     65  H   UNL     1       7.220   4.284  28.835  0.00  0.00    +0.292 HD
ENDBRANCH  59  64
ENDBRANCH  45  57
BRANCH  51  66
ATOM     66  O   UNL     1       3.323  -6.329  28.463  0.00  0.00    -0.507 OA
ATOM     67  H   UNL     1       3.256  -6.336  29.434  0.00  0.00    +0.292 HD
ENDBRANCH  51  66
BRANCH  49  68
ATOM     68  O   UNL     1       7.764  -6.017  26.882  0.00  0.00    -0.506 OA
ATOM     69  H   UNL     1       8.215  -6.369  27.684  0.00  0.00    +0.292 HD
ENDBRANCH  49  68
ENDBRANCH  44  55
ENDBRANCH   1  44
TORSDOF 24
ENDMDL
MODEL 6
REMARK VINA RESULT:      -6.4      2.782      8.429
REMARK  Name = 
REMARK  24 active torsions:
REMARK  status: ('A' for Active; 'I' for Inactive)
REMARK    1  A    between atoms: C_3  and  O_63
REMARK    2  A    between atoms: C_4  and  O_62
REMARK    3  A    between atoms: C_6  and  C_7
REMARK    4  A    between atoms: C_8  and  O_20
REMARK    5  A    between atoms: C_12  and  O_19
REMARK    6  A    between atoms: C_14  and  O_18
REMARK    7  A    between atoms: O_20  and  C_21
REMARK    8  A    between atoms: C_23  and  O_47
REMARK    9  A    between atoms: C_24  and  O_46
REMARK   10  A    between atoms: C_25  and  O_45
REMARK   11  A    between atoms: C_27  and  C_29
REMARK   12  A    between atoms: C_29  and  O_30
REMARK   13  A    between atoms: O_30  and  C_31
REMARK   14  A    between atoms: C_33  and  O_44
REMARK   15  A    between atoms: C_34  and  O_43
REMARK   16  A    between atoms: C_36  and  O_42
REMARK   17  A    between atoms: C_38  and  C_40
REMARK   18  A    between atoms: C_40  and  O_41
REMARK   19  A    between atoms: O_47  and  C_48
REMARK   20  A    between atoms: C_50  and  O_61
REMARK   21  A    between atoms: C_52  and  O_60
REMARK   22  A    between atoms: C_53  and  O_59
REMARK   23  A    between atoms: C_55  and  C_57
REMARK   24  A    between atoms: C_57  and  O_58
REMARK                            x       y       z     vdW  Elec       q    Type
REMARK                         _______ _______ _______ _____ _____    ______ ____
ROOT
ATOM      1  C   UNL     1       5.071  -1.188  26.827  0.00  0.00    +0.340 C 
ATOM      2  O   UNL     1       4.140  -0.165  26.363  0.00  0.00    -0.331 OA
ATOM      3  C   UNL     1       3.525   0.667  27.389  0.00  0.00    +0.179 C 
ATOM      4  C   UNL     1       3.171   0.001  28.749  0.00  0.00    +0.177 C 
ATOM      5  C   UNL     1       4.066  -1.181  29.051  0.00  0.00    +0.180 C 
ATOM      6  C   UNL     1       4.216  -2.030  27.769  0.00  0.00    +0.221 C 
ENDROOT
BRANCH   5   7
ATOM      7  O   UNL     1       3.540  -1.902  30.169  0.00  0.00    -0.386 OA
ATOM      8  H   UNL     1       3.466  -2.825  29.877  0.00  0.00    +0.210 HD
ENDBRANCH   5   7
BRANCH   4   9
ATOM      9  O   UNL     1       1.823  -0.509  28.805  0.00  0.00    -0.386 OA
ATOM     10  H   UNL     1       1.259   0.180  28.402  0.00  0.00    +0.210 HD
ENDBRANCH   4   9
BRANCH   6  11
ATOM     11  O   UNL     1       4.535  -3.361  28.081  0.00  0.00    -0.337 OA
BRANCH  11  12
ATOM     12  C   UNL     1       4.160  -4.490  27.317  0.00  0.00    +0.282 C 
ATOM     13  O   UNL     1       3.442  -5.512  28.024  0.00  0.00    -0.341 OA
ATOM     14  C   UNL     1       4.085  -5.947  29.241  0.00  0.00    +0.178 C 
ATOM     15  C   UNL     1       5.554  -6.351  29.057  0.00  0.00    +0.177 C 
ATOM     16  C   UNL     1       6.326  -5.391  28.144  0.00  0.00    +0.179 C 
ATOM     17  C   UNL     1       5.529  -5.025  26.876  0.00  0.00    +0.201 C 
BRANCH  17  18
ATOM     18  O   UNL     1       5.454  -6.135  25.992  0.00  0.00    -0.384 OA
ATOM     19  H   UNL     1       5.461  -5.785  25.079  0.00  0.00    +0.210 HD
ENDBRANCH  17  18
BRANCH  16  20
ATOM     20  O   UNL     1       7.574  -6.006  27.781  0.00  0.00    -0.386 OA
ATOM     21  H   UNL     1       7.398  -6.970  27.773  0.00  0.00    +0.210 HD
ENDBRANCH  16  20
BRANCH  15  22
ATOM     22  O   UNL     1       5.690  -7.671  28.501  0.00  0.00    -0.386 OA
ATOM     23  H   UNL     1       4.882  -7.779  27.952  0.00  0.00    +0.210 HD
ENDBRANCH  15  22
BRANCH  14  24
ATOM     24  C   UNL     1       3.247  -7.087  29.881  0.00  0.00    +0.190 C 
BRANCH  24  25
ATOM     25  O   UNL     1       2.720  -7.945  28.867  0.00  0.00    -0.392 OA
ATOM     26  H   UNL     1       2.418  -7.382  28.133  0.00  0.00    +0.210 HD
ENDBRANCH  24  25
ENDBRANCH  14  24
ENDBRANCH  11  12
ENDBRANCH   6  11
BRANCH   3  27
ATOM     27  C   UNL     1       2.230   1.251  26.791  0.00  0.00    +0.197 C 
BRANCH  27  28
ATOM     28  O   UNL     1       2.401   2.224  25.751  0.00  0.00    -0.346 OA
BRANCH  28  29
ATOM     29  C   UNL     1       3.638   2.952  25.767  0.00  0.00    +0.282 C 
ATOM     30  O   UNL     1       3.367   4.334  26.054  0.00  0.00    -0.341 OA
ATOM     31  C   UNL     1       2.634   5.035  25.028  0.00  0.00    +0.178 C 
ATOM     32  C   UNL     1       3.302   4.913  23.639  0.00  0.00    +0.177 C 
ATOM     33  C   UNL     1       3.602   3.451  23.300  0.00  0.00    +0.179 C 
ATOM     34  C   UNL     1       4.429   2.843  24.442  0.00  0.00    +0.201 C 
BRANCH  34  35
ATOM     35  O   UNL     1       4.838   1.512  24.119  0.00  0.00    -0.384 OA
ATOM     36  H   UNL     1       4.324   1.238  23.334  0.00  0.00    +0.210 HD
ENDBRANCH  34  35
BRANCH  33  37
ATOM     37  O   UNL     1       2.393   2.703  23.066  0.00  0.00    -0.386 OA
ATOM     38  H   UNL     1       1.822   2.810  23.862  0.00  0.00    +0.210 HD
ENDBRANCH  33  37
BRANCH  32  39
ATOM     39  O   UNL     1       4.532   5.649  23.622  0.00  0.00    -0.386 OA
ATOM     40  H   UNL     1       4.557   6.203  22.822  0.00  0.00    +0.210 HD
ENDBRANCH  32  39
BRANCH  31  41
ATOM     41  C   UNL     1       2.511   6.520  25.429  0.00  0.00    +0.190 C 
BRANCH  41  42
ATOM     42  O   UNL     1       3.679   7.011  26.085  0.00  0.00    -0.392 OA
ATOM     43  H   UNL     1       3.698   7.977  25.989  0.00  0.00    +0.210 HD
ENDBRANCH  41  42
ENDBRANCH  31  41
ENDBRANCH  28  29
ENDBRANCH  27  28
ENDBRANCH   3  27
BRANCH   1  44
ATOM     44  O   UNL     1       6.261  -0.534  27.322  0.00  0.00    -0.453 OA
BRANCH  44  55
ATOM     45  C   UNL     1       7.724  -0.196  25.399  0.00  0.00    +0.181 A 
ATOM     46  O   UNL     1       8.243   0.698  24.432  0.00  0.00    -0.451 OA
ATOM     47  C   UNL     1       8.195   2.060  24.634  0.00  0.00    +0.147 A 
ATOM     48  C   UNL     1       7.768   2.607  25.827  0.00  0.00    +0.109 A 
ATOM     49  C   UNL     1       7.852   3.995  26.053  0.00  0.00    +0.135 A 
ATOM     50  C   UNL     1       8.332   4.849  25.064  0.00  0.00    +0.091 A 
ATOM     51  C   UNL     1       8.687   4.312  23.835  0.00  0.00    +0.124 A 
ATOM     52  C   UNL     1       7.190   1.706  26.815  0.00  0.00    +0.238 A 
ATOM     53  O   UNL     1       6.766   2.218  27.845  0.00  0.00    -0.283 OA
ATOM     54  C   UNL     1       8.622   2.927  23.612  0.00  0.00    +0.092 A 
ATOM     55  C   UNL     1       7.137   0.229  26.553  0.00  0.00    +0.214 A 
BRANCH  45  57
ATOM     56  C   UNL     1       8.641  -2.561  25.775  0.00  0.00    +0.015 A 
ATOM     57  C   UNL     1       7.915  -1.643  24.990  0.00  0.00    +0.025 A 
ATOM     58  C   UNL     1       7.479  -2.137  23.745  0.00  0.00    +0.060 A 
ATOM     59  C   UNL     1       7.749  -3.464  23.361  0.00  0.00    +0.159 A 
ATOM     60  C   UNL     1       8.485  -4.325  24.171  0.00  0.00    +0.158 A 
ATOM     61  C   UNL     1       8.949  -3.868  25.380  0.00  0.00    +0.050 A 
BRANCH  60  62
ATOM     62  O   UNL     1       8.729  -5.598  23.757  0.00  0.00    -0.503 OA
ATOM     63  H   UNL     1       8.399  -5.702  22.845  0.00  0.00    +0.292 HD
ENDBRANCH  60  62
BRANCH  59  64
ATOM     64  O   UNL     1       7.289  -3.925  22.157  0.00  0.00    -0.503 OA
ATOM     65  H   UNL     1       7.056  -3.113  21.661  0.00  0.00    +0.292 HD
ENDBRANCH  59  64
ENDBRANCH  45  57
BRANCH  51  66
ATOM     66  O   UNL     1       9.111   5.134  22.827  0.00  0.00    -0.507 OA
ATOM     67  H   UNL     1       8.365   5.328  22.233  0.00  0.00    +0.292 HD
ENDBRANCH  51  66
BRANCH  49  68
ATOM     68  O   UNL     1       7.480   4.597  27.228  0.00  0.00    -0.506 OA
ATOM     69  H   UNL     1       7.202   5.520  27.027  0.00  0.00    +0.292 HD
ENDBRANCH  49  68
ENDBRANCH  44  55
ENDBRANCH   1  44
TORSDOF 24
ENDMDL
MODEL 7
REMARK VINA RESULT:      -6.3      3.128      7.130
REMARK  Name = 
REMARK  24 active torsions:
REMARK  status: ('A' for Active; 'I' for Inactive)
REMARK    1  A    between atoms: C_3  and  O_63
REMARK    2  A    between atoms: C_4  and  O_62
REMARK    3  A    between atoms: C_6  and  C_7
REMARK    4  A    between atoms: C_8  and  O_20
REMARK    5  A    between atoms: C_12  and  O_19
REMARK    6  A    between atoms: C_14  and  O_18
REMARK    7  A    between atoms: O_20  and  C_21
REMARK    8  A    between atoms: C_23  and  O_47
REMARK    9  A    between atoms: C_24  and  O_46
REMARK   10  A    between atoms: C_25  and  O_45
REMARK   11  A    between atoms: C_27  and  C_29
REMARK   12  A    between atoms: C_29  and  O_30
REMARK   13  A    between atoms: O_30  and  C_31
REMARK   14  A    between atoms: C_33  and  O_44
REMARK   15  A    between atoms: C_34  and  O_43
REMARK   16  A    between atoms: C_36  and  O_42
REMARK   17  A    between atoms: C_38  and  C_40
REMARK   18  A    between atoms: C_40  and  O_41
REMARK   19  A    between atoms: O_47  and  C_48
REMARK   20  A    between atoms: C_50  and  O_61
REMARK   21  A    between atoms: C_52  and  O_60
REMARK   22  A    between atoms: C_53  and  O_59
REMARK   23  A    between atoms: C_55  and  C_57
REMARK   24  A    between atoms: C_57  and  O_58
REMARK                            x       y       z     vdW  Elec       q    Type
REMARK                         _______ _______ _______ _____ _____    ______ ____
ROOT
ATOM      1  C   UNL     1       6.324  -2.344  25.074  0.00  0.00    +0.340 C 
ATOM      2  O   UNL     1       5.445  -3.337  24.467  0.00  0.00    -0.331 OA
ATOM      3  C   UNL     1       6.068  -4.585  24.046  0.00  0.00    +0.179 C 
ATOM      4  C   UNL     1       7.512  -4.519  23.469  0.00  0.00    +0.177 C 
ATOM      5  C   UNL     1       8.283  -3.334  24.008  0.00  0.00    +0.180 C 
ATOM      6  C   UNL     1       7.364  -2.092  23.986  0.00  0.00    +0.221 C 
ENDROOT
BRANCH   5   7
ATOM      7  O   UNL     1       9.492  -3.176  23.260  0.00  0.00    -0.386 OA
ATOM      8  H   UNL     1      10.202  -3.512  23.832  0.00  0.00    +0.210 HD
ENDBRANCH   5   7
BRANCH   4   9
ATOM      9  O   UNL     1       7.550  -4.386  22.033  0.00  0.00    -0.386 OA
ATOM     10  H   UNL     1       7.133  -5.196  21.678  0.00  0.00    +0.210 HD
ENDBRANCH   4   9
BRANCH   6  11
ATOM     11  O   UNL     1       8.117  -0.909  23.930  0.00  0.00    -0.337 OA
BRANCH  11  12
ATOM     12  C   UNL     1       8.181  -0.035  22.821  0.00  0.00    +0.282 C 
ATOM     13  O   UNL     1       9.342   0.805  22.754  0.00  0.00    -0.341 OA
ATOM     14  C   UNL     1       9.602   1.546  23.966  0.00  0.00    +0.178 C 
ATOM     15  C   UNL     1       8.393   2.340  24.479  0.00  0.00    +0.177 C 
ATOM     16  C   UNL     1       7.082   1.551  24.391  0.00  0.00    +0.179 C 
ATOM     17  C   UNL     1       6.929   0.824  23.039  0.00  0.00    +0.201 C 
BRANCH  17  18
ATOM     18  O   UNL     1       6.681   1.754  21.993  0.00  0.00    -0.384 OA
ATOM     19  H   UNL     1       7.358   2.457  22.059  0.00  0.00    +0.210 HD
ENDBRANCH  17  18
BRANCH  16  20
ATOM     20  O   UNL     1       5.985   2.459  24.588  0.00  0.00    -0.386 OA
ATOM     21  H   UNL     1       5.377   2.005  25.208  0.00  0.00    +0.210 HD
ENDBRANCH  16  20
BRANCH  15  22
ATOM     22  O   UNL     1       8.202   3.568  23.755  0.00  0.00    -0.386 OA
ATOM     23  H   UNL     1       7.497   3.352  23.106  0.00  0.00    +0.210 HD
ENDBRANCH  15  22
BRANCH  14  24
ATOM     24  C   UNL     1      10.843   2.456  23.750  0.00  0.00    +0.190 C 
BRANCH  24  25
ATOM     25  O   UNL     1      10.687   3.236  22.563  0.00  0.00    -0.392 OA
ATOM     26  H   UNL     1      11.298   2.881  21.895  0.00  0.00    +0.210 HD
ENDBRANCH  24  25
ENDBRANCH  14  24
ENDBRANCH  11  12
ENDBRANCH   6  11
BRANCH   3  27
ATOM     27  C   UNL     1       5.155  -5.218  22.979  0.00  0.00    +0.197 C 
BRANCH  27  28
ATOM     28  O   UNL     1       4.306  -6.284  23.429  0.00  0.00    -0.346 OA
BRANCH  28  29
ATOM     29  C   UNL     1       2.897  -6.092  23.236  0.00  0.00    +0.282 C 
ATOM     30  O   UNL     1       2.511  -4.831  23.807  0.00  0.00    -0.341 OA
ATOM     31  C   UNL     1       2.617  -4.757  25.244  0.00  0.00    +0.178 C 
ATOM     32  C   UNL     1       1.857  -5.904  25.950  0.00  0.00    +0.177 C 
ATOM     33  C   UNL     1       2.247  -7.263  25.366  0.00  0.00    +0.179 C 
ATOM     34  C   UNL     1       2.037  -7.223  23.847  0.00  0.00    +0.201 C 
BRANCH  34  35
ATOM     35  O   UNL     1       2.274  -8.509  23.267  0.00  0.00    -0.384 OA
ATOM     36  H   UNL     1       1.502  -8.713  22.703  0.00  0.00    +0.210 HD
ENDBRANCH  34  35
BRANCH  33  37
ATOM     37  O   UNL     1       3.604  -7.614  25.704  0.00  0.00    -0.386 OA
ATOM     38  H   UNL     1       3.758  -7.330  26.635  0.00  0.00    +0.210 HD
ENDBRANCH  33  37
BRANCH  32  39
ATOM     39  O   UNL     1       0.443  -5.724  25.788  0.00  0.00    -0.386 OA
ATOM     40  H   UNL     1       0.162  -6.166  24.967  0.00  0.00    +0.210 HD
ENDBRANCH  32  39
BRANCH  31  41
ATOM     41  C   UNL     1       2.074  -3.392  25.715  0.00  0.00    +0.190 C 
BRANCH  41  42
ATOM     42  O   UNL     1       0.947  -2.957  24.955  0.00  0.00    -0.392 OA
ATOM     43  H   UNL     1       0.218  -2.775  25.570  0.00  0.00    +0.210 HD
ENDBRANCH  41  42
ENDBRANCH  31  41
ENDBRANCH  28  29
ENDBRANCH  27  28
ENDBRANCH   3  27
BRANCH   1  44
ATOM     44  O   UNL     1       6.738  -2.830  26.370  0.00  0.00    -0.453 OA
BRANCH  44  55
ATOM     45  C   UNL     1       4.918  -2.413  27.942  0.00  0.00    +0.181 A 
ATOM     46  O   UNL     1       3.805  -2.929  28.648  0.00  0.00    -0.451 OA
ATOM     47  C   UNL     1       3.656  -4.285  28.837  0.00  0.00    +0.147 A 
ATOM     48  C   UNL     1       4.637  -5.185  28.470  0.00  0.00    +0.109 A 
ATOM     49  C   UNL     1       4.515  -6.551  28.792  0.00  0.00    +0.135 A 
ATOM     50  C   UNL     1       3.388  -7.029  29.453  0.00  0.00    +0.091 A 
ATOM     51  C   UNL     1       2.364  -6.141  29.752  0.00  0.00    +0.124 A 
ATOM     52  C   UNL     1       5.767  -4.679  27.704  0.00  0.00    +0.238 A 
ATOM     53  O   UNL     1       6.598  -5.503  27.339  0.00  0.00    -0.283 OA
ATOM     54  C   UNL     1       2.489  -4.776  29.450  0.00  0.00    +0.092 A 
ATOM     55  C   UNL     1       5.878  -3.214  27.397  0.00  0.00    +0.214 A 
BRANCH  45  57
ATOM     56  C   UNL     1       3.750  -0.169  27.524  0.00  0.00    +0.015 A 
ATOM     57  C   UNL     1       4.900  -0.899  27.886  0.00  0.00    +0.025 A 
ATOM     58  C   UNL     1       6.062  -0.125  28.080  0.00  0.00    +0.060 A 
ATOM     59  C   UNL     1       6.028   1.275  27.936  0.00  0.00    +0.159 A 
ATOM     60  C   UNL     1       4.865   1.944  27.562  0.00  0.00    +0.158 A 
ATOM     61  C   UNL     1       3.721   1.218  27.338  0.00  0.00    +0.050 A 
BRANCH  60  62
ATOM     62  O   UNL     1       4.879   3.298  27.427  0.00  0.00    -0.503 OA
ATOM     63  H   UNL     1       5.692   3.648  27.838  0.00  0.00    +0.292 HD
ENDBRANCH  60  62
BRANCH  59  64
ATOM     64  O   UNL     1       7.165   2.003  28.158  0.00  0.00    -0.503 OA
ATOM     65  H   UNL     1       7.149   2.190  29.119  0.00  0.00    +0.292 HD
ENDBRANCH  59  64
ENDBRANCH  45  57
BRANCH  51  66
ATOM     66  O   UNL     1       1.221  -6.593  30.354  0.00  0.00    -0.507 OA
ATOM     67  H   UNL     1       1.343  -6.592  31.320  0.00  0.00    +0.292 HD
ENDBRANCH  51  66
BRANCH  49  68
ATOM     68  O   UNL     1       5.468  -7.490  28.490  0.00  0.00    -0.506 OA
ATOM     69  H   UNL     1       6.203  -7.041  28.011  0.00  0.00    +0.292 HD
ENDBRANCH  49  68
ENDBRANCH  44  55
ENDBRANCH   1  44
TORSDOF 24
ENDMDL
MODEL 8
REMARK VINA RESULT:      -6.3      2.870      6.576
REMARK  Name = 
REMARK  24 active torsions:
REMARK  status: ('A' for Active; 'I' for Inactive)
REMARK    1  A    between atoms: C_3  and  O_63
REMARK    2  A    between atoms: C_4  and  O_62
REMARK    3  A    between atoms: C_6  and  C_7
REMARK    4  A    between atoms: C_8  and  O_20
REMARK    5  A    between atoms: C_12  and  O_19
REMARK    6  A    between atoms: C_14  and  O_18
REMARK    7  A    between atoms: O_20  and  C_21
REMARK    8  A    between atoms: C_23  and  O_47
REMARK    9  A    between atoms: C_24  and  O_46
REMARK   10  A    between atoms: C_25  and  O_45
REMARK   11  A    between atoms: C_27  and  C_29
REMARK   12  A    between atoms: C_29  and  O_30
REMARK   13  A    between atoms: O_30  and  C_31
REMARK   14  A    between atoms: C_33  and  O_44
REMARK   15  A    between atoms: C_34  and  O_43
REMARK   16  A    between atoms: C_36  and  O_42
REMARK   17  A    between atoms: C_38  and  C_40
REMARK   18  A    between atoms: C_40  and  O_41
REMARK   19  A    between atoms: O_47  and  C_48
REMARK   20  A    between atoms: C_50  and  O_61
REMARK   21  A    between atoms: C_52  and  O_60
REMARK   22  A    between atoms: C_53  and  O_59
REMARK   23  A    between atoms: C_55  and  C_57
REMARK   24  A    between atoms: C_57  and  O_58
REMARK                            x       y       z     vdW  Elec       q    Type
REMARK                         _______ _______ _______ _____ _____    ______ ____
ROOT
ATOM      1  C   UNL     1       7.052  -1.159  24.934  0.00  0.00    +0.340 C 
ATOM      2  O   UNL     1       5.944  -1.872  24.307  0.00  0.00    -0.331 OA
ATOM      3  C   UNL     1       6.234  -3.207  23.800  0.00  0.00    +0.179 C 
ATOM      4  C   UNL     1       7.637  -3.458  23.176  0.00  0.00    +0.177 C 
ATOM      5  C   UNL     1       8.686  -2.530  23.747  0.00  0.00    +0.180 C 
ATOM      6  C   UNL     1       8.097  -1.103  23.824  0.00  0.00    +0.221 C 
ENDROOT
BRANCH   5   7
ATOM      7  O   UNL     1       9.881  -2.625  22.966  0.00  0.00    -0.386 OA
ATOM      8  H   UNL     1       9.614  -3.030  22.125  0.00  0.00    +0.210 HD
ENDBRANCH   5   7
BRANCH   4   9
ATOM      9  O   UNL     1       7.675  -3.253  21.748  0.00  0.00    -0.386 OA
ATOM     10  H   UNL     1       6.912  -3.747  21.386  0.00  0.00    +0.210 HD
ENDBRANCH   4   9
BRANCH   6  11
ATOM     11  O   UNL     1       9.115  -0.137  23.803  0.00  0.00    -0.337 OA
BRANCH  11  12
ATOM     12  C   UNL     1       9.606   0.506  22.643  0.00  0.00    +0.282 C 
ATOM     13  O   UNL     1      10.420   1.665  22.869  0.00  0.00    -0.341 OA
ATOM     14  C   UNL     1       9.818   2.645  23.743  0.00  0.00    +0.178 C 
ATOM     15  C   UNL     1       8.398   3.056  23.330  0.00  0.00    +0.177 C 
ATOM     16  C   UNL     1       7.538   1.866  22.890  0.00  0.00    +0.179 C 
ATOM     17  C   UNL     1       8.301   0.912  21.948  0.00  0.00    +0.201 C 
BRANCH  17  18
ATOM     18  O   UNL     1       8.492   1.512  20.673  0.00  0.00    -0.384 OA
ATOM     19  H   UNL     1       9.361   1.959  20.687  0.00  0.00    +0.210 HD
ENDBRANCH  17  18
BRANCH  16  20
ATOM     20  O   UNL     1       6.361   2.368  22.234  0.00  0.00    -0.386 OA
ATOM     21  H   UNL     1       6.197   3.250  22.629  0.00  0.00    +0.210 HD
ENDBRANCH  16  20
BRANCH  15  22
ATOM     22  O   UNL     1       8.400   4.005  22.249  0.00  0.00    -0.386 OA
ATOM     23  H   UNL     1       9.340   4.280  22.178  0.00  0.00    +0.210 HD
ENDBRANCH  15  22
BRANCH  14  24
ATOM     24  C   UNL     1      10.764   3.871  23.862  0.00  0.00    +0.190 C 
BRANCH  24  25
ATOM     25  O   UNL     1      11.480   4.067  22.641  0.00  0.00    -0.392 OA
ATOM     26  H   UNL     1      12.347   4.446  22.866  0.00  0.00    +0.210 HD
ENDBRANCH  24  25
ENDBRANCH  14  24
ENDBRANCH  11  12
ENDBRANCH   6  11
BRANCH   3  27
ATOM     27  C   UNL     1       5.170  -3.534  22.734  0.00  0.00    +0.197 C 
BRANCH  27  28
ATOM     28  O   UNL     1       4.140  -4.448  23.135  0.00  0.00    -0.346 OA
BRANCH  28  29
ATOM     29  C   UNL     1       4.422  -5.841  22.937  0.00  0.00    +0.282 C 
ATOM     30  O   UNL     1       3.343  -6.440  22.199  0.00  0.00    -0.341 OA
ATOM     31  C   UNL     1       2.085  -6.498  22.903  0.00  0.00    +0.178 C 
ATOM     32  C   UNL     1       2.215  -7.182  24.285  0.00  0.00    +0.177 C 
ATOM     33  C   UNL     1       3.355  -6.565  25.098  0.00  0.00    +0.179 C 
ATOM     34  C   UNL     1       4.639  -6.615  24.259  0.00  0.00    +0.201 C 
BRANCH  34  35
ATOM     35  O   UNL     1       5.761  -6.160  25.019  0.00  0.00    -0.384 OA
ATOM     36  H   UNL     1       6.477  -6.812  24.888  0.00  0.00    +0.210 HD
ENDBRANCH  34  35
BRANCH  33  37
ATOM     37  O   UNL     1       3.044  -5.220  25.510  0.00  0.00    -0.386 OA
ATOM     38  H   UNL     1       3.417  -5.095  26.413  0.00  0.00    +0.210 HD
ENDBRANCH  33  37
BRANCH  32  39
ATOM     39  O   UNL     1       2.478  -8.581  24.114  0.00  0.00    -0.386 OA
ATOM     40  H   UNL     1       3.376  -8.774  24.436  0.00  0.00    +0.210 HD
ENDBRANCH  32  39
BRANCH  31  41
ATOM     41  C   UNL     1       1.061  -7.254  22.032  0.00  0.00    +0.190 C 
BRANCH  41  42
ATOM     42  O   UNL     1       1.618  -8.407  21.403  0.00  0.00    -0.392 OA
ATOM     43  H   UNL     1       2.541  -8.212  21.173  0.00  0.00    +0.210 HD
ENDBRANCH  41  42
ENDBRANCH  31  41
ENDBRANCH  28  29
ENDBRANCH  27  28
ENDBRANCH   3  27
BRANCH   1  44
ATOM     44  O   UNL     1       7.364  -1.807  26.187  0.00  0.00    -0.453 OA
BRANCH  44  55
ATOM     45  C   UNL     1       5.392  -1.491  27.590  0.00  0.00    +0.181 A 
ATOM     46  O   UNL     1       4.237  -2.060  28.177  0.00  0.00    -0.451 OA
ATOM     47  C   UNL     1       4.120  -3.425  28.322  0.00  0.00    +0.147 A 
ATOM     48  C   UNL     1       5.161  -4.282  28.030  0.00  0.00    +0.109 A 
ATOM     49  C   UNL     1       5.059  -5.660  28.309  0.00  0.00    +0.135 A 
ATOM     50  C   UNL     1       3.892  -6.191  28.852  0.00  0.00    +0.091 A 
ATOM     51  C   UNL     1       2.814  -5.345  29.072  0.00  0.00    +0.124 A 
ATOM     52  C   UNL     1       6.339  -3.720  27.384  0.00  0.00    +0.238 A 
ATOM     53  O   UNL     1       7.229  -4.507  27.081  0.00  0.00    -0.283 OA
ATOM     54  C   UNL     1       2.919  -3.969  28.813  0.00  0.00    +0.092 A 
ATOM     55  C   UNL     1       6.426  -2.245  27.120  0.00  0.00    +0.214 A 
BRANCH  45  57
ATOM     56  C   UNL     1       6.173   0.830  28.349  0.00  0.00    +0.015 A 
ATOM     57  C   UNL     1       5.325   0.023  27.565  0.00  0.00    +0.025 A 
ATOM     58  C   UNL     1       4.335   0.722  26.845  0.00  0.00    +0.060 A 
ATOM     59  C   UNL     1       4.249   2.124  26.914  0.00  0.00    +0.159 A 
ATOM     60  C   UNL     1       5.106   2.872  27.718  0.00  0.00    +0.158 A 
ATOM     61  C   UNL     1       6.065   2.222  28.454  0.00  0.00    +0.050 A 
BRANCH  60  62
ATOM     62  O   UNL     1       4.983   4.227  27.759  0.00  0.00    -0.503 OA
ATOM     63  H   UNL     1       5.036   4.520  28.689  0.00  0.00    +0.292 HD
ENDBRANCH  60  62
BRANCH  59  64
ATOM     64  O   UNL     1       3.294   2.778  26.182  0.00  0.00    -0.503 OA
ATOM     65  H   UNL     1       3.126   3.601  26.685  0.00  0.00    +0.292 HD
ENDBRANCH  59  64
ENDBRANCH  45  57
BRANCH  51  66
ATOM     66  O   UNL     1       1.637  -5.849  29.555  0.00  0.00    -0.507 OA
ATOM     67  H   UNL     1       1.754  -6.791  29.770  0.00  0.00    +0.292 HD
ENDBRANCH  51  66
BRANCH  49  68
ATOM     68  O   UNL     1       6.068  -6.558  28.078  0.00  0.00    -0.506 OA
ATOM     69  H   UNL     1       6.832  -6.320  28.652  0.00  0.00    +0.292 HD
ENDBRANCH  49  68
ENDBRANCH  44  55
ENDBRANCH   1  44
TORSDOF 24
ENDMDL
MODEL 9
REMARK VINA RESULT:      -6.3      2.262      8.526
REMARK  Name = 
REMARK  24 active torsions:
REMARK  status: ('A' for Active; 'I' for Inactive)
REMARK    1  A    between atoms: C_3  and  O_63
REMARK    2  A    between atoms: C_4  and  O_62
REMARK    3  A    between atoms: C_6  and  C_7
REMARK    4  A    between atoms: C_8  and  O_20
REMARK    5  A    between atoms: C_12  and  O_19
REMARK    6  A    between atoms: C_14  and  O_18
REMARK    7  A    between atoms: O_20  and  C_21
REMARK    8  A    between atoms: C_23  and  O_47
REMARK    9  A    between atoms: C_24  and  O_46
REMARK   10  A    between atoms: C_25  and  O_45
REMARK   11  A    between atoms: C_27  and  C_29
REMARK   12  A    between atoms: C_29  and  O_30
REMARK   13  A    between atoms: O_30  and  C_31
REMARK   14  A    between atoms: C_33  and  O_44
REMARK   15  A    between atoms: C_34  and  O_43
REMARK   16  A    between atoms: C_36  and  O_42
REMARK   17  A    between atoms: C_38  and  C_40
REMARK   18  A    between atoms: C_40  and  O_41
REMARK   19  A    between atoms: O_47  and  C_48
REMARK   20  A    between atoms: C_50  and  O_61
REMARK   21  A    between atoms: C_52  and  O_60
REMARK   22  A    between atoms: C_53  and  O_59
REMARK   23  A    between atoms: C_55  and  C_57
REMARK   24  A    between atoms: C_57  and  O_58
REMARK                            x       y       z     vdW  Elec       q    Type
REMARK                         _______ _______ _______ _____ _____    ______ ____
ROOT
ATOM      1  C   UNL     1       8.916  -1.010  24.359  0.00  0.00    +0.340 C 
ATOM      2  O   UNL     1       9.448   0.245  23.840  0.00  0.00    -0.331 OA
ATOM      3  C   UNL     1       8.539   1.384  23.835  0.00  0.00    +0.179 C 
ATOM      4  C   UNL     1       7.037   1.112  23.535  0.00  0.00    +0.177 C 
ATOM      5  C   UNL     1       6.626  -0.290  23.925  0.00  0.00    +0.180 C 
ATOM      6  C   UNL     1       7.717  -1.277  23.455  0.00  0.00    +0.221 C 
ENDROOT
BRANCH   5   7
ATOM      7  O   UNL     1       5.324  -0.567  23.399  0.00  0.00    -0.386 OA
ATOM      8  H   UNL     1       4.830  -0.985  24.123  0.00  0.00    +0.210 HD
ENDBRANCH   5   7
BRANCH   4   9
ATOM      9  O   UNL     1       6.698   1.242  22.139  0.00  0.00    -0.386 OA
ATOM     10  H   UNL     1       5.726   1.338  22.107  0.00  0.00    +0.210 HD
ENDBRANCH   4   9
BRANCH   6  11
ATOM     11  O   UNL     1       7.189  -2.564  23.273  0.00  0.00    -0.337 OA
BRANCH  11  12
ATOM     12  C   UNL     1       6.214  -2.918  22.311  0.00  0.00    +0.282 C 
ATOM     13  O   UNL     1       4.919  -3.253  22.829  0.00  0.00    -0.341 OA
ATOM     14  C   UNL     1       4.944  -4.247  23.876  0.00  0.00    +0.178 C 
ATOM     15  C   UNL     1       5.722  -5.518  23.507  0.00  0.00    +0.177 C 
ATOM     16  C   UNL     1       7.034  -5.221  22.772  0.00  0.00    +0.179 C 
ATOM     17  C   UNL     1       6.856  -4.156  21.672  0.00  0.00    +0.201 C 
BRANCH  17  18
ATOM     18  O   UNL     1       6.120  -4.683  20.576  0.00  0.00    -0.384 OA
ATOM     19  H   UNL     1       5.967  -5.631  20.754  0.00  0.00    +0.210 HD
ENDBRANCH  17  18
BRANCH  16  20
ATOM     20  O   UNL     1       7.526  -6.444  22.199  0.00  0.00    -0.386 OA
ATOM     21  H   UNL     1       7.313  -6.391  21.244  0.00  0.00    +0.210 HD
ENDBRANCH  16  20
BRANCH  15  22
ATOM     22  O   UNL     1       4.954  -6.402  22.671  0.00  0.00    -0.386 OA
ATOM     23  H   UNL     1       4.358  -5.799  22.175  0.00  0.00    +0.210 HD
ENDBRANCH  15  22
BRANCH  14  24
ATOM     24  C   UNL     1       3.487  -4.566  24.311  0.00  0.00    +0.190 C 
BRANCH  24  25
ATOM     25  O   UNL     1       2.697  -4.925  23.175  0.00  0.00    -0.392 OA
ATOM     26  H   UNL     1       1.978  -4.273  23.099  0.00  0.00    +0.210 HD
ENDBRANCH  24  25
ENDBRANCH  14  24
ENDBRANCH  11  12
ENDBRANCH   6  11
BRANCH   3  27
ATOM     27  C   UNL     1       9.063   2.385  22.788  0.00  0.00    +0.197 C 
BRANCH  27  28
ATOM     28  O   UNL     1       8.318   3.604  22.656  0.00  0.00    -0.346 OA
BRANCH  28  29
ATOM     29  C   UNL     1       8.215   4.411  23.839  0.00  0.00    +0.282 C 
ATOM     30  O   UNL     1       6.899   4.261  24.397  0.00  0.00    -0.341 OA
ATOM     31  C   UNL     1       5.832   4.798  23.589  0.00  0.00    +0.178 C 
ATOM     32  C   UNL     1       6.070   6.277  23.205  0.00  0.00    +0.177 C 
ATOM     33  C   UNL     1       7.464   6.471  22.604  0.00  0.00    +0.179 C 
ATOM     34  C   UNL     1       8.503   5.909  23.583  0.00  0.00    +0.201 C 
BRANCH  34  35
ATOM     35  O   UNL     1       9.831   6.174  23.122  0.00  0.00    -0.384 OA
ATOM     36  H   UNL     1       9.894   5.815  22.215  0.00  0.00    +0.210 HD
ENDBRANCH  34  35
BRANCH  33  37
ATOM     37  O   UNL     1       7.571   5.852  21.306  0.00  0.00    -0.386 OA
ATOM     38  H   UNL     1       7.272   6.514  20.640  0.00  0.00    +0.210 HD
ENDBRANCH  33  37
BRANCH  32  39
ATOM     39  O   UNL     1       5.953   7.108  24.368  0.00  0.00    -0.386 OA
ATOM     40  H   UNL     1       6.449   7.932  24.217  0.00  0.00    +0.210 HD
ENDBRANCH  32  39
BRANCH  31  41
ATOM     41  C   UNL     1       4.503   4.658  24.361  0.00  0.00    +0.190 C 
BRANCH  41  42
ATOM     42  O   UNL     1       4.576   5.190  25.682  0.00  0.00    -0.392 OA
ATOM     43  H   UNL     1       4.653   4.449  26.305  0.00  0.00    +0.210 HD
ENDBRANCH  41  42
ENDBRANCH  31  41
ENDBRANCH  28  29
ENDBRANCH  27  28
ENDBRANCH   3  27
BRANCH   1  44
ATOM     44  O   UNL     1       8.728  -0.874  25.785  0.00  0.00    -0.453 OA
BRANCH  44  55
ATOM     45  C   UNL     1       6.701  -1.185  27.108  0.00  0.00    +0.181 A 
ATOM     46  O   UNL     1       5.651  -2.047  27.504  0.00  0.00    -0.451 OA
ATOM     47  C   UNL     1       5.773  -3.413  27.371  0.00  0.00    +0.147 A 
ATOM     48  C   UNL     1       6.955  -4.006  26.976  0.00  0.00    +0.109 A 
ATOM     49  C   UNL     1       7.091  -5.408  26.973  0.00  0.00    +0.135 A 
ATOM     50  C   UNL     1       6.024  -6.227  27.333  0.00  0.00    +0.091 A 
ATOM     51  C   UNL     1       4.810  -5.637  27.653  0.00  0.00    +0.124 A 
ATOM     52  C   UNL     1       8.030  -3.134  26.522  0.00  0.00    +0.238 A 
ATOM     53  O   UNL     1       9.050  -3.682  26.122  0.00  0.00    -0.283 OA
ATOM     54  C   UNL     1       4.676  -4.240  27.675  0.00  0.00    +0.092 A 
ATOM     55  C   UNL     1       7.861  -1.643  26.559  0.00  0.00    +0.214 A 
BRANCH  45  57
ATOM     56  C   UNL     1       7.235   1.122  28.090  0.00  0.00    +0.015 A 
ATOM     57  C   UNL     1       6.369   0.269  27.378  0.00  0.00    +0.025 A 
ATOM     58  C   UNL     1       5.124   0.834  27.035  0.00  0.00    +0.060 A 
ATOM     59  C   UNL     1       4.817   2.163  27.378  0.00  0.00    +0.159 A 
ATOM     60  C   UNL     1       5.706   2.958  28.096  0.00  0.00    +0.158 A 
ATOM     61  C   UNL     1       6.918   2.432  28.470  0.00  0.00    +0.050 A 
BRANCH  60  62
ATOM     62  O   UNL     1       5.365   4.237  28.413  0.00  0.00    -0.503 OA
ATOM     63  H   UNL     1       6.178   4.743  28.600  0.00  0.00    +0.292 HD
ENDBRANCH  60  62
BRANCH  59  64
ATOM     64  O   UNL     1       3.610   2.693  27.008  0.00  0.00    -0.503 OA
ATOM     65  H   UNL     1       2.949   2.118  27.444  0.00  0.00    +0.292 HD
ENDBRANCH  59  64
ENDBRANCH  45  57
BRANCH  51  66
ATOM     66  O   UNL     1       3.729  -6.419  27.959  0.00  0.00    -0.507 OA
ATOM     67  H   UNL     1       3.289  -6.065  28.752  0.00  0.00    +0.292 HD
ENDBRANCH  51  66
BRANCH  49  68
ATOM     68  O   UNL     1       8.247  -6.058  26.627  0.00  0.00    -0.506 OA
ATOM     69  H   UNL     1       8.578  -6.542  27.419  0.00  0.00    +0.292 HD
ENDBRANCH  49  68
ENDBRANCH  44  55
ENDBRANCH   1  44
TORSDOF 24
ENDMDL
