MODEL 1
REMARK VINA RESULT:      -7.1      0.000      0.000
REMARK  Name = 
REMARK  12 active torsions:
REMARK  status: ('A' for Active; 'I' for Inactive)
REMARK    1  A    between atoms: C_3  and  O_33
REMARK    2  A    between atoms: C_4  and  O_32
REMARK    3  A    between atoms: C_6  and  C_7
REMARK    4  A    between atoms: C_8  and  O_20
REMARK    5  A    between atoms: C_12  and  O_19
REMARK    6  A    between atoms: C_14  and  O_18
REMARK    7  A    between atoms: O_20  and  C_21
REMARK    8  A    between atoms: C_22  and  O_31
REMARK    9  A    between atoms: C_23  and  O_30
REMARK   10  A    between atoms: C_24  and  O_29
REMARK   11  A    between atoms: C_25  and  C_27
REMARK   12  A    between atoms: C_27  and  O_28
REMARK                            x       y       z     vdW  Elec       q    Type
REMARK                         _______ _______ _______ _____ _____    ______ ____
ROOT
ATOM      1  C   UNL     1       7.668  -1.394  23.881  0.00  0.00    +0.181 A 
ATOM      2  O   UNL     1       7.799  -2.569  23.171  0.00  0.00    -0.451 OA
ATOM      3  C   UNL     1       6.750  -3.455  23.174  0.00  0.00    +0.147 A 
ATOM      4  C   UNL     1       5.567  -3.234  23.875  0.00  0.00    +0.109 A 
ATOM      5  C   UNL     1       4.555  -4.206  23.823  0.00  0.00    +0.135 A 
ATOM      6  C   UNL     1       4.708  -5.359  23.048  0.00  0.00    +0.091 A 
ATOM      7  C   UNL     1       5.887  -5.549  22.336  0.00  0.00    +0.124 A 
ATOM      8  C   UNL     1       5.424  -1.970  24.627  0.00  0.00    +0.238 A 
ATOM      9  O   UNL     1       4.419  -1.730  25.269  0.00  0.00    -0.283 OA
ATOM     10  C   UNL     1       6.915  -4.612  22.408  0.00  0.00    +0.092 A 
ATOM     11  C   UNL     1       6.574  -1.001  24.561  0.00  0.00    +0.214 A 
ENDROOT
BRANCH   1  13
ATOM     12  C   UNL     1       9.709  -0.234  24.788  0.00  0.00    +0.015 A 
ATOM     13  C   UNL     1       8.801  -0.470  23.741  0.00  0.00    +0.025 A 
ATOM     14  C   UNL     1       8.859   0.312  22.582  0.00  0.00    +0.060 A 
ATOM     15  C   UNL     1       9.757   1.364  22.519  0.00  0.00    +0.159 A 
ATOM     16  C   UNL     1      10.597   1.652  23.590  0.00  0.00    +0.158 A 
ATOM     17  C   UNL     1      10.607   0.838  24.717  0.00  0.00    +0.050 A 
BRANCH  15  18
ATOM     18  O   UNL     1       9.775   2.147  21.402  0.00  0.00    -0.503 OA
ATOM     19  H   UNL     1       8.832   2.260  21.164  0.00  0.00    +0.292 HD
ENDBRANCH  15  18
BRANCH  16  20
ATOM     20  O   UNL     1      11.376   2.770  23.496  0.00  0.00    -0.503 OA
ATOM     21  H   UNL     1      10.929   3.496  23.966  0.00  0.00    +0.292 HD
ENDBRANCH  16  20
ENDBRANCH   1  13
BRANCH   5  22
ATOM     22  O   UNL     1       3.373  -4.102  24.507  0.00  0.00    -0.506 OA
ATOM     23  H   UNL     1       2.777  -4.832  24.234  0.00  0.00    +0.292 HD
ENDBRANCH   5  22
BRANCH   7  24
ATOM     24  O   UNL     1       6.083  -6.647  21.551  0.00  0.00    -0.507 OA
ATOM     25  H   UNL     1       5.956  -7.451  22.084  0.00  0.00    +0.292 HD
ENDBRANCH   7  24
BRANCH  11  26
ATOM     26  O   UNL     1       6.607   0.147  25.349  0.00  0.00    -0.453 OA
BRANCH  26  27
ATOM     27  C   UNL     1       5.650   1.199  25.110  0.00  0.00    +0.340 C 
ATOM     28  O   UNL     1       5.917   1.882  23.869  0.00  0.00    -0.331 OA
ATOM     29  C   UNL     1       7.059   2.771  23.793  0.00  0.00    +0.179 C 
ATOM     30  C   UNL     1       7.712   3.263  25.119  0.00  0.00    +0.177 C 
ATOM     31  C   UNL     1       7.242   2.550  26.392  0.00  0.00    +0.180 C 
ATOM     32  C   UNL     1       5.744   2.239  26.238  0.00  0.00    +0.214 C 
BRANCH  30  33
ATOM     33  O   UNL     1       7.524   4.683  25.309  0.00  0.00    -0.386 OA
ATOM     34  H   UNL     1       7.673   4.881  26.257  0.00  0.00    +0.210 HD
ENDBRANCH  30  33
BRANCH  31  35
ATOM     35  O   UNL     1       7.495   3.394  27.522  0.00  0.00    -0.386 OA
ATOM     36  H   UNL     1       6.629   3.667  27.878  0.00  0.00    +0.210 HD
ENDBRANCH  31  35
BRANCH  32  37
ATOM     37  O   UNL     1       5.116   1.835  27.449  0.00  0.00    -0.383 OA
ATOM     38  H   UNL     1       4.999   2.606  28.040  0.00  0.00    +0.210 HD
ENDBRANCH  32  37
BRANCH  29  39
ATOM     39  C   UNL     1       6.640   3.986  22.921  0.00  0.00    +0.190 C 
BRANCH  39  40
ATOM     40  O   UNL     1       7.722   4.497  22.143  0.00  0.00    -0.392 OA
ATOM     41  H   UNL     1       7.686   4.054  21.275  0.00  0.00    +0.210 HD
ENDBRANCH  39  40
ENDBRANCH  29  39
ENDBRANCH  26  27
ENDBRANCH  11  26
TORSDOF 12
ENDMDL
MODEL 2
REMARK VINA RESULT:      -6.9      2.097      7.848
REMARK  Name = 
REMARK  12 active torsions:
REMARK  status: ('A' for Active; 'I' for Inactive)
REMARK    1  A    between atoms: C_3  and  O_33
REMARK    2  A    between atoms: C_4  and  O_32
REMARK    3  A    between atoms: C_6  and  C_7
REMARK    4  A    between atoms: C_8  and  O_20
REMARK    5  A    between atoms: C_12  and  O_19
REMARK    6  A    between atoms: C_14  and  O_18
REMARK    7  A    between atoms: O_20  and  C_21
REMARK    8  A    between atoms: C_22  and  O_31
REMARK    9  A    between atoms: C_23  and  O_30
REMARK   10  A    between atoms: C_24  and  O_29
REMARK   11  A    between atoms: C_25  and  C_27
REMARK   12  A    between atoms: C_27  and  O_28
REMARK                            x       y       z     vdW  Elec       q    Type
REMARK                         _______ _______ _______ _____ _____    ______ ____
ROOT
ATOM      1  C   UNL     1       6.778  -1.245  25.099  0.00  0.00    +0.181 A 
ATOM      2  O   UNL     1       7.438  -0.040  25.204  0.00  0.00    -0.451 OA
ATOM      3  C   UNL     1       8.298   0.325  24.197  0.00  0.00    +0.147 A 
ATOM      4  C   UNL     1       8.551  -0.473  23.084  0.00  0.00    +0.109 A 
ATOM      5  C   UNL     1       9.455  -0.016  22.112  0.00  0.00    +0.135 A 
ATOM      6  C   UNL     1      10.063   1.236  22.231  0.00  0.00    +0.091 A 
ATOM      7  C   UNL     1       9.779   2.029  23.338  0.00  0.00    +0.124 A 
ATOM      8  C   UNL     1       7.835  -1.761  22.968  0.00  0.00    +0.238 A 
ATOM      9  O   UNL     1       8.027  -2.504  22.025  0.00  0.00    -0.283 OA
ATOM     10  C   UNL     1       8.913   1.573  24.329  0.00  0.00    +0.092 A 
ATOM     11  C   UNL     1       6.864  -2.104  24.066  0.00  0.00    +0.214 A 
ENDROOT
BRANCH   1  13
ATOM     12  C   UNL     1       5.955  -2.578  27.069  0.00  0.00    +0.015 A 
ATOM     13  C   UNL     1       5.810  -1.504  26.173  0.00  0.00    +0.025 A 
ATOM     14  C   UNL     1       4.634  -0.748  26.181  0.00  0.00    +0.060 A 
ATOM     15  C   UNL     1       3.593  -1.123  27.013  0.00  0.00    +0.159 A 
ATOM     16  C   UNL     1       3.703  -2.238  27.838  0.00  0.00    +0.158 A 
ATOM     17  C   UNL     1       4.893  -2.953  27.900  0.00  0.00    +0.050 A 
BRANCH  15  18
ATOM     18  O   UNL     1       2.433  -0.404  26.980  0.00  0.00    -0.503 OA
ATOM     19  H   UNL     1       2.067  -0.565  26.088  0.00  0.00    +0.292 HD
ENDBRANCH  15  18
BRANCH  16  20
ATOM     20  O   UNL     1       2.596  -2.608  28.547  0.00  0.00    -0.503 OA
ATOM     21  H   UNL     1       2.069  -3.215  28.000  0.00  0.00    +0.292 HD
ENDBRANCH  16  20
ENDBRANCH   1  13
BRANCH   5  22
ATOM     22  O   UNL     1       9.801  -0.741  21.002  0.00  0.00    -0.506 OA
ATOM     23  H   UNL     1       9.480  -1.663  21.107  0.00  0.00    +0.292 HD
ENDBRANCH   5  22
BRANCH   7  24
ATOM     24  O   UNL     1      10.329   3.266  23.497  0.00  0.00    -0.507 OA
ATOM     25  H   UNL     1      10.654   3.587  22.637  0.00  0.00    +0.292 HD
ENDBRANCH   7  24
BRANCH  11  26
ATOM     26  O   UNL     1       6.250  -3.354  24.132  0.00  0.00    -0.453 OA
BRANCH  26  27
ATOM     27  C   UNL     1       4.968  -3.549  23.502  0.00  0.00    +0.340 C 
ATOM     28  O   UNL     1       3.972  -3.971  24.455  0.00  0.00    -0.331 OA
ATOM     29  C   UNL     1       4.032  -5.323  24.975  0.00  0.00    +0.179 C 
ATOM     30  C   UNL     1       4.895  -6.376  24.219  0.00  0.00    +0.177 C 
ATOM     31  C   UNL     1       5.817  -5.817  23.129  0.00  0.00    +0.180 C 
ATOM     32  C   UNL     1       5.086  -4.652  22.439  0.00  0.00    +0.214 C 
BRANCH  30  33
ATOM     33  O   UNL     1       4.075  -7.405  23.623  0.00  0.00    -0.386 OA
ATOM     34  H   UNL     1       4.579  -7.798  22.879  0.00  0.00    +0.210 HD
ENDBRANCH  30  33
BRANCH  31  35
ATOM     35  O   UNL     1       6.137  -6.863  22.204  0.00  0.00    -0.386 OA
ATOM     36  H   UNL     1       6.798  -7.438  22.635  0.00  0.00    +0.210 HD
ENDBRANCH  31  35
BRANCH  32  37
ATOM     37  O   UNL     1       5.703  -4.226  21.231  0.00  0.00    -0.383 OA
ATOM     38  H   UNL     1       5.244  -4.620  20.462  0.00  0.00    +0.210 HD
ENDBRANCH  32  37
BRANCH  29  39
ATOM     39  C   UNL     1       2.570  -5.829  25.112  0.00  0.00    +0.190 C 
BRANCH  39  40
ATOM     40  O   UNL     1       1.803  -5.608  23.930  0.00  0.00    -0.392 OA
ATOM     41  H   UNL     1       2.372  -5.835  23.172  0.00  0.00    +0.210 HD
ENDBRANCH  39  40
ENDBRANCH  29  39
ENDBRANCH  26  27
ENDBRANCH  11  26
TORSDOF 12
ENDMDL
MODEL 3
REMARK VINA RESULT:      -6.9      1.978      4.578
REMARK  Name = 
REMARK  12 active torsions:
REMARK  status: ('A' for Active; 'I' for Inactive)
REMARK    1  A    between atoms: C_3  and  O_33
REMARK    2  A    between atoms: C_4  and  O_32
REMARK    3  A    between atoms: C_6  and  C_7
REMARK    4  A    between atoms: C_8  and  O_20
REMARK    5  A    between atoms: C_12  and  O_19
REMARK    6  A    between atoms: C_14  and  O_18
REMARK    7  A    between atoms: O_20  and  C_21
REMARK    8  A    between atoms: C_22  and  O_31
REMARK    9  A    between atoms: C_23  and  O_30
REMARK   10  A    between atoms: C_24  and  O_29
REMARK   11  A    between atoms: C_25  and  C_27
REMARK   12  A    between atoms: C_27  and  O_28
REMARK                            x       y       z     vdW  Elec       q    Type
REMARK                         _______ _______ _______ _____ _____    ______ ____
ROOT
ATOM      1  C   UNL     1       6.084  -1.716  25.900  0.00  0.00    +0.181 A 
ATOM      2  O   UNL     1       5.369  -2.701  26.547  0.00  0.00    -0.451 OA
ATOM      3  C   UNL     1       5.283  -3.939  25.960  0.00  0.00    +0.147 A 
ATOM      4  C   UNL     1       5.865  -4.243  24.732  0.00  0.00    +0.109 A 
ATOM      5  C   UNL     1       5.713  -5.538  24.209  0.00  0.00    +0.135 A 
ATOM      6  C   UNL     1       5.025  -6.522  24.923  0.00  0.00    +0.091 A 
ATOM      7  C   UNL     1       4.470  -6.205  26.158  0.00  0.00    +0.124 A 
ATOM      8  C   UNL     1       6.640  -3.189  24.045  0.00  0.00    +0.238 A 
ATOM      9  O   UNL     1       7.159  -3.394  22.964  0.00  0.00    -0.283 OA
ATOM     10  C   UNL     1       4.581  -4.916  26.672  0.00  0.00    +0.092 A 
ATOM     11  C   UNL     1       6.755  -1.860  24.742  0.00  0.00    +0.214 A 
ENDROOT
BRANCH   1  13
ATOM     12  C   UNL     1       5.552   0.721  26.239  0.00  0.00    +0.015 A 
ATOM     13  C   UNL     1       6.200  -0.458  26.650  0.00  0.00    +0.025 A 
ATOM     14  C   UNL     1       7.120  -0.414  27.702  0.00  0.00    +0.060 A 
ATOM     15  C   UNL     1       7.443   0.808  28.269  0.00  0.00    +0.159 A 
ATOM     16  C   UNL     1       6.867   1.986  27.805  0.00  0.00    +0.158 A 
ATOM     17  C   UNL     1       5.893   1.951  26.814  0.00  0.00    +0.050 A 
BRANCH  15  18
ATOM     18  O   UNL     1       8.375   0.844  29.266  0.00  0.00    -0.503 OA
ATOM     19  H   UNL     1       8.193   0.046  29.803  0.00  0.00    +0.292 HD
ENDBRANCH  15  18
BRANCH  16  20
ATOM     20  O   UNL     1       7.317   3.159  28.339  0.00  0.00    -0.503 OA
ATOM     21  H   UNL     1       7.392   3.050  29.303  0.00  0.00    +0.292 HD
ENDBRANCH  16  20
ENDBRANCH   1  13
BRANCH   5  22
ATOM     22  O   UNL     1       6.214  -5.924  22.994  0.00  0.00    -0.506 OA
ATOM     23  H   UNL     1       6.748  -5.192  22.618  0.00  0.00    +0.292 HD
ENDBRANCH   5  22
BRANCH   7  24
ATOM     24  O   UNL     1       3.804  -7.131  26.905  0.00  0.00    -0.507 OA
ATOM     25  H   UNL     1       4.446  -7.675  27.393  0.00  0.00    +0.292 HD
ENDBRANCH   7  24
BRANCH  11  26
ATOM     26  O   UNL     1       7.332  -0.756  24.118  0.00  0.00    -0.453 OA
BRANCH  26  27
ATOM     27  C   UNL     1       8.695  -0.398  24.427  0.00  0.00    +0.340 C 
ATOM     28  O   UNL     1       8.820   1.012  24.700  0.00  0.00    -0.331 OA
ATOM     29  C   UNL     1       8.721   1.948  23.598  0.00  0.00    +0.179 C 
ATOM     30  C   UNL     1       8.880   1.411  22.145  0.00  0.00    +0.177 C 
ATOM     31  C   UNL     1       8.870  -0.115  21.999  0.00  0.00    +0.180 C 
ATOM     32  C   UNL     1       9.590  -0.715  23.219  0.00  0.00    +0.214 C 
BRANCH  30  33
ATOM     33  O   UNL     1      10.085   1.909  21.524  0.00  0.00    -0.386 OA
ATOM     34  H   UNL     1      10.841   1.401  21.885  0.00  0.00    +0.210 HD
ENDBRANCH  30  33
BRANCH  31  35
ATOM     35  O   UNL     1       9.518  -0.473  20.773  0.00  0.00    -0.386 OA
ATOM     36  H   UNL     1       9.908   0.342  20.403  0.00  0.00    +0.210 HD
ENDBRANCH  31  35
BRANCH  32  37
ATOM     37  O   UNL     1       9.902  -2.095  23.077  0.00  0.00    -0.383 OA
ATOM     38  H   UNL     1      10.082  -2.305  22.139  0.00  0.00    +0.210 HD
ENDBRANCH  32  37
BRANCH  29  39
ATOM     39  C   UNL     1       9.747   3.082  23.864  0.00  0.00    +0.190 C 
BRANCH  39  40
ATOM     40  O   UNL     1       9.455   4.267  23.125  0.00  0.00    -0.392 OA
ATOM     41  H   UNL     1       8.602   4.606  23.452  0.00  0.00    +0.210 HD
ENDBRANCH  39  40
ENDBRANCH  29  39
ENDBRANCH  26  27
ENDBRANCH  11  26
TORSDOF 12
ENDMDL
MODEL 4
REMARK VINA RESULT:      -6.8      1.952      7.166
REMARK  Name = 
REMARK  12 active torsions:
REMARK  status: ('A' for Active; 'I' for Inactive)
REMARK    1  A    between atoms: C_3  and  O_33
REMARK    2  A    between atoms: C_4  and  O_32
REMARK    3  A    between atoms: C_6  and  C_7
REMARK    4  A    between atoms: C_8  and  O_20
REMARK    5  A    between atoms: C_12  and  O_19
REMARK    6  A    between atoms: C_14  and  O_18
REMARK    7  A    between atoms: O_20  and  C_21
REMARK    8  A    between atoms: C_22  and  O_31
REMARK    9  A    between atoms: C_23  and  O_30
REMARK   10  A    between atoms: C_24  and  O_29
REMARK   11  A    between atoms: C_25  and  C_27
REMARK   12  A    between atoms: C_27  and  O_28
REMARK                            x       y       z     vdW  Elec       q    Type
REMARK                         _______ _______ _______ _____ _____    ______ ____
ROOT
ATOM      1  C   UNL     1       7.193  -1.379  23.209  0.00  0.00    +0.181 A 
ATOM      2  O   UNL     1       8.236  -0.645  22.685  0.00  0.00    -0.451 OA
ATOM      3  C   UNL     1       8.467   0.612  23.186  0.00  0.00    +0.147 A 
ATOM      4  C   UNL     1       7.687   1.191  24.184  0.00  0.00    +0.109 A 
ATOM      5  C   UNL     1       7.999   2.488  24.624  0.00  0.00    +0.135 A 
ATOM      6  C   UNL     1       9.098   3.176  24.103  0.00  0.00    +0.091 A 
ATOM      7  C   UNL     1       9.878   2.572  23.125  0.00  0.00    +0.124 A 
ATOM      8  C   UNL     1       6.576   0.399  24.752  0.00  0.00    +0.238 A 
ATOM      9  O   UNL     1       5.853   0.859  25.615  0.00  0.00    -0.283 OA
ATOM     10  C   UNL     1       9.560   1.301  22.652  0.00  0.00    +0.092 A 
ATOM     11  C   UNL     1       6.383  -0.993  24.213  0.00  0.00    +0.214 A 
ENDROOT
BRANCH   1  13
ATOM     12  C   UNL     1       6.052  -3.127  21.802  0.00  0.00    +0.015 A 
ATOM     13  C   UNL     1       7.083  -2.744  22.678  0.00  0.00    +0.025 A 
ATOM     14  C   UNL     1       7.942  -3.714  23.205  0.00  0.00    +0.060 A 
ATOM     15  C   UNL     1       7.711  -5.050  22.922  0.00  0.00    +0.159 A 
ATOM     16  C   UNL     1       6.638  -5.436  22.125  0.00  0.00    +0.158 A 
ATOM     17  C   UNL     1       5.822  -4.481  21.531  0.00  0.00    +0.050 A 
BRANCH  15  18
ATOM     18  O   UNL     1       8.529  -5.991  23.477  0.00  0.00    -0.503 OA
ATOM     19  H   UNL     1       8.750  -6.593  22.738  0.00  0.00    +0.292 HD
ENDBRANCH  15  18
BRANCH  16  20
ATOM     20  O   UNL     1       6.410  -6.775  21.983  0.00  0.00    -0.503 OA
ATOM     21  H   UNL     1       6.867  -7.244  22.703  0.00  0.00    +0.292 HD
ENDBRANCH  16  20
ENDBRANCH   1  13
BRANCH   5  22
ATOM     22  O   UNL     1       7.271   3.158  25.571  0.00  0.00    -0.506 OA
ATOM     23  H   UNL     1       6.571   2.566  25.919  0.00  0.00    +0.292 HD
ENDBRANCH   5  22
BRANCH   7  24
ATOM     24  O   UNL     1      10.972   3.189  22.594  0.00  0.00    -0.507 OA
ATOM     25  H   UNL     1      10.701   4.031  22.186  0.00  0.00    +0.292 HD
ENDBRANCH   7  24
BRANCH  11  26
ATOM     26  O   UNL     1       5.280  -1.766  24.568  0.00  0.00    -0.453 OA
BRANCH  26  27
ATOM     27  C   UNL     1       5.036  -2.058  25.959  0.00  0.00    +0.340 C 
ATOM     28  O   UNL     1       6.147  -2.759  26.553  0.00  0.00    -0.331 OA
ATOM     29  C   UNL     1       6.365  -4.147  26.200  0.00  0.00    +0.179 C 
ATOM     30  C   UNL     1       5.206  -4.938  25.526  0.00  0.00    +0.177 C 
ATOM     31  C   UNL     1       4.014  -4.094  25.058  0.00  0.00    +0.180 C 
ATOM     32  C   UNL     1       3.801  -2.965  26.080  0.00  0.00    +0.214 C 
BRANCH  30  33
ATOM     33  O   UNL     1       4.701  -5.980  26.389  0.00  0.00    -0.386 OA
ATOM     34  H   UNL     1       5.450  -6.315  26.925  0.00  0.00    +0.210 HD
ENDBRANCH  30  33
BRANCH  31  35
ATOM     35  O   UNL     1       2.859  -4.935  24.950  0.00  0.00    -0.386 OA
ATOM     36  H   UNL     1       3.176  -5.848  24.819  0.00  0.00    +0.210 HD
ENDBRANCH  31  35
BRANCH  32  37
ATOM     37  O   UNL     1       2.564  -2.279  25.926  0.00  0.00    -0.383 OA
ATOM     38  H   UNL     1       2.199  -2.442  25.033  0.00  0.00    +0.210 HD
ENDBRANCH  32  37
BRANCH  29  39
ATOM     39  C   UNL     1       6.836  -4.880  27.485  0.00  0.00    +0.190 C 
BRANCH  39  40
ATOM     40  O   UNL     1       7.729  -5.957  27.202  0.00  0.00    -0.392 OA
ATOM     41  H   UNL     1       7.687  -6.121  26.242  0.00  0.00    +0.210 HD
ENDBRANCH  39  40
ENDBRANCH  29  39
ENDBRANCH  26  27
ENDBRANCH  11  26
TORSDOF 12
ENDMDL
MODEL 5
REMARK VINA RESULT:      -6.7      2.876      7.697
REMARK  Name = 
REMARK  12 active torsions:
REMARK  status: ('A' for Active; 'I' for Inactive)
REMARK    1  A    between atoms: C_3  and  O_33
REMARK    2  A    between atoms: C_4  and  O_32
REMARK    3  A    between atoms: C_6  and  C_7
REMARK    4  A    between atoms: C_8  and  O_20
REMARK    5  A    between atoms: C_12  and  O_19
REMARK    6  A    between atoms: C_14  and  O_18
REMARK    7  A    between atoms: O_20  and  C_21
REMARK    8  A    between atoms: C_22  and  O_31
REMARK    9  A    between atoms: C_23  and  O_30
REMARK   10  A    between atoms: C_24  and  O_29
REMARK   11  A    between atoms: C_25  and  C_27
REMARK   12  A    between atoms: C_27  and  O_28
REMARK                            x       y       z     vdW  Elec       q    Type
REMARK                         _______ _______ _______ _____ _____    ______ ____
ROOT
ATOM      1  C   UNL     1       6.592  -1.172  25.356  0.00  0.00    +0.181 A 
ATOM      2  O   UNL     1       6.781   0.055  24.758  0.00  0.00    -0.451 OA
ATOM      3  C   UNL     1       7.702   0.154  23.745  0.00  0.00    +0.147 A 
ATOM      4  C   UNL     1       8.470  -0.921  23.305  0.00  0.00    +0.109 A 
ATOM      5  C   UNL     1       9.393  -0.717  22.267  0.00  0.00    +0.135 A 
ATOM      6  C   UNL     1       9.516   0.531  21.652  0.00  0.00    +0.091 A 
ATOM      7  C   UNL     1       8.724   1.587  22.090  0.00  0.00    +0.124 A 
ATOM      8  C   UNL     1       8.259  -2.239  23.940  0.00  0.00    +0.238 A 
ATOM      9  O   UNL     1       8.910  -3.210  23.606  0.00  0.00    -0.283 OA
ATOM     10  C   UNL     1       7.830   1.409  23.143  0.00  0.00    +0.092 A 
ATOM     11  C   UNL     1       7.206  -2.320  25.013  0.00  0.00    +0.214 A 
ENDROOT
BRANCH   1  13
ATOM     12  C   UNL     1       4.282  -1.820  26.119  0.00  0.00    +0.015 A 
ATOM     13  C   UNL     1       5.521  -1.200  26.361  0.00  0.00    +0.025 A 
ATOM     14  C   UNL     1       5.700  -0.437  27.520  0.00  0.00    +0.060 A 
ATOM     15  C   UNL     1       4.626  -0.234  28.370  0.00  0.00    +0.159 A 
ATOM     16  C   UNL     1       3.377  -0.776  28.086  0.00  0.00    +0.158 A 
ATOM     17  C   UNL     1       3.201  -1.601  26.981  0.00  0.00    +0.050 A 
BRANCH  15  18
ATOM     18  O   UNL     1       4.801   0.548  29.475  0.00  0.00    -0.503 OA
ATOM     19  H   UNL     1       4.721   1.465  29.144  0.00  0.00    +0.292 HD
ENDBRANCH  15  18
BRANCH  16  20
ATOM     20  O   UNL     1       2.342  -0.441  28.913  0.00  0.00    -0.503 OA
ATOM     21  H   UNL     1       2.001   0.429  28.641  0.00  0.00    +0.292 HD
ENDBRANCH  16  20
ENDBRANCH   1  13
BRANCH   5  22
ATOM     22  O   UNL     1      10.221  -1.699  21.790  0.00  0.00    -0.506 OA
ATOM     23  H   UNL     1       9.840  -2.069  20.965  0.00  0.00    +0.292 HD
ENDBRANCH   5  22
BRANCH   7  24
ATOM     24  O   UNL     1       8.789   2.821  21.515  0.00  0.00    -0.507 OA
ATOM     25  H   UNL     1       8.775   2.727  20.547  0.00  0.00    +0.292 HD
ENDBRANCH   7  24
BRANCH  11  26
ATOM     26  O   UNL     1       7.030  -3.471  25.777  0.00  0.00    -0.453 OA
BRANCH  26  27
ATOM     27  C   UNL     1       7.036  -4.761  25.130  0.00  0.00    +0.340 C 
ATOM     28  O   UNL     1       5.708  -5.155  24.731  0.00  0.00    -0.331 OA
ATOM     29  C   UNL     1       4.764  -5.562  25.752  0.00  0.00    +0.179 C 
ATOM     30  C   UNL     1       5.305  -5.939  27.162  0.00  0.00    +0.177 C 
ATOM     31  C   UNL     1       6.777  -5.593  27.420  0.00  0.00    +0.180 C 
ATOM     32  C   UNL     1       7.555  -5.821  26.114  0.00  0.00    +0.214 C 
BRANCH  30  33
ATOM     33  O   UNL     1       5.123  -7.344  27.444  0.00  0.00    -0.386 OA
ATOM     34  H   UNL     1       4.845  -7.783  26.613  0.00  0.00    +0.210 HD
ENDBRANCH  30  33
BRANCH  31  35
ATOM     35  O   UNL     1       7.272  -6.416  28.483  0.00  0.00    -0.386 OA
ATOM     36  H   UNL     1       6.637  -7.147  28.604  0.00  0.00    +0.210 HD
ENDBRANCH  31  35
BRANCH  32  37
ATOM     37  O   UNL     1       8.968  -5.811  26.280  0.00  0.00    -0.383 OA
ATOM     38  H   UNL     1       9.258  -6.627  26.736  0.00  0.00    +0.210 HD
ENDBRANCH  32  37
BRANCH  29  39
ATOM     39  C   UNL     1       3.932  -6.736  25.168  0.00  0.00    +0.190 C 
BRANCH  39  40
ATOM     40  O   UNL     1       4.546  -7.322  24.021  0.00  0.00    -0.392 OA
ATOM     41  H   UNL     1       5.507  -7.331  24.182  0.00  0.00    +0.210 HD
ENDBRANCH  39  40
ENDBRANCH  29  39
ENDBRANCH  26  27
ENDBRANCH  11  26
TORSDOF 12
ENDMDL
MODEL 6
REMARK VINA RESULT:      -6.5      2.216      6.978
REMARK  Name = 
REMARK  12 active torsions:
REMARK  status: ('A' for Active; 'I' for Inactive)
REMARK    1  A    between atoms: C_3  and  O_33
REMARK    2  A    between atoms: C_4  and  O_32
REMARK    3  A    between atoms: C_6  and  C_7
REMARK    4  A    between atoms: C_8  and  O_20
REMARK    5  A    between atoms: C_12  and  O_19
REMARK    6  A    between atoms: C_14  and  O_18
REMARK    7  A    between atoms: O_20  and  C_21
REMARK    8  A    between atoms: C_22  and  O_31
REMARK    9  A    between atoms: C_23  and  O_30
REMARK   10  A    between atoms: C_24  and  O_29
REMARK   11  A    between atoms: C_25  and  C_27
REMARK   12  A    between atoms: C_27  and  O_28
REMARK                            x       y       z     vdW  Elec       q    Type
REMARK                         _______ _______ _______ _____ _____    ______ ____
ROOT
ATOM      1  C   UNL     1       8.337  -0.109  24.044  0.00  0.00    +0.181 A 
ATOM      2  O   UNL     1       9.300   0.676  23.446  0.00  0.00    -0.451 OA
ATOM      3  C   UNL     1       9.377   2.000  23.801  0.00  0.00    +0.147 A 
ATOM      4  C   UNL     1       8.517   2.595  24.720  0.00  0.00    +0.109 A 
ATOM      5  C   UNL     1       8.671   3.960  25.010  0.00  0.00    +0.135 A 
ATOM      6  C   UNL     1       9.694   4.707  24.421  0.00  0.00    +0.091 A 
ATOM      7  C   UNL     1      10.558   4.089  23.524  0.00  0.00    +0.124 A 
ATOM      8  C   UNL     1       7.492   1.750  25.368  0.00  0.00    +0.238 A 
ATOM      9  O   UNL     1       6.705   2.219  26.168  0.00  0.00    -0.283 OA
ATOM     10  C   UNL     1      10.395   2.745  23.198  0.00  0.00    +0.092 A 
ATOM     11  C   UNL     1       7.469   0.293  24.991  0.00  0.00    +0.214 A 
ENDROOT
BRANCH   1  13
ATOM     12  C   UNL     1       7.479  -2.106  22.775  0.00  0.00    +0.015 A 
ATOM     13  C   UNL     1       8.394  -1.529  23.673  0.00  0.00    +0.025 A 
ATOM     14  C   UNL     1       9.287  -2.346  24.374  0.00  0.00    +0.060 A 
ATOM     15  C   UNL     1       9.199  -3.721  24.236  0.00  0.00    +0.159 A 
ATOM     16  C   UNL     1       8.236  -4.296  23.413  0.00  0.00    +0.158 A 
ATOM     17  C   UNL     1       7.393  -3.497  22.650  0.00  0.00    +0.050 A 
BRANCH  15  18
ATOM     18  O   UNL     1      10.047  -4.509  24.958  0.00  0.00    -0.503 OA
ATOM     19  H   UNL     1       9.690  -5.415  24.856  0.00  0.00    +0.292 HD
ENDBRANCH  15  18
BRANCH  16  20
ATOM     20  O   UNL     1       8.140  -5.659  23.415  0.00  0.00    -0.503 OA
ATOM     21  H   UNL     1       8.689  -6.007  22.691  0.00  0.00    +0.292 HD
ENDBRANCH  16  20
ENDBRANCH   1  13
BRANCH   5  22
ATOM     22  O   UNL     1       7.853   4.646  25.869  0.00  0.00    -0.506 OA
ATOM     23  H   UNL     1       8.226   5.539  26.025  0.00  0.00    +0.292 HD
ENDBRANCH   5  22
BRANCH   7  24
ATOM     24  O   UNL     1      11.584   4.765  22.933  0.00  0.00    -0.507 OA
ATOM     25  H   UNL     1      12.341   4.799  23.543  0.00  0.00    +0.292 HD
ENDBRANCH   7  24
BRANCH  11  26
ATOM     26  O   UNL     1       6.454  -0.557  25.425  0.00  0.00    -0.453 OA
BRANCH  26  27
ATOM     27  C   UNL     1       6.498  -1.088  26.766  0.00  0.00    +0.340 C 
ATOM     28  O   UNL     1       7.081  -2.406  26.792  0.00  0.00    -0.331 OA
ATOM     29  C   UNL     1       6.312  -3.519  26.272  0.00  0.00    +0.179 C 
ATOM     30  C   UNL     1       4.778  -3.341  26.076  0.00  0.00    +0.177 C 
ATOM     31  C   UNL     1       4.256  -1.906  26.209  0.00  0.00    +0.180 C 
ATOM     32  C   UNL     1       5.067  -1.206  27.313  0.00  0.00    +0.214 C 
BRANCH  30  33
ATOM     33  O   UNL     1       4.026  -4.174  26.985  0.00  0.00    -0.386 OA
ATOM     34  H   UNL     1       3.132  -3.783  27.082  0.00  0.00    +0.210 HD
ENDBRANCH  30  33
BRANCH  31  35
ATOM     35  O   UNL     1       2.858  -1.943  26.521  0.00  0.00    -0.386 OA
ATOM     36  H   UNL     1       2.433  -2.540  25.878  0.00  0.00    +0.210 HD
ENDBRANCH  31  35
BRANCH  32  37
ATOM     37  O   UNL     1       4.507   0.031  27.737  0.00  0.00    -0.383 OA
ATOM     38  H   UNL     1       3.668  -0.126  28.216  0.00  0.00    +0.210 HD
ENDBRANCH  32  37
BRANCH  29  39
ATOM     39  C   UNL     1       6.596  -4.742  27.186  0.00  0.00    +0.190 C 
BRANCH  39  40
ATOM     40  O   UNL     1       7.492  -5.675  26.585  0.00  0.00    -0.392 OA
ATOM     41  H   UNL     1       7.576  -6.428  27.199  0.00  0.00    +0.210 HD
ENDBRANCH  39  40
ENDBRANCH  29  39
ENDBRANCH  26  27
ENDBRANCH  11  26
TORSDOF 12
ENDMDL
MODEL 7
REMARK VINA RESULT:      -6.5      2.621      2.694
REMARK  Name = 
REMARK  12 active torsions:
REMARK  status: ('A' for Active; 'I' for Inactive)
REMARK    1  A    between atoms: C_3  and  O_33
REMARK    2  A    between atoms: C_4  and  O_32
REMARK    3  A    between atoms: C_6  and  C_7
REMARK    4  A    between atoms: C_8  and  O_20
REMARK    5  A    between atoms: C_12  and  O_19
REMARK    6  A    between atoms: C_14  and  O_18
REMARK    7  A    between atoms: O_20  and  C_21
REMARK    8  A    between atoms: C_22  and  O_31
REMARK    9  A    between atoms: C_23  and  O_30
REMARK   10  A    between atoms: C_24  and  O_29
REMARK   11  A    between atoms: C_25  and  C_27
REMARK   12  A    between atoms: C_27  and  O_28
REMARK                            x       y       z     vdW  Elec       q    Type
REMARK                         _______ _______ _______ _____ _____    ______ ____
ROOT
ATOM      1  C   UNL     1       7.970  -0.761  25.289  0.00  0.00    +0.181 A 
ATOM      2  O   UNL     1       8.364  -2.055  25.555  0.00  0.00    -0.451 OA
ATOM      3  C   UNL     1       7.540  -2.844  26.319  0.00  0.00    +0.147 A 
ATOM      4  C   UNL     1       6.335  -2.396  26.855  0.00  0.00    +0.109 A 
ATOM      5  C   UNL     1       5.567  -3.278  27.632  0.00  0.00    +0.135 A 
ATOM      6  C   UNL     1       5.977  -4.598  27.834  0.00  0.00    +0.091 A 
ATOM      7  C   UNL     1       7.171  -5.034  27.270  0.00  0.00    +0.124 A 
ATOM      8  C   UNL     1       5.910  -1.012  26.560  0.00  0.00    +0.238 A 
ATOM      9  O   UNL     1       4.875  -0.562  27.012  0.00  0.00    -0.283 OA
ATOM     10  C   UNL     1       7.963  -4.160  26.529  0.00  0.00    +0.092 A 
ATOM     11  C   UNL     1       6.814  -0.192  25.679  0.00  0.00    +0.214 A 
ENDROOT
BRANCH   1  13
ATOM     12  C   UNL     1       9.835   0.876  24.864  0.00  0.00    +0.015 A 
ATOM     13  C   UNL     1       8.868  -0.027  24.387  0.00  0.00    +0.025 A 
ATOM     14  C   UNL     1       8.622  -0.118  23.013  0.00  0.00    +0.060 A 
ATOM     15  C   UNL     1       9.275   0.745  22.149  0.00  0.00    +0.159 A 
ATOM     16  C   UNL     1      10.168   1.697  22.629  0.00  0.00    +0.158 A 
ATOM     17  C   UNL     1      10.483   1.749  23.982  0.00  0.00    +0.050 A 
BRANCH  15  18
ATOM     18  O   UNL     1       8.994   0.676  20.815  0.00  0.00    -0.503 OA
ATOM     19  H   UNL     1       8.106   1.078  20.728  0.00  0.00    +0.292 HD
ENDBRANCH  15  18
BRANCH  16  20
ATOM     20  O   UNL     1      10.688   2.583  21.729  0.00  0.00    -0.503 OA
ATOM     21  H   UNL     1      11.653   2.461  21.700  0.00  0.00    +0.292 HD
ENDBRANCH  16  20
ENDBRANCH   1  13
BRANCH   5  22
ATOM     22  O   UNL     1       4.389  -2.922  28.234  0.00  0.00    -0.506 OA
ATOM     23  H   UNL     1       3.977  -2.189  27.728  0.00  0.00    +0.292 HD
ENDBRANCH   5  22
BRANCH   7  24
ATOM     24  O   UNL     1       7.611  -6.316  27.420  0.00  0.00    -0.507 OA
ATOM     25  H   UNL     1       6.946  -6.829  27.912  0.00  0.00    +0.292 HD
ENDBRANCH   7  24
BRANCH  11  26
ATOM     26  O   UNL     1       6.586   1.165  25.461  0.00  0.00    -0.453 OA
BRANCH  26  27
ATOM     27  C   UNL     1       5.681   1.574  24.415  0.00  0.00    +0.340 C 
ATOM     28  O   UNL     1       6.345   2.395  23.434  0.00  0.00    -0.331 OA
ATOM     29  C   UNL     1       6.704   3.753  23.788  0.00  0.00    +0.179 C 
ATOM     30  C   UNL     1       6.029   4.404  25.032  0.00  0.00    +0.177 C 
ATOM     31  C   UNL     1       5.232   3.448  25.928  0.00  0.00    +0.180 C 
ATOM     32  C   UNL     1       4.545   2.411  25.023  0.00  0.00    +0.214 C 
BRANCH  30  33
ATOM     33  O   UNL     1       5.157   5.492  24.655  0.00  0.00    -0.386 OA
ATOM     34  H   UNL     1       5.704   6.301  24.573  0.00  0.00    +0.210 HD
ENDBRANCH  30  33
BRANCH  31  35
ATOM     35  O   UNL     1       4.280   4.203  26.687  0.00  0.00    -0.386 OA
ATOM     36  H   UNL     1       3.473   3.659  26.761  0.00  0.00    +0.210 HD
ENDBRANCH  31  35
BRANCH  32  37
ATOM     37  O   UNL     1       3.552   1.640  25.689  0.00  0.00    -0.383 OA
ATOM     38  H   UNL     1       3.618   0.702  25.419  0.00  0.00    +0.210 HD
ENDBRANCH  32  37
BRANCH  29  39
ATOM     39  C   UNL     1       6.469   4.635  22.531  0.00  0.00    +0.190 C 
BRANCH  39  40
ATOM     40  O   UNL     1       5.162   4.467  21.985  0.00  0.00    -0.392 OA
ATOM     41  H   UNL     1       4.991   5.234  21.408  0.00  0.00    +0.210 HD
ENDBRANCH  39  40
ENDBRANCH  29  39
ENDBRANCH  26  27
ENDBRANCH  11  26
TORSDOF 12
ENDMDL
MODEL 8
REMARK VINA RESULT:      -6.4      2.801      5.059
REMARK  Name = 
REMARK  12 active torsions:
REMARK  status: ('A' for Active; 'I' for Inactive)
REMARK    1  A    between atoms: C_3  and  O_33
REMARK    2  A    between atoms: C_4  and  O_32
REMARK    3  A    between atoms: C_6  and  C_7
REMARK    4  A    between atoms: C_8  and  O_20
REMARK    5  A    between atoms: C_12  and  O_19
REMARK    6  A    between atoms: C_14  and  O_18
REMARK    7  A    between atoms: O_20  and  C_21
REMARK    8  A    between atoms: C_22  and  O_31
REMARK    9  A    between atoms: C_23  and  O_30
REMARK   10  A    between atoms: C_24  and  O_29
REMARK   11  A    between atoms: C_25  and  C_27
REMARK   12  A    between atoms: C_27  and  O_28
REMARK                            x       y       z     vdW  Elec       q    Type
REMARK                         _______ _______ _______ _____ _____    ______ ____
ROOT
ATOM      1  C   UNL     1       7.342   0.126  26.134  0.00  0.00    +0.181 A 
ATOM      2  O   UNL     1       7.224  -1.151  26.640  0.00  0.00    -0.451 OA
ATOM      3  C   UNL     1       7.958  -2.155  26.059  0.00  0.00    +0.147 A 
ATOM      4  C   UNL     1       8.802  -1.951  24.970  0.00  0.00    +0.109 A 
ATOM      5  C   UNL     1       9.504  -3.045  24.440  0.00  0.00    +0.135 A 
ATOM      6  C   UNL     1       9.396  -4.313  25.016  0.00  0.00    +0.091 A 
ATOM      7  C   UNL     1       8.568  -4.491  26.118  0.00  0.00    +0.124 A 
ATOM      8  C   UNL     1       8.935  -0.579  24.435  0.00  0.00    +0.238 A 
ATOM      9  O   UNL     1       9.646  -0.345  23.477  0.00  0.00    -0.283 OA
ATOM     10  C   UNL     1       7.835  -3.424  26.632  0.00  0.00    +0.092 A 
ATOM     11  C   UNL     1       8.153   0.504  25.128  0.00  0.00    +0.214 A 
ENDROOT
BRANCH   1  13
ATOM     12  C   UNL     1       5.307   1.564  26.493  0.00  0.00    +0.015 A 
ATOM     13  C   UNL     1       6.593   1.147  26.880  0.00  0.00    +0.025 A 
ATOM     14  C   UNL     1       7.267   1.828  27.900  0.00  0.00    +0.060 A 
ATOM     15  C   UNL     1       6.691   2.957  28.455  0.00  0.00    +0.159 A 
ATOM     16  C   UNL     1       5.456   3.421  28.013  0.00  0.00    +0.158 A 
ATOM     17  C   UNL     1       4.738   2.713  27.056  0.00  0.00    +0.050 A 
BRANCH  15  18
ATOM     18  O   UNL     1       7.376   3.638  29.419  0.00  0.00    -0.503 OA
ATOM     19  H   UNL     1       7.592   4.499  29.007  0.00  0.00    +0.292 HD
ENDBRANCH  15  18
BRANCH  16  20
ATOM     20  O   UNL     1       5.005   4.602  28.531  0.00  0.00    -0.503 OA
ATOM     21  H   UNL     1       4.576   5.107  27.819  0.00  0.00    +0.292 HD
ENDBRANCH  16  20
ENDBRANCH   1  13
BRANCH   5  22
ATOM     22  O   UNL     1      10.327  -2.956  23.348  0.00  0.00    -0.506 OA
ATOM     23  H   UNL     1      10.791  -3.811  23.224  0.00  0.00    +0.292 HD
ENDBRANCH   5  22
BRANCH   7  24
ATOM     24  O   UNL     1       8.438  -5.702  26.731  0.00  0.00    -0.507 OA
ATOM     25  H   UNL     1       9.122  -5.791  27.418  0.00  0.00    +0.292 HD
ENDBRANCH   7  24
BRANCH  11  26
ATOM     26  O   UNL     1       8.088   1.799  24.617  0.00  0.00    -0.453 OA
BRANCH  26  27
ATOM     27  C   UNL     1       9.130   2.266  23.735  0.00  0.00    +0.340 C 
ATOM     28  O   UNL     1       9.807   3.415  24.283  0.00  0.00    -0.331 OA
ATOM     29  C   UNL     1       9.117   4.689  24.302  0.00  0.00    +0.179 C 
ATOM     30  C   UNL     1       7.862   4.872  23.398  0.00  0.00    +0.177 C 
ATOM     31  C   UNL     1       7.315   3.591  22.759  0.00  0.00    +0.180 C 
ATOM     32  C   UNL     1       8.509   2.692  22.396  0.00  0.00    +0.214 C 
BRANCH  30  33
ATOM     33  O   UNL     1       8.103   5.828  22.343  0.00  0.00    -0.386 OA
ATOM     34  H   UNL     1       7.383   5.736  21.684  0.00  0.00    +0.210 HD
ENDBRANCH  30  33
BRANCH  31  35
ATOM     35  O   UNL     1       6.542   3.937  21.603  0.00  0.00    -0.386 OA
ATOM     36  H   UNL     1       5.648   4.176  21.913  0.00  0.00    +0.210 HD
ENDBRANCH  31  35
BRANCH  32  37
ATOM     37  O   UNL     1       8.169   1.604  21.545  0.00  0.00    -0.383 OA
ATOM     38  H   UNL     1       7.439   1.861  20.947  0.00  0.00    +0.210 HD
ENDBRANCH  32  37
BRANCH  29  39
ATOM     39  C   UNL     1      10.168   5.787  23.986  0.00  0.00    +0.190 C 
BRANCH  39  40
ATOM     40  O   UNL     1      10.993   5.448  22.873  0.00  0.00    -0.392 OA
ATOM     41  H   UNL     1      10.401   5.174  22.149  0.00  0.00    +0.210 HD
ENDBRANCH  39  40
ENDBRANCH  29  39
ENDBRANCH  26  27
ENDBRANCH  11  26
TORSDOF 12
ENDMDL
MODEL 9
REMARK VINA RESULT:      -6.4      2.377      5.708
REMARK  Name = 
REMARK  12 active torsions:
REMARK  status: ('A' for Active; 'I' for Inactive)
REMARK    1  A    between atoms: C_3  and  O_33
REMARK    2  A    between atoms: C_4  and  O_32
REMARK    3  A    between atoms: C_6  and  C_7
REMARK    4  A    between atoms: C_8  and  O_20
REMARK    5  A    between atoms: C_12  and  O_19
REMARK    6  A    between atoms: C_14  and  O_18
REMARK    7  A    between atoms: O_20  and  C_21
REMARK    8  A    between atoms: C_22  and  O_31
REMARK    9  A    between atoms: C_23  and  O_30
REMARK   10  A    between atoms: C_24  and  O_29
REMARK   11  A    between atoms: C_25  and  C_27
REMARK   12  A    between atoms: C_27  and  O_28
REMARK                            x       y       z     vdW  Elec       q    Type
REMARK                         _______ _______ _______ _____ _____    ______ ____
ROOT
ATOM      1  C   UNL     1       6.112  -1.997  25.289  0.00  0.00    +0.181 A 
ATOM      2  O   UNL     1       5.410  -2.662  26.271  0.00  0.00    -0.451 OA
ATOM      3  C   UNL     1       4.947  -1.943  27.345  0.00  0.00    +0.147 A 
ATOM      4  C   UNL     1       5.169  -0.577  27.501  0.00  0.00    +0.109 A 
ATOM      5  C   UNL     1       4.662   0.067  28.641  0.00  0.00    +0.135 A 
ATOM      6  C   UNL     1       3.911  -0.635  29.587  0.00  0.00    +0.091 A 
ATOM      7  C   UNL     1       3.680  -1.993  29.401  0.00  0.00    +0.124 A 
ATOM      8  C   UNL     1       5.913   0.137  26.442  0.00  0.00    +0.238 A 
ATOM      9  O   UNL     1       6.148   1.327  26.532  0.00  0.00    -0.283 OA
ATOM     10  C   UNL     1       4.208  -2.654  28.294  0.00  0.00    +0.092 A 
ATOM     11  C   UNL     1       6.362  -0.674  25.256  0.00  0.00    +0.214 A 
ENDROOT
BRANCH   1  13
ATOM     12  C   UNL     1       5.775  -2.784  22.922  0.00  0.00    +0.015 A 
ATOM     13  C   UNL     1       6.482  -2.829  24.136  0.00  0.00    +0.025 A 
ATOM     14  C   UNL     1       7.464  -3.806  24.332  0.00  0.00    +0.060 A 
ATOM     15  C   UNL     1       7.665  -4.769  23.357  0.00  0.00    +0.159 A 
ATOM     16  C   UNL     1       6.906  -4.777  22.192  0.00  0.00    +0.158 A 
ATOM     17  C   UNL     1       5.981  -3.768  21.947  0.00  0.00    +0.050 A 
BRANCH  15  18
ATOM     18  O   UNL     1       8.596  -5.743  23.578  0.00  0.00    -0.503 OA
ATOM     19  H   UNL     1       8.635  -6.242  22.738  0.00  0.00    +0.292 HD
ENDBRANCH  15  18
BRANCH  16  20
ATOM     20  O   UNL     1       7.086  -5.821  21.330  0.00  0.00    -0.503 OA
ATOM     21  H   UNL     1       7.991  -5.776  20.978  0.00  0.00    +0.292 HD
ENDBRANCH  16  20
ENDBRANCH   1  13
BRANCH   5  22
ATOM     22  O   UNL     1       4.859   1.397  28.906  0.00  0.00    -0.506 OA
ATOM     23  H   UNL     1       5.558   1.490  29.587  0.00  0.00    +0.292 HD
ENDBRANCH   5  22
BRANCH   7  24
ATOM     24  O   UNL     1       2.939  -2.723  30.282  0.00  0.00    -0.507 OA
ATOM     25  H   UNL     1       2.326  -3.298  29.790  0.00  0.00    +0.292 HD
ENDBRANCH   7  24
BRANCH  11  26
ATOM     26  O   UNL     1       7.195  -0.136  24.278  0.00  0.00    -0.453 OA
BRANCH  26  27
ATOM     27  C   UNL     1       8.567   0.170  24.604  0.00  0.00    +0.340 C 
ATOM     28  O   UNL     1       8.764   1.588  24.769  0.00  0.00    -0.331 OA
ATOM     29  C   UNL     1       8.751   2.437  23.594  0.00  0.00    +0.179 C 
ATOM     30  C   UNL     1       8.922   1.777  22.194  0.00  0.00    +0.177 C 
ATOM     31  C   UNL     1       8.828   0.247  22.169  0.00  0.00    +0.180 C 
ATOM     32  C   UNL     1       9.477  -0.291  23.455  0.00  0.00    +0.214 C 
BRANCH  30  33
ATOM     33  O   UNL     1      10.171   2.156  21.576  0.00  0.00    -0.386 OA
ATOM     34  H   UNL     1      10.161   1.829  20.653  0.00  0.00    +0.210 HD
ENDBRANCH  30  33
BRANCH  31  35
ATOM     35  O   UNL     1       9.490  -0.244  20.996  0.00  0.00    -0.386 OA
ATOM     36  H   UNL     1       8.925  -0.024  20.231  0.00  0.00    +0.210 HD
ENDBRANCH  31  35
BRANCH  32  37
ATOM     37  O   UNL     1       9.713  -1.694  23.433  0.00  0.00    -0.383 OA
ATOM     38  H   UNL     1      10.652  -1.874  23.225  0.00  0.00    +0.210 HD
ENDBRANCH  32  37
BRANCH  29  39
ATOM     39  C   UNL     1       9.833   3.531  23.805  0.00  0.00    +0.190 C 
BRANCH  39  40
ATOM     40  O   UNL     1       9.586   4.699  23.023  0.00  0.00    -0.392 OA
ATOM     41  H   UNL     1       9.930   4.524  22.129  0.00  0.00    +0.210 HD
ENDBRANCH  39  40
ENDBRANCH  29  39
ENDBRANCH  26  27
ENDBRANCH  11  26
TORSDOF 12
ENDMDL
