MODEL 1
REMARK VINA RESULT:      -7.0      0.000      0.000
REMARK  Name = 
REMARK  25 active torsions:
REMARK  status: ('A' for Active; 'I' for Inactive)
REMARK    1  A    between atoms: C_1  and  C_2
REMARK    2  A    between atoms: C_3  and  O_70
REMARK    3  A    between atoms: C_5  and  O_69
REMARK    4  A    between atoms: C_7  and  O_68
REMARK    5  A    between atoms: C_8  and  O_11
REMARK    6  A    between atoms: O_11  and  C_12
REMARK    7  A    between atoms: C_14  and  O_67
REMARK    8  A    between atoms: C_19  and  C_59
REMARK    9  A    between atoms: C_20  and  O_23
REMARK   10  A    between atoms: O_23  and  C_24
REMARK   11  A    between atoms: C_26  and  O_37
REMARK   12  A    between atoms: C_27  and  O_36
REMARK   13  A    between atoms: C_29  and  O_35
REMARK   14  A    between atoms: C_31  and  C_33
REMARK   15  A    between atoms: C_33  and  O_34
REMARK   16  A    between atoms: O_37  and  C_38
REMARK   17  A    between atoms: C_40  and  O_58
REMARK   18  A    between atoms: C_41  and  O_49
REMARK   19  A    between atoms: C_42  and  O_48
REMARK   20  A    between atoms: C_44  and  C_46
REMARK   21  A    between atoms: C_46  and  O_47
REMARK   22  A    between atoms: O_49  and  C_50
REMARK   23  A    between atoms: C_50  and  C_52
REMARK   24  A    between atoms: C_61  and  O_66
REMARK   25  A    between atoms: C_62  and  O_65
REMARK                            x       y       z     vdW  Elec       q    Type
REMARK                         _______ _______ _______ _____ _____    ______ ____
ROOT
ATOM      1  C   UNL     1       4.388   2.457  25.811  0.00  0.00    +0.131 A 
ATOM      2  C   UNL     1       5.415   1.518  25.962  0.00  0.00    +0.093 A 
ATOM      3  C   UNL     1       5.231   0.355  26.730  0.00  0.00    +0.147 A 
ATOM      4  O   UNL     1       6.305  -0.493  26.858  0.00  0.00    -0.451 OA
ATOM      5  C   UNL     1       6.037  -1.819  27.179  0.00  0.00    +0.181 A 
ATOM      6  C   UNL     1       4.873  -2.274  27.699  0.00  0.00    +0.214 A 
ATOM      7  C   UNL     1       3.935  -1.187  28.139  0.00  0.00    +0.238 A 
ATOM      8  O   UNL     1       3.219  -1.304  29.121  0.00  0.00    -0.283 OA
ATOM      9  C   UNL     1       4.021   0.083  27.357  0.00  0.00    +0.109 A 
ATOM     10  C   UNL     1       2.979   1.005  27.185  0.00  0.00    +0.135 A 
ATOM     11  C   UNL     1       3.161   2.181  26.430  0.00  0.00    +0.092 A 
ENDROOT
BRANCH   5  12
ATOM     12  C   UNL     1       7.170  -2.739  26.896  0.00  0.00    +0.025 A 
ATOM     13  C   UNL     1       8.365  -2.259  26.346  0.00  0.00    +0.015 A 
ATOM     14  C   UNL     1       9.401  -3.152  26.035  0.00  0.00    +0.050 A 
ATOM     15  C   UNL     1       9.223  -4.509  26.265  0.00  0.00    +0.158 A 
ATOM     16  C   UNL     1       8.054  -4.981  26.850  0.00  0.00    +0.159 A 
ATOM     17  C   UNL     1       7.043  -4.105  27.194  0.00  0.00    +0.060 A 
BRANCH  16  18
ATOM     18  O   UNL     1       7.931  -6.329  27.044  0.00  0.00    -0.503 OA
ATOM     19  H   UNL     1       7.640  -6.473  27.964  0.00  0.00    +0.292 HD
ENDBRANCH  16  18
BRANCH  15  20
ATOM     20  O   UNL     1      10.198  -5.387  25.900  0.00  0.00    -0.503 OA
ATOM     21  H   UNL     1      10.751  -4.885  25.269  0.00  0.00    +0.292 HD
ENDBRANCH  15  20
ENDBRANCH   5  12
BRANCH  10  22
ATOM     22  O   UNL     1       1.746   0.750  27.717  0.00  0.00    -0.506 OA
ATOM     23  H   UNL     1       1.840   0.191  28.505  0.00  0.00    +0.292 HD
ENDBRANCH  10  22
BRANCH   6  24
ATOM     24  O   UNL     1       4.628  -3.648  27.738  0.00  0.00    -0.453 OA
BRANCH  24  25
ATOM     25  C   UNL     1       3.440  -4.331  27.269  0.00  0.00    +0.340 C 
ATOM     26  O   UNL     1       2.949  -5.187  28.343  0.00  0.00    -0.331 OA
ATOM     27  C   UNL     1       2.457  -6.518  28.082  0.00  0.00    +0.179 C 
ATOM     28  C   UNL     1       2.486  -7.021  26.634  0.00  0.00    +0.177 C 
ATOM     29  C   UNL     1       3.802  -6.579  26.021  0.00  0.00    +0.180 C 
ATOM     30  C   UNL     1       3.748  -5.048  25.898  0.00  0.00    +0.221 C 
BRANCH  28  31
ATOM     31  O   UNL     1       1.372  -6.519  25.885  0.00  0.00    -0.386 OA
ATOM     32  H   UNL     1       1.612  -5.622  25.578  0.00  0.00    +0.210 HD
ENDBRANCH  28  31
BRANCH  29  33
ATOM     33  O   UNL     1       4.911  -7.056  26.783  0.00  0.00    -0.386 OA
ATOM     34  H   UNL     1       5.248  -6.311  27.315  0.00  0.00    +0.210 HD
ENDBRANCH  29  33
BRANCH  30  35
ATOM     35  O   UNL     1       4.862  -4.505  25.148  0.00  0.00    -0.337 OA
BRANCH  35  36
ATOM     36  C   UNL     1       4.585  -4.039  23.803  0.00  0.00    +0.283 C 
ATOM     37  O   UNL     1       4.939  -5.086  22.876  0.00  0.00    -0.340 OA
ATOM     38  C   UNL     1       6.361  -5.315  22.785  0.00  0.00    +0.179 C 
ATOM     39  C   UNL     1       7.117  -4.039  22.328  0.00  0.00    +0.189 C 
ATOM     40  C   UNL     1       6.783  -2.948  23.357  0.00  0.00    +0.241 C 
ATOM     41  C   UNL     1       5.271  -2.702  23.354  0.00  0.00    +0.213 C 
BRANCH  41  42
ATOM     42  O   UNL     1       4.941  -1.560  24.157  0.00  0.00    -0.383 OA
ATOM     43  H   UNL     1       5.688  -0.940  24.064  0.00  0.00    +0.210 HD
ENDBRANCH  41  42
BRANCH  39  44
ATOM     44  O   UNL     1       6.677  -3.705  21.002  0.00  0.00    -0.385 OA
ATOM     45  H   UNL     1       7.443  -3.758  20.389  0.00  0.00    +0.210 HD
ENDBRANCH  39  44
BRANCH  40  46
ATOM     46  O   UNL     1       7.568  -1.725  23.361  0.00  0.00    -0.452 OA
BRANCH  46  47
ATOM     47  C   UNL     1       8.715  -1.543  22.678  0.00  0.00    +0.340 C 
ATOM     48  O   UNL     1       9.229  -2.360  21.935  0.00  0.00    -0.245 OA
BRANCH  47  49
ATOM     49  C   UNL     1       9.228  -0.161  22.934  0.00  0.00    +0.059 A 
ATOM     50  C   UNL     1       9.830   0.612  21.927  0.00  0.00    +0.015 A 
ATOM     51  C   UNL     1      10.308   1.899  22.210  0.00  0.00    +0.001 A 
ATOM     52  C   UNL     1      10.196   2.417  23.496  0.00  0.00    +0.000 A 
ATOM     53  C   UNL     1       9.597   1.661  24.503  0.00  0.00    +0.001 A 
ATOM     54  C   UNL     1       9.105   0.380  24.222  0.00  0.00    +0.015 A 
ENDBRANCH  47  49
ENDBRANCH  46  47
ENDBRANCH  40  46
BRANCH  38  55
ATOM     55  C   UNL     1       6.630  -6.509  21.864  0.00  0.00    +0.190 C 
BRANCH  55  56
ATOM     56  O   UNL     1       5.735  -6.496  20.751  0.00  0.00    -0.392 OA
ATOM     57  H   UNL     1       4.837  -6.402  21.114  0.00  0.00    +0.210 HD
ENDBRANCH  55  56
ENDBRANCH  38  55
ENDBRANCH  35  36
ENDBRANCH  30  35
BRANCH  27  58
ATOM     58  C   UNL     1       1.050  -6.662  28.673  0.00  0.00    +0.190 C 
BRANCH  58  59
ATOM     59  O   UNL     1       0.502  -7.924  28.297  0.00  0.00    -0.392 OA
ATOM     60  H   UNL     1       0.016  -7.751  27.466  0.00  0.00    +0.210 HD
ENDBRANCH  58  59
ENDBRANCH  27  58
ENDBRANCH  24  25
ENDBRANCH   6  24
BRANCH   1  61
ATOM     61  O   UNL     1       4.463   3.648  25.127  0.00  0.00    -0.461 OA
BRANCH  61  65
ATOM     62  C   UNL     1       8.335   5.401  25.028  0.00  0.00    +0.041 C 
ATOM     63  C   UNL     1       7.237   5.796  24.042  0.00  0.00    +0.150 C 
ATOM     64  O   UNL     1       5.951   5.378  24.523  0.00  0.00    -0.334 OA
ATOM     65  C   UNL     1       5.723   3.963  24.499  0.00  0.00    +0.339 C 
ATOM     66  C   UNL     1       5.742   3.512  23.015  0.00  0.00    +0.214 C 
ATOM     67  C   UNL     1       7.163   3.797  22.474  0.00  0.00    +0.180 C 
ATOM     68  C   UNL     1       7.511   5.293  22.614  0.00  0.00    +0.174 C 
BRANCH  66  69
ATOM     69  O   UNL     1       4.778   4.270  22.247  0.00  0.00    -0.383 OA
ATOM     70  H   UNL     1       3.944   4.256  22.753  0.00  0.00    +0.210 HD
ENDBRANCH  66  69
BRANCH  67  71
ATOM     71  O   UNL     1       7.310   3.343  21.126  0.00  0.00    -0.386 OA
ATOM     72  H   UNL     1       7.858   2.536  21.135  0.00  0.00    +0.210 HD
ENDBRANCH  67  71
BRANCH  68  73
ATOM     73  O   UNL     1       6.752   6.075  21.681  0.00  0.00    -0.387 OA
ATOM     74  H   UNL     1       7.275   6.109  20.849  0.00  0.00    +0.210 HD
ENDBRANCH  68  73
ENDBRANCH  61  65
ENDBRANCH   1  61
TORSDOF 24
ENDMDL
MODEL 2
REMARK VINA RESULT:      -6.5      2.575      9.786
REMARK  Name = 
REMARK  25 active torsions:
REMARK  status: ('A' for Active; 'I' for Inactive)
REMARK    1  A    between atoms: C_1  and  C_2
REMARK    2  A    between atoms: C_3  and  O_70
REMARK    3  A    between atoms: C_5  and  O_69
REMARK    4  A    between atoms: C_7  and  O_68
REMARK    5  A    between atoms: C_8  and  O_11
REMARK    6  A    between atoms: O_11  and  C_12
REMARK    7  A    between atoms: C_14  and  O_67
REMARK    8  A    between atoms: C_19  and  C_59
REMARK    9  A    between atoms: C_20  and  O_23
REMARK   10  A    between atoms: O_23  and  C_24
REMARK   11  A    between atoms: C_26  and  O_37
REMARK   12  A    between atoms: C_27  and  O_36
REMARK   13  A    between atoms: C_29  and  O_35
REMARK   14  A    between atoms: C_31  and  C_33
REMARK   15  A    between atoms: C_33  and  O_34
REMARK   16  A    between atoms: O_37  and  C_38
REMARK   17  A    between atoms: C_40  and  O_58
REMARK   18  A    between atoms: C_41  and  O_49
REMARK   19  A    between atoms: C_42  and  O_48
REMARK   20  A    between atoms: C_44  and  C_46
REMARK   21  A    between atoms: C_46  and  O_47
REMARK   22  A    between atoms: O_49  and  C_50
REMARK   23  A    between atoms: C_50  and  C_52
REMARK   24  A    between atoms: C_61  and  O_66
REMARK   25  A    between atoms: C_62  and  O_65
REMARK                            x       y       z     vdW  Elec       q    Type
REMARK                         _______ _______ _______ _____ _____    ______ ____
ROOT
ATOM      1  C   UNL     1       5.420  -5.770  26.081  0.00  0.00    +0.131 A 
ATOM      2  C   UNL     1       5.020  -4.551  26.642  0.00  0.00    +0.093 A 
ATOM      3  C   UNL     1       5.843  -3.414  26.573  0.00  0.00    +0.147 A 
ATOM      4  O   UNL     1       5.389  -2.269  27.184  0.00  0.00    -0.451 OA
ATOM      5  C   UNL     1       5.912  -1.059  26.743  0.00  0.00    +0.181 A 
ATOM      6  C   UNL     1       7.048  -0.919  26.021  0.00  0.00    +0.214 A 
ATOM      7  C   UNL     1       7.863  -2.177  25.915  0.00  0.00    +0.238 A 
ATOM      8  O   UNL     1       9.083  -2.162  25.903  0.00  0.00    -0.283 OA
ATOM      9  C   UNL     1       7.078  -3.447  25.936  0.00  0.00    +0.109 A 
ATOM     10  C   UNL     1       7.470  -4.657  25.348  0.00  0.00    +0.135 A 
ATOM     11  C   UNL     1       6.659  -5.807  25.426  0.00  0.00    +0.092 A 
ENDROOT
BRANCH   5  12
ATOM     12  C   UNL     1       5.098   0.120  27.140  0.00  0.00    +0.025 A 
ATOM     13  C   UNL     1       5.166   0.634  28.441  0.00  0.00    +0.015 A 
ATOM     14  C   UNL     1       4.348   1.713  28.810  0.00  0.00    +0.050 A 
ATOM     15  C   UNL     1       3.467   2.250  27.882  0.00  0.00    +0.158 A 
ATOM     16  C   UNL     1       3.429   1.766  26.579  0.00  0.00    +0.159 A 
ATOM     17  C   UNL     1       4.258   0.730  26.196  0.00  0.00    +0.060 A 
BRANCH  16  18
ATOM     18  O   UNL     1       2.534   2.327  25.711  0.00  0.00    -0.503 OA
ATOM     19  H   UNL     1       1.665   1.912  25.867  0.00  0.00    +0.292 HD
ENDBRANCH  16  18
BRANCH  15  20
ATOM     20  O   UNL     1       2.621   3.249  28.256  0.00  0.00    -0.503 OA
ATOM     21  H   UNL     1       2.969   3.549  29.120  0.00  0.00    +0.292 HD
ENDBRANCH  15  20
ENDBRANCH   5  12
BRANCH  10  22
ATOM     22  O   UNL     1       8.640  -4.726  24.644  0.00  0.00    -0.506 OA
ATOM     23  H   UNL     1       8.933  -5.650  24.586  0.00  0.00    +0.292 HD
ENDBRANCH  10  22
BRANCH   6  24
ATOM     24  O   UNL     1       7.335   0.308  25.420  0.00  0.00    -0.453 OA
BRANCH  24  25
ATOM     25  C   UNL     1       7.525   0.558  24.006  0.00  0.00    +0.340 C 
ATOM     26  O   UNL     1       8.686  -0.200  23.558  0.00  0.00    -0.331 OA
ATOM     27  C   UNL     1       9.649   0.364  22.643  0.00  0.00    +0.179 C 
ATOM     28  C   UNL     1       9.427   1.806  22.170  0.00  0.00    +0.177 C 
ATOM     29  C   UNL     1       8.973   2.617  23.369  0.00  0.00    +0.180 C 
ATOM     30  C   UNL     1       7.570   2.114  23.746  0.00  0.00    +0.221 C 
BRANCH  28  31
ATOM     31  O   UNL     1       8.465   1.864  21.110  0.00  0.00    -0.386 OA
ATOM     32  H   UNL     1       8.962   1.959  20.274  0.00  0.00    +0.210 HD
ENDBRANCH  28  31
BRANCH  29  33
ATOM     33  O   UNL     1       9.918   2.535  24.435  0.00  0.00    -0.386 OA
ATOM     34  H   UNL     1      10.471   3.338  24.404  0.00  0.00    +0.210 HD
ENDBRANCH  29  33
BRANCH  30  35
ATOM     35  O   UNL     1       6.931   2.934  24.755  0.00  0.00    -0.337 OA
BRANCH  35  36
ATOM     36  C   UNL     1       7.085   4.370  24.629  0.00  0.00    +0.283 C 
ATOM     37  O   UNL     1       6.911   4.962  25.933  0.00  0.00    -0.340 OA
ATOM     38  C   UNL     1       5.555   4.885  26.422  0.00  0.00    +0.179 C 
ATOM     39  C   UNL     1       4.563   5.605  25.469  0.00  0.00    +0.189 C 
ATOM     40  C   UNL     1       4.712   4.925  24.099  0.00  0.00    +0.241 C 
ATOM     41  C   UNL     1       6.151   5.103  23.604  0.00  0.00    +0.213 C 
BRANCH  41  42
ATOM     42  O   UNL     1       6.281   4.653  22.248  0.00  0.00    -0.383 OA
ATOM     43  H   UNL     1       6.651   5.406  21.749  0.00  0.00    +0.210 HD
ENDBRANCH  41  42
BRANCH  39  44
ATOM     44  O   UNL     1       4.902   7.001  25.435  0.00  0.00    -0.385 OA
ATOM     45  H   UNL     1       5.685   7.153  26.010  0.00  0.00    +0.210 HD
ENDBRANCH  39  44
BRANCH  40  46
ATOM     46  O   UNL     1       3.712   5.185  23.076  0.00  0.00    -0.452 OA
BRANCH  46  47
ATOM     47  C   UNL     1       2.465   4.675  23.071  0.00  0.00    +0.340 C 
ATOM     48  O   UNL     1       1.735   4.590  24.042  0.00  0.00    -0.245 OA
BRANCH  47  49
ATOM     49  C   UNL     1       2.099   4.280  21.675  0.00  0.00    +0.059 A 
ATOM     50  C   UNL     1       1.900   2.939  21.305  0.00  0.00    +0.015 A 
ATOM     51  C   UNL     1       1.568   2.609  19.985  0.00  0.00    +0.001 A 
ATOM     52  C   UNL     1       1.442   3.609  19.025  0.00  0.00    +0.000 A 
ATOM     53  C   UNL     1       1.633   4.944  19.382  0.00  0.00    +0.001 A 
ATOM     54  C   UNL     1       1.950   5.280  20.704  0.00  0.00    +0.015 A 
ENDBRANCH  47  49
ENDBRANCH  46  47
ENDBRANCH  40  46
BRANCH  38  55
ATOM     55  C   UNL     1       5.492   5.440  27.848  0.00  0.00    +0.190 C 
BRANCH  55  56
ATOM     56  O   UNL     1       4.156   5.822  28.180  0.00  0.00    -0.392 OA
ATOM     57  H   UNL     1       3.620   5.690  27.379  0.00  0.00    +0.210 HD
ENDBRANCH  55  56
ENDBRANCH  38  55
ENDBRANCH  35  36
ENDBRANCH  30  35
BRANCH  27  58
ATOM     58  C   UNL     1       9.819  -0.575  21.444  0.00  0.00    +0.190 C 
BRANCH  58  59
ATOM     59  O   UNL     1      10.461  -1.776  21.867  0.00  0.00    -0.392 OA
ATOM     60  H   UNL     1      10.735  -1.605  22.790  0.00  0.00    +0.210 HD
ENDBRANCH  58  59
ENDBRANCH  27  58
ENDBRANCH  24  25
ENDBRANCH   6  24
BRANCH   1  61
ATOM     61  O   UNL     1       4.727  -6.957  26.126  0.00  0.00    -0.461 OA
BRANCH  61  65
ATOM     62  C   UNL     1       0.667  -8.203  25.943  0.00  0.00    +0.041 C 
ATOM     63  C   UNL     1       1.643  -8.441  24.793  0.00  0.00    +0.150 C 
ATOM     64  O   UNL     1       2.999  -8.302  25.244  0.00  0.00    -0.334 OA
ATOM     65  C   UNL     1       3.401  -6.962  25.557  0.00  0.00    +0.339 C 
ATOM     66  C   UNL     1       3.348  -6.139  24.243  0.00  0.00    +0.214 C 
ATOM     67  C   UNL     1       1.872  -6.120  23.781  0.00  0.00    +0.180 C 
ATOM     68  C   UNL     1       1.347  -7.556  23.570  0.00  0.00    +0.174 C 
BRANCH  66  69
ATOM     69  O   UNL     1       4.160  -6.767  23.223  0.00  0.00    -0.383 OA
ATOM     70  H   UNL     1       5.018  -6.303  23.223  0.00  0.00    +0.210 HD
ENDBRANCH  66  69
BRANCH  67  71
ATOM     71  O   UNL     1       1.701  -5.317  22.610  0.00  0.00    -0.386 OA
ATOM     72  H   UNL     1       2.528  -4.822  22.459  0.00  0.00    +0.210 HD
ENDBRANCH  67  71
BRANCH  68  73
ATOM     73  O   UNL     1       1.943  -8.142  22.404  0.00  0.00    -0.387 OA
ATOM     74  H   UNL     1       1.835  -7.492  21.674  0.00  0.00    +0.210 HD
ENDBRANCH  68  73
ENDBRANCH  61  65
ENDBRANCH   1  61
TORSDOF 24
ENDMDL
MODEL 3
REMARK VINA RESULT:      -6.5      2.093      5.880
REMARK  Name = 
REMARK  25 active torsions:
REMARK  status: ('A' for Active; 'I' for Inactive)
REMARK    1  A    between atoms: C_1  and  C_2
REMARK    2  A    between atoms: C_3  and  O_70
REMARK    3  A    between atoms: C_5  and  O_69
REMARK    4  A    between atoms: C_7  and  O_68
REMARK    5  A    between atoms: C_8  and  O_11
REMARK    6  A    between atoms: O_11  and  C_12
REMARK    7  A    between atoms: C_14  and  O_67
REMARK    8  A    between atoms: C_19  and  C_59
REMARK    9  A    between atoms: C_20  and  O_23
REMARK   10  A    between atoms: O_23  and  C_24
REMARK   11  A    between atoms: C_26  and  O_37
REMARK   12  A    between atoms: C_27  and  O_36
REMARK   13  A    between atoms: C_29  and  O_35
REMARK   14  A    between atoms: C_31  and  C_33
REMARK   15  A    between atoms: C_33  and  O_34
REMARK   16  A    between atoms: O_37  and  C_38
REMARK   17  A    between atoms: C_40  and  O_58
REMARK   18  A    between atoms: C_41  and  O_49
REMARK   19  A    between atoms: C_42  and  O_48
REMARK   20  A    between atoms: C_44  and  C_46
REMARK   21  A    between atoms: C_46  and  O_47
REMARK   22  A    between atoms: O_49  and  C_50
REMARK   23  A    between atoms: C_50  and  C_52
REMARK   24  A    between atoms: C_61  and  O_66
REMARK   25  A    between atoms: C_62  and  O_65
REMARK                            x       y       z     vdW  Elec       q    Type
REMARK                         _______ _______ _______ _____ _____    ______ ____
ROOT
ATOM      1  C   UNL     1      10.342   0.673  24.070  0.00  0.00    +0.131 A 
ATOM      2  C   UNL     1       9.869  -0.428  23.347  0.00  0.00    +0.093 A 
ATOM      3  C   UNL     1       9.279  -1.526  23.997  0.00  0.00    +0.147 A 
ATOM      4  O   UNL     1       8.878  -2.582  23.213  0.00  0.00    -0.451 OA
ATOM      5  C   UNL     1       7.900  -3.425  23.729  0.00  0.00    +0.181 A 
ATOM      6  C   UNL     1       7.552  -3.507  25.034  0.00  0.00    +0.214 A 
ATOM      7  C   UNL     1       8.479  -2.771  25.960  0.00  0.00    +0.238 A 
ATOM      8  O   UNL     1       8.748  -3.187  27.075  0.00  0.00    -0.283 OA
ATOM      9  C   UNL     1       9.129  -1.559  25.378  0.00  0.00    +0.109 A 
ATOM     10  C   UNL     1       9.574  -0.446  26.104  0.00  0.00    +0.135 A 
ATOM     11  C   UNL     1      10.182   0.652  25.462  0.00  0.00    +0.092 A 
ENDROOT
BRANCH   5  12
ATOM     12  C   UNL     1       7.235  -4.265  22.697  0.00  0.00    +0.025 A 
ATOM     13  C   UNL     1       7.224  -5.661  22.807  0.00  0.00    +0.015 A 
ATOM     14  C   UNL     1       6.640  -6.437  21.794  0.00  0.00    +0.050 A 
ATOM     15  C   UNL     1       6.091  -5.809  20.685  0.00  0.00    +0.158 A 
ATOM     16  C   UNL     1       6.066  -4.423  20.596  0.00  0.00    +0.159 A 
ATOM     17  C   UNL     1       6.604  -3.649  21.605  0.00  0.00    +0.060 A 
BRANCH  16  18
ATOM     18  O   UNL     1       5.521  -3.860  19.474  0.00  0.00    -0.503 OA
ATOM     19  H   UNL     1       6.254  -3.568  18.900  0.00  0.00    +0.292 HD
ENDBRANCH  16  18
BRANCH  15  20
ATOM     20  O   UNL     1       5.587  -6.561  19.667  0.00  0.00    -0.503 OA
ATOM     21  H   UNL     1       4.644  -6.309  19.624  0.00  0.00    +0.292 HD
ENDBRANCH  15  20
ENDBRANCH   5  12
BRANCH  10  22
ATOM     22  O   UNL     1       9.383  -0.392  27.457  0.00  0.00    -0.506 OA
ATOM     23  H   UNL     1       8.894  -1.179  27.749  0.00  0.00    +0.292 HD
ENDBRANCH  10  22
BRANCH   6  24
ATOM     24  O   UNL     1       6.391  -4.193  25.396  0.00  0.00    -0.453 OA
BRANCH  24  25
ATOM     25  C   UNL     1       5.811  -4.280  26.720  0.00  0.00    +0.340 C 
ATOM     26  O   UNL     1       5.333  -5.642  26.922  0.00  0.00    -0.331 OA
ATOM     27  C   UNL     1       4.074  -5.911  27.574  0.00  0.00    +0.179 C 
ATOM     28  C   UNL     1       3.235  -4.713  28.031  0.00  0.00    +0.177 C 
ATOM     29  C   UNL     1       3.298  -3.663  26.937  0.00  0.00    +0.180 C 
ATOM     30  C   UNL     1       4.742  -3.135  26.905  0.00  0.00    +0.221 C 
BRANCH  28  31
ATOM     31  O   UNL     1       3.709  -4.189  29.278  0.00  0.00    -0.386 OA
ATOM     32  H   UNL     1       4.407  -3.538  29.070  0.00  0.00    +0.210 HD
ENDBRANCH  28  31
BRANCH  29  33
ATOM     33  O   UNL     1       2.853  -4.193  25.689  0.00  0.00    -0.386 OA
ATOM     34  H   UNL     1       1.994  -4.630  25.840  0.00  0.00    +0.210 HD
ENDBRANCH  29  33
BRANCH  30  35
ATOM     35  O   UNL     1       4.900  -1.987  26.037  0.00  0.00    -0.337 OA
BRANCH  35  36
ATOM     36  C   UNL     1       5.835  -0.964  26.463  0.00  0.00    +0.283 C 
ATOM     37  O   UNL     1       5.501  -0.575  27.812  0.00  0.00    -0.340 OA
ATOM     38  C   UNL     1       4.257   0.151  27.908  0.00  0.00    +0.179 C 
ATOM     39  C   UNL     1       4.289   1.453  27.063  0.00  0.00    +0.189 C 
ATOM     40  C   UNL     1       4.583   1.021  25.618  0.00  0.00    +0.241 C 
ATOM     41  C   UNL     1       5.945   0.322  25.571  0.00  0.00    +0.213 C 
BRANCH  41  42
ATOM     42  O   UNL     1       6.344   0.077  24.215  0.00  0.00    -0.383 OA
ATOM     43  H   UNL     1       6.032  -0.822  24.001  0.00  0.00    +0.210 HD
ENDBRANCH  41  42
BRANCH  39  44
ATOM     44  O   UNL     1       5.303   2.316  27.602  0.00  0.00    -0.385 OA
ATOM     45  H   UNL     1       5.004   3.248  27.520  0.00  0.00    +0.210 HD
ENDBRANCH  39  44
BRANCH  40  46
ATOM     46  O   UNL     1       4.389   1.984  24.546  0.00  0.00    -0.452 OA
BRANCH  46  47
ATOM     47  C   UNL     1       3.486   2.983  24.562  0.00  0.00    +0.340 C 
ATOM     48  O   UNL     1       2.280   2.841  24.654  0.00  0.00    -0.245 OA
BRANCH  47  49
ATOM     49  C   UNL     1       4.202   4.296  24.504  0.00  0.00    +0.059 A 
ATOM     50  C   UNL     1       4.321   5.133  25.626  0.00  0.00    +0.015 A 
ATOM     51  C   UNL     1       4.991   6.360  25.528  0.00  0.00    +0.001 A 
ATOM     52  C   UNL     1       5.537   6.762  24.313  0.00  0.00    +0.000 A 
ATOM     53  C   UNL     1       5.429   5.937  23.193  0.00  0.00    +0.001 A 
ATOM     54  C   UNL     1       4.773   4.703  23.290  0.00  0.00    +0.015 A 
ENDBRANCH  47  49
ENDBRANCH  46  47
ENDBRANCH  40  46
BRANCH  38  55
ATOM     55  C   UNL     1       3.936   0.425  29.381  0.00  0.00    +0.190 C 
BRANCH  55  56
ATOM     56  O   UNL     1       5.113   0.822  30.086  0.00  0.00    -0.392 OA
ATOM     57  H   UNL     1       5.505   1.558  29.585  0.00  0.00    +0.210 HD
ENDBRANCH  55  56
ENDBRANCH  38  55
ENDBRANCH  35  36
ENDBRANCH  30  35
BRANCH  27  58
ATOM     58  C   UNL     1       4.305  -6.881  28.738  0.00  0.00    +0.190 C 
BRANCH  58  59
ATOM     59  O   UNL     1       5.501  -7.624  28.509  0.00  0.00    -0.392 OA
ATOM     60  H   UNL     1       5.234  -8.562  28.582  0.00  0.00    +0.210 HD
ENDBRANCH  58  59
ENDBRANCH  27  58
ENDBRANCH  24  25
ENDBRANCH   6  24
BRANCH   1  61
ATOM     61  O   UNL     1      10.976   1.778  23.553  0.00  0.00    -0.461 OA
BRANCH  61  65
ATOM     62  C   UNL     1       8.271   4.436  25.474  0.00  0.00    +0.041 C 
ATOM     63  C   UNL     1       8.763   4.667  24.046  0.00  0.00    +0.150 C 
ATOM     64  O   UNL     1       9.323   3.462  23.503  0.00  0.00    -0.334 OA
ATOM     65  C   UNL     1      10.577   3.064  24.071  0.00  0.00    +0.339 C 
ATOM     66  C   UNL     1      11.617   4.160  23.723  0.00  0.00    +0.214 C 
ATOM     67  C   UNL     1      11.149   5.463  24.412  0.00  0.00    +0.180 C 
ATOM     68  C   UNL     1       9.735   5.855  23.938  0.00  0.00    +0.174 C 
BRANCH  66  69
ATOM     69  O   UNL     1      11.666   4.369  22.291  0.00  0.00    -0.383 OA
ATOM     70  H   UNL     1      11.233   3.597  21.881  0.00  0.00    +0.210 HD
ENDBRANCH  66  69
BRANCH  67  71
ATOM     71  O   UNL     1      12.087   6.525  24.214  0.00  0.00    -0.386 OA
ATOM     72  H   UNL     1      12.982   6.172  24.372  0.00  0.00    +0.210 HD
ENDBRANCH  67  71
BRANCH  68  73
ATOM     73  O   UNL     1       9.770   6.317  22.580  0.00  0.00    -0.387 OA
ATOM     74  H   UNL     1      10.701   6.567  22.391  0.00  0.00    +0.210 HD
ENDBRANCH  68  73
ENDBRANCH  61  65
ENDBRANCH   1  61
TORSDOF 24
ENDMDL
MODEL 4
REMARK VINA RESULT:      -6.4      1.249      2.033
REMARK  Name = 
REMARK  25 active torsions:
REMARK  status: ('A' for Active; 'I' for Inactive)
REMARK    1  A    between atoms: C_1  and  C_2
REMARK    2  A    between atoms: C_3  and  O_70
REMARK    3  A    between atoms: C_5  and  O_69
REMARK    4  A    between atoms: C_7  and  O_68
REMARK    5  A    between atoms: C_8  and  O_11
REMARK    6  A    between atoms: O_11  and  C_12
REMARK    7  A    between atoms: C_14  and  O_67
REMARK    8  A    between atoms: C_19  and  C_59
REMARK    9  A    between atoms: C_20  and  O_23
REMARK   10  A    between atoms: O_23  and  C_24
REMARK   11  A    between atoms: C_26  and  O_37
REMARK   12  A    between atoms: C_27  and  O_36
REMARK   13  A    between atoms: C_29  and  O_35
REMARK   14  A    between atoms: C_31  and  C_33
REMARK   15  A    between atoms: C_33  and  O_34
REMARK   16  A    between atoms: O_37  and  C_38
REMARK   17  A    between atoms: C_40  and  O_58
REMARK   18  A    between atoms: C_41  and  O_49
REMARK   19  A    between atoms: C_42  and  O_48
REMARK   20  A    between atoms: C_44  and  C_46
REMARK   21  A    between atoms: C_46  and  O_47
REMARK   22  A    between atoms: O_49  and  C_50
REMARK   23  A    between atoms: C_50  and  C_52
REMARK   24  A    between atoms: C_61  and  O_66
REMARK   25  A    between atoms: C_62  and  O_65
REMARK                            x       y       z     vdW  Elec       q    Type
REMARK                         _______ _______ _______ _____ _____    ______ ____
ROOT
ATOM      1  C   UNL     1       4.731   2.519  25.683  0.00  0.00    +0.131 A 
ATOM      2  C   UNL     1       5.720   1.538  25.821  0.00  0.00    +0.093 A 
ATOM      3  C   UNL     1       5.503   0.392  26.606  0.00  0.00    +0.147 A 
ATOM      4  O   UNL     1       6.542  -0.501  26.718  0.00  0.00    -0.451 OA
ATOM      5  C   UNL     1       6.225  -1.811  27.060  0.00  0.00    +0.181 A 
ATOM      6  C   UNL     1       5.055  -2.210  27.611  0.00  0.00    +0.214 A 
ATOM      7  C   UNL     1       4.175  -1.078  28.061  0.00  0.00    +0.238 A 
ATOM      8  O   UNL     1       3.478  -1.155  29.060  0.00  0.00    -0.283 OA
ATOM      9  C   UNL     1       4.298   0.179  27.264  0.00  0.00    +0.109 A 
ATOM     10  C   UNL     1       3.294   1.144  27.105  0.00  0.00    +0.135 A 
ATOM     11  C   UNL     1       3.508   2.304  26.334  0.00  0.00    +0.092 A 
ENDROOT
BRANCH   5  12
ATOM     12  C   UNL     1       7.310  -2.782  26.762  0.00  0.00    +0.025 A 
ATOM     13  C   UNL     1       8.497  -2.366  26.146  0.00  0.00    +0.015 A 
ATOM     14  C   UNL     1       9.486  -3.307  25.823  0.00  0.00    +0.050 A 
ATOM     15  C   UNL     1       9.268  -4.649  26.106  0.00  0.00    +0.158 A 
ATOM     16  C   UNL     1       8.107  -5.056  26.753  0.00  0.00    +0.159 A 
ATOM     17  C   UNL     1       7.146  -4.132  27.110  0.00  0.00    +0.060 A 
BRANCH  16  18
ATOM     18  O   UNL     1       7.943  -6.392  26.997  0.00  0.00    -0.503 OA
ATOM     19  H   UNL     1       7.131  -6.681  26.539  0.00  0.00    +0.292 HD
ENDBRANCH  16  18
BRANCH  15  20
ATOM     20  O   UNL     1      10.193  -5.575  25.730  0.00  0.00    -0.503 OA
ATOM     21  H   UNL     1      10.749  -5.108  25.074  0.00  0.00    +0.292 HD
ENDBRANCH  15  20
ENDBRANCH   5  12
BRANCH  10  22
ATOM     22  O   UNL     1       2.063   0.948  27.668  0.00  0.00    -0.506 OA
ATOM     23  H   UNL     1       2.168   0.601  28.569  0.00  0.00    +0.292 HD
ENDBRANCH  10  22
BRANCH   6  24
ATOM     24  O   UNL     1       4.751  -3.571  27.671  0.00  0.00    -0.453 OA
BRANCH  24  25
ATOM     25  C   UNL     1       3.532  -4.209  27.219  0.00  0.00    +0.340 C 
ATOM     26  O   UNL     1       3.012  -5.028  28.308  0.00  0.00    -0.331 OA
ATOM     27  C   UNL     1       2.461  -6.340  28.068  0.00  0.00    +0.179 C 
ATOM     28  C   UNL     1       2.460  -6.864  26.627  0.00  0.00    +0.177 C 
ATOM     29  C   UNL     1       3.789  -6.488  26.000  0.00  0.00    +0.180 C 
ATOM     30  C   UNL     1       3.801  -4.957  25.856  0.00  0.00    +0.221 C 
BRANCH  28  31
ATOM     31  O   UNL     1       1.363  -6.324  25.878  0.00  0.00    -0.386 OA
ATOM     32  H   UNL     1       1.736  -5.939  25.060  0.00  0.00    +0.210 HD
ENDBRANCH  28  31
BRANCH  29  33
ATOM     33  O   UNL     1       4.881  -7.001  26.763  0.00  0.00    -0.386 OA
ATOM     34  H   UNL     1       5.574  -6.315  26.789  0.00  0.00    +0.210 HD
ENDBRANCH  29  33
BRANCH  30  35
ATOM     35  O   UNL     1       4.932  -4.473  25.092  0.00  0.00    -0.337 OA
BRANCH  35  36
ATOM     36  C   UNL     1       4.665  -4.003  23.747  0.00  0.00    +0.283 C 
ATOM     37  O   UNL     1       5.065  -5.030  22.817  0.00  0.00    -0.340 OA
ATOM     38  C   UNL     1       6.495  -5.216  22.750  0.00  0.00    +0.179 C 
ATOM     39  C   UNL     1       7.221  -3.913  22.317  0.00  0.00    +0.189 C 
ATOM     40  C   UNL     1       6.836  -2.843  23.349  0.00  0.00    +0.241 C 
ATOM     41  C   UNL     1       5.318  -2.642  23.322  0.00  0.00    +0.213 C 
BRANCH  41  42
ATOM     42  O   UNL     1       4.940  -1.518  24.129  0.00  0.00    -0.383 OA
ATOM     43  H   UNL     1       4.937  -1.837  25.051  0.00  0.00    +0.210 HD
ENDBRANCH  41  42
BRANCH  39  44
ATOM     44  O   UNL     1       6.794  -3.580  20.986  0.00  0.00    -0.385 OA
ATOM     45  H   UNL     1       5.925  -3.124  21.035  0.00  0.00    +0.210 HD
ENDBRANCH  39  44
BRANCH  40  46
ATOM     46  O   UNL     1       7.584  -1.597  23.379  0.00  0.00    -0.452 OA
BRANCH  46  47
ATOM     47  C   UNL     1       8.699  -1.350  22.663  0.00  0.00    +0.340 C 
ATOM     48  O   UNL     1       9.204  -2.114  21.860  0.00  0.00    -0.245 OA
BRANCH  47  49
ATOM     49  C   UNL     1       9.187   0.030  22.970  0.00  0.00    +0.059 A 
ATOM     50  C   UNL     1       9.034   0.612  24.240  0.00  0.00    +0.015 A 
ATOM     51  C   UNL     1       9.496   1.912  24.485  0.00  0.00    +0.001 A 
ATOM     52  C   UNL     1      10.104   2.641  23.467  0.00  0.00    +0.000 A 
ATOM     53  C   UNL     1      10.265   2.072  22.203  0.00  0.00    +0.001 A 
ATOM     54  C   UNL     1       9.818   0.767  21.958  0.00  0.00    +0.015 A 
ENDBRANCH  47  49
ENDBRANCH  46  47
ENDBRANCH  40  46
BRANCH  38  55
ATOM     55  C   UNL     1       6.816  -6.392  21.822  0.00  0.00    +0.190 C 
BRANCH  55  56
ATOM     56  O   UNL     1       5.944  -6.392  20.691  0.00  0.00    -0.392 OA
ATOM     57  H   UNL     1       6.164  -5.602  20.167  0.00  0.00    +0.210 HD
ENDBRANCH  55  56
ENDBRANCH  38  55
ENDBRANCH  35  36
ENDBRANCH  30  35
BRANCH  27  58
ATOM     58  C   UNL     1       1.054  -6.415  28.669  0.00  0.00    +0.190 C 
BRANCH  58  59
ATOM     59  O   UNL     1       1.145  -6.465  30.092  0.00  0.00    -0.392 OA
ATOM     60  H   UNL     1       0.219  -6.470  30.405  0.00  0.00    +0.210 HD
ENDBRANCH  58  59
ENDBRANCH  27  58
ENDBRANCH  24  25
ENDBRANCH   6  24
BRANCH   1  61
ATOM     61  O   UNL     1       4.842   3.699  24.985  0.00  0.00    -0.461 OA
BRANCH  61  65
ATOM     62  C   UNL     1       0.854   3.302  23.569  0.00  0.00    +0.041 C 
ATOM     63  C   UNL     1       2.061   3.220  22.636  0.00  0.00    +0.150 C 
ATOM     64  O   UNL     1       3.263   2.983  23.384  0.00  0.00    -0.334 OA
ATOM     65  C   UNL     1       3.714   4.089  24.176  0.00  0.00    +0.339 C 
ATOM     66  C   UNL     1       4.087   5.238  23.204  0.00  0.00    +0.214 C 
ATOM     67  C   UNL     1       2.791   5.649  22.468  0.00  0.00    +0.180 C 
ATOM     68  C   UNL     1       2.185   4.446  21.715  0.00  0.00    +0.174 C 
BRANCH  66  69
ATOM     69  O   UNL     1       5.060   4.780  22.235  0.00  0.00    -0.383 OA
ATOM     70  H   UNL     1       4.563   4.542  21.430  0.00  0.00    +0.210 HD
ENDBRANCH  66  69
BRANCH  67  71
ATOM     71  O   UNL     1       3.013   6.761  21.597  0.00  0.00    -0.386 OA
ATOM     72  H   UNL     1       3.192   7.546  22.148  0.00  0.00    +0.210 HD
ENDBRANCH  67  71
BRANCH  68  73
ATOM     73  O   UNL     1       2.992   4.107  20.579  0.00  0.00    -0.387 OA
ATOM     74  H   UNL     1       2.441   3.531  20.003  0.00  0.00    +0.210 HD
ENDBRANCH  68  73
ENDBRANCH  61  65
ENDBRANCH   1  61
TORSDOF 24
ENDMDL
MODEL 5
REMARK VINA RESULT:      -5.7      2.562      9.581
REMARK  Name = 
REMARK  25 active torsions:
REMARK  status: ('A' for Active; 'I' for Inactive)
REMARK    1  A    between atoms: C_1  and  C_2
REMARK    2  A    between atoms: C_3  and  O_70
REMARK    3  A    between atoms: C_5  and  O_69
REMARK    4  A    between atoms: C_7  and  O_68
REMARK    5  A    between atoms: C_8  and  O_11
REMARK    6  A    between atoms: O_11  and  C_12
REMARK    7  A    between atoms: C_14  and  O_67
REMARK    8  A    between atoms: C_19  and  C_59
REMARK    9  A    between atoms: C_20  and  O_23
REMARK   10  A    between atoms: O_23  and  C_24
REMARK   11  A    between atoms: C_26  and  O_37
REMARK   12  A    between atoms: C_27  and  O_36
REMARK   13  A    between atoms: C_29  and  O_35
REMARK   14  A    between atoms: C_31  and  C_33
REMARK   15  A    between atoms: C_33  and  O_34
REMARK   16  A    between atoms: O_37  and  C_38
REMARK   17  A    between atoms: C_40  and  O_58
REMARK   18  A    between atoms: C_41  and  O_49
REMARK   19  A    between atoms: C_42  and  O_48
REMARK   20  A    between atoms: C_44  and  C_46
REMARK   21  A    between atoms: C_46  and  O_47
REMARK   22  A    between atoms: O_49  and  C_50
REMARK   23  A    between atoms: C_50  and  C_52
REMARK   24  A    between atoms: C_61  and  O_66
REMARK   25  A    between atoms: C_62  and  O_65
REMARK                            x       y       z     vdW  Elec       q    Type
REMARK                         _______ _______ _______ _____ _____    ______ ____
ROOT
ATOM      1  C   UNL     1       4.544  -4.999  25.310  0.00  0.00    +0.131 A 
ATOM      2  C   UNL     1       5.254  -4.088  24.519  0.00  0.00    +0.093 A 
ATOM      3  C   UNL     1       5.258  -2.714  24.818  0.00  0.00    +0.147 A 
ATOM      4  O   UNL     1       5.950  -1.886  23.966  0.00  0.00    -0.451 OA
ATOM      5  C   UNL     1       6.368  -0.659  24.467  0.00  0.00    +0.181 A 
ATOM      6  C   UNL     1       5.880  -0.067  25.583  0.00  0.00    +0.214 A 
ATOM      7  C   UNL     1       4.654  -0.732  26.141  0.00  0.00    +0.238 A 
ATOM      8  O   UNL     1       3.751  -0.098  26.662  0.00  0.00    -0.283 OA
ATOM      9  C   UNL     1       4.572  -2.206  25.914  0.00  0.00    +0.109 A 
ATOM     10  C   UNL     1       3.883  -3.118  26.726  0.00  0.00    +0.135 A 
ATOM     11  C   UNL     1       3.860  -4.494  26.425  0.00  0.00    +0.092 A 
ENDROOT
BRANCH   5  12
ATOM     12  C   UNL     1       7.434  -0.017  23.655  0.00  0.00    +0.025 A 
ATOM     13  C   UNL     1       8.776  -0.388  23.808  0.00  0.00    +0.015 A 
ATOM     14  C   UNL     1       9.773   0.268  23.072  0.00  0.00    +0.050 A 
ATOM     15  C   UNL     1       9.417   1.294  22.207  0.00  0.00    +0.158 A 
ATOM     16  C   UNL     1       8.082   1.635  22.024  0.00  0.00    +0.159 A 
ATOM     17  C   UNL     1       7.091   0.968  22.716  0.00  0.00    +0.060 A 
BRANCH  16  18
ATOM     18  O   UNL     1       7.793   2.660  21.166  0.00  0.00    -0.503 OA
ATOM     19  H   UNL     1       7.542   2.269  20.308  0.00  0.00    +0.292 HD
ENDBRANCH  16  18
BRANCH  15  20
ATOM     20  O   UNL     1      10.388   1.982  21.543  0.00  0.00    -0.503 OA
ATOM     21  H   UNL     1      10.145   2.921  21.666  0.00  0.00    +0.292 HD
ENDBRANCH  15  20
ENDBRANCH   5  12
BRANCH  10  22
ATOM     22  O   UNL     1       3.254  -2.683  27.859  0.00  0.00    -0.506 OA
ATOM     23  H   UNL     1       2.367  -2.355  27.635  0.00  0.00    +0.292 HD
ENDBRANCH  10  22
BRANCH   6  24
ATOM     24  O   UNL     1       6.549   1.031  26.128  0.00  0.00    -0.453 OA
BRANCH  24  25
ATOM     25  C   UNL     1       6.469   2.406  25.682  0.00  0.00    +0.340 C 
ATOM     26  O   UNL     1       7.811   2.851  25.326  0.00  0.00    -0.331 OA
ATOM     27  C   UNL     1       8.286   4.168  25.676  0.00  0.00    +0.179 C 
ATOM     28  C   UNL     1       7.340   5.086  26.460  0.00  0.00    +0.177 C 
ATOM     29  C   UNL     1       6.647   4.240  27.511  0.00  0.00    +0.180 C 
ATOM     30  C   UNL     1       5.715   3.271  26.765  0.00  0.00    +0.221 C 
BRANCH  28  31
ATOM     31  O   UNL     1       6.389   5.717  25.593  0.00  0.00    -0.386 OA
ATOM     32  H   UNL     1       6.036   6.494  26.070  0.00  0.00    +0.210 HD
ENDBRANCH  28  31
BRANCH  29  33
ATOM     33  O   UNL     1       7.595   3.589  28.356  0.00  0.00    -0.386 OA
ATOM     34  H   UNL     1       8.241   4.259  28.650  0.00  0.00    +0.210 HD
ENDBRANCH  29  33
BRANCH  30  35
ATOM     35  O   UNL     1       4.843   2.534  27.656  0.00  0.00    -0.337 OA
BRANCH  35  36
ATOM     36  C   UNL     1       3.912   3.306  28.454  0.00  0.00    +0.283 C 
ATOM     37  O   UNL     1       3.251   2.414  29.375  0.00  0.00    -0.340 OA
ATOM     38  C   UNL     1       2.343   1.496  28.730  0.00  0.00    +0.179 C 
ATOM     39  C   UNL     1       1.226   2.246  27.956  0.00  0.00    +0.189 C 
ATOM     40  C   UNL     1       1.940   3.147  26.937  0.00  0.00    +0.241 C 
ATOM     41  C   UNL     1       2.831   4.143  27.685  0.00  0.00    +0.213 C 
BRANCH  41  42
ATOM     42  O   UNL     1       3.363   5.125  26.784  0.00  0.00    -0.383 OA
ATOM     43  H   UNL     1       3.017   5.985  27.088  0.00  0.00    +0.210 HD
ENDBRANCH  41  42
BRANCH  39  44
ATOM     44  O   UNL     1       0.443   2.991  28.903  0.00  0.00    -0.385 OA
ATOM     45  H   UNL     1       0.404   2.491  29.747  0.00  0.00    +0.210 HD
ENDBRANCH  39  44
BRANCH  40  46
ATOM     46  O   UNL     1       1.159   3.756  25.872  0.00  0.00    -0.452 OA
BRANCH  46  47
ATOM     47  C   UNL     1       1.163   3.354  24.586  0.00  0.00    +0.340 C 
ATOM     48  O   UNL     1       0.576   2.380  24.151  0.00  0.00    -0.245 OA
BRANCH  47  49
ATOM     49  C   UNL     1       1.960   4.321  23.769  0.00  0.00    +0.059 A 
ATOM     50  C   UNL     1       3.151   3.951  23.123  0.00  0.00    +0.015 A 
ATOM     51  C   UNL     1       3.874   4.890  22.375  0.00  0.00    +0.001 A 
ATOM     52  C   UNL     1       3.420   6.201  22.274  0.00  0.00    +0.000 A 
ATOM     53  C   UNL     1       2.236   6.579  22.907  0.00  0.00    +0.001 A 
ATOM     54  C   UNL     1       1.502   5.641  23.644  0.00  0.00    +0.015 A 
ENDBRANCH  47  49
ENDBRANCH  46  47
ENDBRANCH  40  46
BRANCH  38  55
ATOM     55  C   UNL     1       1.774   0.524  29.768  0.00  0.00    +0.190 C 
BRANCH  55  56
ATOM     56  O   UNL     1       1.888  -0.824  29.310  0.00  0.00    -0.392 OA
ATOM     57  H   UNL     1       1.014  -1.078  28.966  0.00  0.00    +0.210 HD
ENDBRANCH  55  56
ENDBRANCH  38  55
ENDBRANCH  35  36
ENDBRANCH  30  35
BRANCH  27  58
ATOM     58  C   UNL     1       8.796   4.873  24.414  0.00  0.00    +0.190 C 
BRANCH  58  59
ATOM     59  O   UNL     1       7.849   4.709  23.361  0.00  0.00    -0.392 OA
ATOM     60  H   UNL     1       8.343   4.913  22.542  0.00  0.00    +0.210 HD
ENDBRANCH  58  59
ENDBRANCH  27  58
ENDBRANCH  24  25
ENDBRANCH   6  24
BRANCH   1  61
ATOM     61  O   UNL     1       4.427  -6.352  25.093  0.00  0.00    -0.461 OA
BRANCH  61  65
ATOM     62  C   UNL     1       1.105  -8.949  25.632  0.00  0.00    +0.041 C 
ATOM     63  C   UNL     1       1.890  -8.892  24.322  0.00  0.00    +0.150 C 
ATOM     64  O   UNL     1       3.164  -8.263  24.523  0.00  0.00    -0.334 OA
ATOM     65  C   UNL     1       3.113  -6.851  24.772  0.00  0.00    +0.339 C 
ATOM     66  C   UNL     1       2.547  -6.173  23.497  0.00  0.00    +0.214 C 
ATOM     67  C   UNL     1       1.104  -6.698  23.307  0.00  0.00    +0.180 C 
ATOM     68  C   UNL     1       1.094  -8.235  23.181  0.00  0.00    +0.174 C 
BRANCH  66  69
ATOM     69  O   UNL     1       3.341  -6.533  22.342  0.00  0.00    -0.383 OA
ATOM     70  H   UNL     1       2.755  -6.458  21.565  0.00  0.00    +0.210 HD
ENDBRANCH  66  69
BRANCH  67  71
ATOM     71  O   UNL     1       0.462  -6.071  22.194  0.00  0.00    -0.386 OA
ATOM     72  H   UNL     1       0.455  -6.704  21.453  0.00  0.00    +0.210 HD
ENDBRANCH  67  71
BRANCH  68  73
ATOM     73  O   UNL     1       1.649  -8.639  21.922  0.00  0.00    -0.387 OA
ATOM     74  H   UNL     1       2.219  -9.420  22.101  0.00  0.00    +0.210 HD
ENDBRANCH  68  73
ENDBRANCH  61  65
ENDBRANCH   1  61
TORSDOF 24
ENDMDL
MODEL 6
REMARK VINA RESULT:      -5.4      2.548      9.180
REMARK  Name = 
REMARK  25 active torsions:
REMARK  status: ('A' for Active; 'I' for Inactive)
REMARK    1  A    between atoms: C_1  and  C_2
REMARK    2  A    between atoms: C_3  and  O_70
REMARK    3  A    between atoms: C_5  and  O_69
REMARK    4  A    between atoms: C_7  and  O_68
REMARK    5  A    between atoms: C_8  and  O_11
REMARK    6  A    between atoms: O_11  and  C_12
REMARK    7  A    between atoms: C_14  and  O_67
REMARK    8  A    between atoms: C_19  and  C_59
REMARK    9  A    between atoms: C_20  and  O_23
REMARK   10  A    between atoms: O_23  and  C_24
REMARK   11  A    between atoms: C_26  and  O_37
REMARK   12  A    between atoms: C_27  and  O_36
REMARK   13  A    between atoms: C_29  and  O_35
REMARK   14  A    between atoms: C_31  and  C_33
REMARK   15  A    between atoms: C_33  and  O_34
REMARK   16  A    between atoms: O_37  and  C_38
REMARK   17  A    between atoms: C_40  and  O_58
REMARK   18  A    between atoms: C_41  and  O_49
REMARK   19  A    between atoms: C_42  and  O_48
REMARK   20  A    between atoms: C_44  and  C_46
REMARK   21  A    between atoms: C_46  and  O_47
REMARK   22  A    between atoms: O_49  and  C_50
REMARK   23  A    between atoms: C_50  and  C_52
REMARK   24  A    between atoms: C_61  and  O_66
REMARK   25  A    between atoms: C_62  and  O_65
REMARK                            x       y       z     vdW  Elec       q    Type
REMARK                         _______ _______ _______ _____ _____    ______ ____
ROOT
ATOM      1  C   UNL     1       8.906  -0.470  24.347  0.00  0.00    +0.131 A 
ATOM      2  C   UNL     1       8.954   0.677  25.148  0.00  0.00    +0.093 A 
ATOM      3  C   UNL     1       8.175   1.808  24.845  0.00  0.00    +0.147 A 
ATOM      4  O   UNL     1       8.313   2.905  25.662  0.00  0.00    -0.451 OA
ATOM      5  C   UNL     1       7.262   3.815  25.692  0.00  0.00    +0.181 A 
ATOM      6  C   UNL     1       6.281   3.903  24.764  0.00  0.00    +0.214 A 
ATOM      7  C   UNL     1       6.531   3.080  23.532  0.00  0.00    +0.238 A 
ATOM      8  O   UNL     1       6.192   3.454  22.421  0.00  0.00    -0.283 OA
ATOM      9  C   UNL     1       7.318   1.829  23.751  0.00  0.00    +0.109 A 
ATOM     10  C   UNL     1       7.244   0.672  22.964  0.00  0.00    +0.135 A 
ATOM     11  C   UNL     1       8.034  -0.460  23.250  0.00  0.00    +0.092 A 
ENDROOT
BRANCH   5  12
ATOM     12  C   UNL     1       7.296   4.722  26.870  0.00  0.00    +0.025 A 
ATOM     13  C   UNL     1       7.868   5.997  26.777  0.00  0.00    +0.015 A 
ATOM     14  C   UNL     1       7.939   6.816  27.914  0.00  0.00    +0.050 A 
ATOM     15  C   UNL     1       7.453   6.345  29.126  0.00  0.00    +0.158 A 
ATOM     16  C   UNL     1       6.848   5.096  29.208  0.00  0.00    +0.159 A 
ATOM     17  C   UNL     1       6.739   4.298  28.086  0.00  0.00    +0.060 A 
BRANCH  16  18
ATOM     18  O   UNL     1       6.396   4.680  30.430  0.00  0.00    -0.503 OA
ATOM     19  H   UNL     1       5.497   4.323  30.310  0.00  0.00    +0.292 HD
ENDBRANCH  16  18
BRANCH  15  20
ATOM     20  O   UNL     1       7.585   7.107  30.246  0.00  0.00    -0.503 OA
ATOM     21  H   UNL     1       6.708   7.526  30.358  0.00  0.00    +0.292 HD
ENDBRANCH  15  20
ENDBRANCH   5  12
BRANCH  10  22
ATOM     22  O   UNL     1       6.362   0.611  21.921  0.00  0.00    -0.506 OA
ATOM     23  H   UNL     1       6.694   1.146  21.181  0.00  0.00    +0.292 HD
ENDBRANCH  10  22
BRANCH   6  24
ATOM     24  O   UNL     1       5.148   4.673  25.031  0.00  0.00    -0.453 OA
BRANCH  24  25
ATOM     25  C   UNL     1       3.791   4.397  24.606  0.00  0.00    +0.340 C 
ATOM     26  O   UNL     1       3.129   5.667  24.331  0.00  0.00    -0.331 OA
ATOM     27  C   UNL     1       1.764   5.908  24.730  0.00  0.00    +0.179 C 
ATOM     28  C   UNL     1       1.029   4.790  25.479  0.00  0.00    +0.177 C 
ATOM     29  C   UNL     1       2.001   4.187  26.475  0.00  0.00    +0.180 C 
ATOM     30  C   UNL     1       3.085   3.462  25.662  0.00  0.00    +0.221 C 
BRANCH  28  31
ATOM     31  O   UNL     1       0.533   3.795  24.573  0.00  0.00    -0.386 OA
ATOM     32  H   UNL     1      -0.443   3.834  24.608  0.00  0.00    +0.210 HD
ENDBRANCH  28  31
BRANCH  29  33
ATOM     33  O   UNL     1       2.516   5.184  27.359  0.00  0.00    -0.386 OA
ATOM     34  H   UNL     1       3.323   5.553  26.953  0.00  0.00    +0.210 HD
ENDBRANCH  29  33
BRANCH  30  35
ATOM     35  O   UNL     1       3.975   2.674  26.490  0.00  0.00    -0.337 OA
BRANCH  35  36
ATOM     36  C   UNL     1       3.397   2.038  27.657  0.00  0.00    +0.283 C 
ATOM     37  O   UNL     1       4.427   1.898  28.657  0.00  0.00    -0.340 OA
ATOM     38  C   UNL     1       5.440   0.931  28.306  0.00  0.00    +0.179 C 
ATOM     39  C   UNL     1       4.830  -0.481  28.093  0.00  0.00    +0.189 C 
ATOM     40  C   UNL     1       3.778  -0.333  26.983  0.00  0.00    +0.241 C 
ATOM     41  C   UNL     1       2.697   0.650  27.444  0.00  0.00    +0.213 C 
BRANCH  41  42
ATOM     42  O   UNL     1       1.600   0.668  26.520  0.00  0.00    -0.383 OA
ATOM     43  H   UNL     1       1.807  -0.003  25.843  0.00  0.00    +0.210 HD
ENDBRANCH  41  42
BRANCH  39  44
ATOM     44  O   UNL     1       4.265  -0.922  29.338  0.00  0.00    -0.385 OA
ATOM     45  H   UNL     1       4.387  -1.893  29.418  0.00  0.00    +0.210 HD
ENDBRANCH  39  44
BRANCH  40  46
ATOM     46  O   UNL     1       3.242  -1.532  26.361  0.00  0.00    -0.452 OA
BRANCH  46  47
ATOM     47  C   UNL     1       2.803  -2.616  27.030  0.00  0.00    +0.340 C 
ATOM     48  O   UNL     1       2.219  -2.596  28.098  0.00  0.00    -0.245 OA
BRANCH  47  49
ATOM     49  C   UNL     1       3.098  -3.844  26.227  0.00  0.00    +0.059 A 
ATOM     50  C   UNL     1       3.600  -5.018  26.814  0.00  0.00    +0.015 A 
ATOM     51  C   UNL     1       3.874  -6.144  26.026  0.00  0.00    +0.001 A 
ATOM     52  C   UNL     1       3.658  -6.104  24.652  0.00  0.00    +0.000 A 
ATOM     53  C   UNL     1       3.155  -4.946  24.059  0.00  0.00    +0.001 A 
ATOM     54  C   UNL     1       2.866  -3.822  24.844  0.00  0.00    +0.015 A 
ENDBRANCH  47  49
ENDBRANCH  46  47
ENDBRANCH  40  46
BRANCH  38  55
ATOM     55  C   UNL     1       6.540   0.930  29.372  0.00  0.00    +0.190 C 
BRANCH  55  56
ATOM     56  O   UNL     1       7.829   1.021  28.762  0.00  0.00    -0.392 OA
ATOM     57  H   UNL     1       7.754   0.607  27.885  0.00  0.00    +0.210 HD
ENDBRANCH  55  56
ENDBRANCH  38  55
ENDBRANCH  35  36
ENDBRANCH  30  35
BRANCH  27  58
ATOM     58  C   UNL     1       0.953   6.363  23.512  0.00  0.00    +0.190 C 
BRANCH  58  59
ATOM     59  O   UNL     1       1.284   5.547  22.389  0.00  0.00    -0.392 OA
ATOM     60  H   UNL     1       2.235   5.710  22.229  0.00  0.00    +0.210 HD
ENDBRANCH  58  59
ENDBRANCH  27  58
ENDBRANCH  24  25
ENDBRANCH   6  24
BRANCH   1  61
ATOM     61  O   UNL     1       9.651  -1.614  24.513  0.00  0.00    -0.461 OA
BRANCH  61  65
ATOM     62  C   UNL     1       6.493  -4.078  23.091  0.00  0.00    +0.041 C 
ATOM     63  C   UNL     1       6.785  -3.908  24.581  0.00  0.00    +0.150 C 
ATOM     64  O   UNL     1       7.604  -2.751  24.807  0.00  0.00    -0.334 OA
ATOM     65  C   UNL     1       8.962  -2.871  24.363  0.00  0.00    +0.339 C 
ATOM     66  C   UNL     1       9.632  -3.987  25.206  0.00  0.00    +0.214 C 
ATOM     67  C   UNL     1       8.887  -5.305  24.890  0.00  0.00    +0.180 C 
ATOM     68  C   UNL     1       7.385  -5.175  25.217  0.00  0.00    +0.174 C 
BRANCH  66  69
ATOM     69  O   UNL     1       9.505  -3.694  26.618  0.00  0.00    -0.383 OA
ATOM     70  H   UNL     1       9.741  -2.754  26.731  0.00  0.00    +0.210 HD
ENDBRANCH  66  69
BRANCH  67  71
ATOM     71  O   UNL     1       9.481  -6.417  25.564  0.00  0.00    -0.386 OA
ATOM     72  H   UNL     1       9.892  -6.089  26.385  0.00  0.00    +0.210 HD
ENDBRANCH  67  71
BRANCH  68  73
ATOM     73  O   UNL     1       7.182  -5.135  26.636  0.00  0.00    -0.387 OA
ATOM     74  H   UNL     1       6.548  -5.855  26.852  0.00  0.00    +0.210 HD
ENDBRANCH  68  73
ENDBRANCH  61  65
ENDBRANCH   1  61
TORSDOF 24
ENDMDL
MODEL 7
REMARK VINA RESULT:      -5.3      2.042      5.857
REMARK  Name = 
REMARK  25 active torsions:
REMARK  status: ('A' for Active; 'I' for Inactive)
REMARK    1  A    between atoms: C_1  and  C_2
REMARK    2  A    between atoms: C_3  and  O_70
REMARK    3  A    between atoms: C_5  and  O_69
REMARK    4  A    between atoms: C_7  and  O_68
REMARK    5  A    between atoms: C_8  and  O_11
REMARK    6  A    between atoms: O_11  and  C_12
REMARK    7  A    between atoms: C_14  and  O_67
REMARK    8  A    between atoms: C_19  and  C_59
REMARK    9  A    between atoms: C_20  and  O_23
REMARK   10  A    between atoms: O_23  and  C_24
REMARK   11  A    between atoms: C_26  and  O_37
REMARK   12  A    between atoms: C_27  and  O_36
REMARK   13  A    between atoms: C_29  and  O_35
REMARK   14  A    between atoms: C_31  and  C_33
REMARK   15  A    between atoms: C_33  and  O_34
REMARK   16  A    between atoms: O_37  and  C_38
REMARK   17  A    between atoms: C_40  and  O_58
REMARK   18  A    between atoms: C_41  and  O_49
REMARK   19  A    between atoms: C_42  and  O_48
REMARK   20  A    between atoms: C_44  and  C_46
REMARK   21  A    between atoms: C_46  and  O_47
REMARK   22  A    between atoms: O_49  and  C_50
REMARK   23  A    between atoms: C_50  and  C_52
REMARK   24  A    between atoms: C_61  and  O_66
REMARK   25  A    between atoms: C_62  and  O_65
REMARK                            x       y       z     vdW  Elec       q    Type
REMARK                         _______ _______ _______ _____ _____    ______ ____
ROOT
ATOM      1  C   UNL     1       9.879   0.760  23.465  0.00  0.00    +0.131 A 
ATOM      2  C   UNL     1       9.348  -0.423  22.938  0.00  0.00    +0.093 A 
ATOM      3  C   UNL     1       8.947  -1.478  23.776  0.00  0.00    +0.147 A 
ATOM      4  O   UNL     1       8.473  -2.618  23.172  0.00  0.00    -0.451 OA
ATOM      5  C   UNL     1       7.652  -3.447  23.929  0.00  0.00    +0.181 A 
ATOM      6  C   UNL     1       7.548  -3.419  25.277  0.00  0.00    +0.214 A 
ATOM      7  C   UNL     1       8.581  -2.562  25.952  0.00  0.00    +0.238 A 
ATOM      8  O   UNL     1       9.068  -2.859  27.031  0.00  0.00    -0.283 OA
ATOM      9  C   UNL     1       9.047  -1.385  25.160  0.00  0.00    +0.109 A 
ATOM     10  C   UNL     1       9.551  -0.191  25.694  0.00  0.00    +0.135 A 
ATOM     11  C   UNL     1       9.971   0.865  24.860  0.00  0.00    +0.092 A 
ENDROOT
BRANCH   5  12
ATOM     12  C   UNL     1       6.864  -4.407  23.112  0.00  0.00    +0.025 A 
ATOM     13  C   UNL     1       7.473  -5.157  22.099  0.00  0.00    +0.015 A 
ATOM     14  C   UNL     1       6.701  -6.017  21.303  0.00  0.00    +0.050 A 
ATOM     15  C   UNL     1       5.333  -6.102  21.521  0.00  0.00    +0.158 A 
ATOM     16  C   UNL     1       4.734  -5.388  22.553  0.00  0.00    +0.159 A 
ATOM     17  C   UNL     1       5.493  -4.569  23.366  0.00  0.00    +0.060 A 
BRANCH  16  18
ATOM     18  O   UNL     1       3.381  -5.503  22.714  0.00  0.00    -0.503 OA
ATOM     19  H   UNL     1       3.022  -5.938  21.917  0.00  0.00    +0.292 HD
ENDBRANCH  16  18
BRANCH  15  20
ATOM     20  O   UNL     1       4.568  -6.880  20.705  0.00  0.00    -0.503 OA
ATOM     21  H   UNL     1       4.906  -7.786  20.850  0.00  0.00    +0.292 HD
ENDBRANCH  15  20
ENDBRANCH   5  12
BRANCH  10  22
ATOM     22  O   UNL     1       9.600  -0.017  27.049  0.00  0.00    -0.506 OA
ATOM     23  H   UNL     1      10.406  -0.428  27.402  0.00  0.00    +0.292 HD
ENDBRANCH  10  22
BRANCH   6  24
ATOM     24  O   UNL     1       6.511  -4.114  25.903  0.00  0.00    -0.453 OA
BRANCH  24  25
ATOM     25  C   UNL     1       6.157  -4.068  27.306  0.00  0.00    +0.340 C 
ATOM     26  O   UNL     1       5.813  -5.418  27.737  0.00  0.00    -0.331 OA
ATOM     27  C   UNL     1       4.696  -5.667  28.616  0.00  0.00    +0.179 C 
ATOM     28  C   UNL     1       3.859  -4.465  29.069  0.00  0.00    +0.177 C 
ATOM     29  C   UNL     1       3.675  -3.555  27.870  0.00  0.00    +0.180 C 
ATOM     30  C   UNL     1       5.055  -2.963  27.539  0.00  0.00    +0.221 C 
BRANCH  28  31
ATOM     31  O   UNL     1       4.489  -3.771  30.153  0.00  0.00    -0.386 OA
ATOM     32  H   UNL     1       5.254  -3.290  29.781  0.00  0.00    +0.210 HD
ENDBRANCH  28  31
BRANCH  29  33
ATOM     33  O   UNL     1       3.073  -4.254  26.780  0.00  0.00    -0.386 OA
ATOM     34  H   UNL     1       3.790  -4.619  26.229  0.00  0.00    +0.210 HD
ENDBRANCH  29  33
BRANCH  30  35
ATOM     35  O   UNL     1       4.993  -1.923  26.533  0.00  0.00    -0.337 OA
BRANCH  35  36
ATOM     36  C   UNL     1       5.921  -0.818  26.672  0.00  0.00    +0.283 C 
ATOM     37  O   UNL     1       5.897  -0.372  28.044  0.00  0.00    -0.340 OA
ATOM     38  C   UNL     1       4.662   0.276  28.415  0.00  0.00    +0.179 C 
ATOM     39  C   UNL     1       4.386   1.525  27.534  0.00  0.00    +0.189 C 
ATOM     40  C   UNL     1       4.352   1.028  26.081  0.00  0.00    +0.241 C 
ATOM     41  C   UNL     1       5.711   0.417  25.728  0.00  0.00    +0.213 C 
BRANCH  41  42
ATOM     42  O   UNL     1       5.785   0.119  24.326  0.00  0.00    -0.383 OA
ATOM     43  H   UNL     1       5.108  -0.564  24.160  0.00  0.00    +0.210 HD
ENDBRANCH  41  42
BRANCH  39  44
ATOM     44  O   UNL     1       5.430   2.482  27.770  0.00  0.00    -0.385 OA
ATOM     45  H   UNL     1       6.300   2.032  27.689  0.00  0.00    +0.210 HD
ENDBRANCH  39  44
BRANCH  40  46
ATOM     46  O   UNL     1       3.829   1.911  25.051  0.00  0.00    -0.452 OA
BRANCH  46  47
ATOM     47  C   UNL     1       2.750   2.705  25.192  0.00  0.00    +0.340 C 
ATOM     48  O   UNL     1       1.631   2.327  25.487  0.00  0.00    -0.245 OA
BRANCH  47  49
ATOM     49  C   UNL     1       3.156   4.130  24.982  0.00  0.00    +0.059 A 
ATOM     50  C   UNL     1       3.238   4.703  23.701  0.00  0.00    +0.015 A 
ATOM     51  C   UNL     1       3.632   6.039  23.546  0.00  0.00    +0.001 A 
ATOM     52  C   UNL     1       3.954   6.806  24.661  0.00  0.00    +0.000 A 
ATOM     53  C   UNL     1       3.871   6.250  25.938  0.00  0.00    +0.001 A 
ATOM     54  C   UNL     1       3.464   4.919  26.099  0.00  0.00    +0.015 A 
ENDBRANCH  47  49
ENDBRANCH  46  47
ENDBRANCH  40  46
BRANCH  38  55
ATOM     55  C   UNL     1       4.689   0.615  29.908  0.00  0.00    +0.190 C 
BRANCH  55  56
ATOM     56  O   UNL     1       5.975   1.108  30.288  0.00  0.00    -0.392 OA
ATOM     57  H   UNL     1       6.463   0.356  30.664  0.00  0.00    +0.210 HD
ENDBRANCH  55  56
ENDBRANCH  38  55
ENDBRANCH  35  36
ENDBRANCH  30  35
BRANCH  27  58
ATOM     58  C   UNL     1       5.175  -6.476  29.825  0.00  0.00    +0.190 C 
BRANCH  58  59
ATOM     59  O   UNL     1       6.443  -5.984  30.255  0.00  0.00    -0.392 OA
ATOM     60  H   UNL     1       7.041  -6.129  29.495  0.00  0.00    +0.210 HD
ENDBRANCH  58  59
ENDBRANCH  27  58
ENDBRANCH  24  25
ENDBRANCH   6  24
BRANCH   1  61
ATOM     61  O   UNL     1      10.348   1.836  22.748  0.00  0.00    -0.461 OA
BRANCH  61  65
ATOM     62  C   UNL     1       9.913   5.829  24.140  0.00  0.00    +0.041 C 
ATOM     63  C   UNL     1       8.949   4.716  24.546  0.00  0.00    +0.150 C 
ATOM     64  O   UNL     1       9.524   3.428  24.285  0.00  0.00    -0.334 OA
ATOM     65  C   UNL     1       9.636   3.081  22.898  0.00  0.00    +0.339 C 
ATOM     66  C   UNL     1       8.199   2.983  22.324  0.00  0.00    +0.214 C 
ATOM     67  C   UNL     1       7.568   4.391  22.436  0.00  0.00    +0.180 C 
ATOM     68  C   UNL     1       7.559   4.870  23.903  0.00  0.00    +0.174 C 
BRANCH  66  69
ATOM     69  O   UNL     1       7.413   2.045  23.097  0.00  0.00    -0.383 OA
ATOM     70  H   UNL     1       7.854   1.956  23.963  0.00  0.00    +0.210 HD
ENDBRANCH  66  69
BRANCH  67  71
ATOM     71  O   UNL     1       6.260   4.426  21.860  0.00  0.00    -0.386 OA
ATOM     72  H   UNL     1       6.321   4.082  20.949  0.00  0.00    +0.210 HD
ENDBRANCH  67  71
BRANCH  68  73
ATOM     73  O   UNL     1       6.598   4.130  24.667  0.00  0.00    -0.387 OA
ATOM     74  H   UNL     1       6.732   3.181  24.448  0.00  0.00    +0.210 HD
ENDBRANCH  68  73
ENDBRANCH  61  65
ENDBRANCH   1  61
TORSDOF 24
ENDMDL
MODEL 8
REMARK VINA RESULT:      -5.3      2.142      5.971
REMARK  Name = 
REMARK  25 active torsions:
REMARK  status: ('A' for Active; 'I' for Inactive)
REMARK    1  A    between atoms: C_1  and  C_2
REMARK    2  A    between atoms: C_3  and  O_70
REMARK    3  A    between atoms: C_5  and  O_69
REMARK    4  A    between atoms: C_7  and  O_68
REMARK    5  A    between atoms: C_8  and  O_11
REMARK    6  A    between atoms: O_11  and  C_12
REMARK    7  A    between atoms: C_14  and  O_67
REMARK    8  A    between atoms: C_19  and  C_59
REMARK    9  A    between atoms: C_20  and  O_23
REMARK   10  A    between atoms: O_23  and  C_24
REMARK   11  A    between atoms: C_26  and  O_37
REMARK   12  A    between atoms: C_27  and  O_36
REMARK   13  A    between atoms: C_29  and  O_35
REMARK   14  A    between atoms: C_31  and  C_33
REMARK   15  A    between atoms: C_33  and  O_34
REMARK   16  A    between atoms: O_37  and  C_38
REMARK   17  A    between atoms: C_40  and  O_58
REMARK   18  A    between atoms: C_41  and  O_49
REMARK   19  A    between atoms: C_42  and  O_48
REMARK   20  A    between atoms: C_44  and  C_46
REMARK   21  A    between atoms: C_46  and  O_47
REMARK   22  A    between atoms: O_49  and  C_50
REMARK   23  A    between atoms: C_50  and  C_52
REMARK   24  A    between atoms: C_61  and  O_66
REMARK   25  A    between atoms: C_62  and  O_65
REMARK                            x       y       z     vdW  Elec       q    Type
REMARK                         _______ _______ _______ _____ _____    ______ ____
ROOT
ATOM      1  C   UNL     1       8.683   2.706  23.961  0.00  0.00    +0.131 A 
ATOM      2  C   UNL     1       8.638   1.390  23.487  0.00  0.00    +0.093 A 
ATOM      3  C   UNL     1       8.199   0.336  24.307  0.00  0.00    +0.147 A 
ATOM      4  O   UNL     1       8.224  -0.931  23.773  0.00  0.00    -0.451 OA
ATOM      5  C   UNL     1       7.384  -1.881  24.343  0.00  0.00    +0.181 A 
ATOM      6  C   UNL     1       6.803  -1.777  25.561  0.00  0.00    +0.214 A 
ATOM      7  C   UNL     1       7.322  -0.635  26.389  0.00  0.00    +0.238 A 
ATOM      8  O   UNL     1       7.444  -0.714  27.600  0.00  0.00    -0.283 OA
ATOM      9  C   UNL     1       7.778   0.557  25.613  0.00  0.00    +0.109 A 
ATOM     10  C   UNL     1       7.793   1.878  26.083  0.00  0.00    +0.135 A 
ATOM     11  C   UNL     1       8.248   2.938  25.273  0.00  0.00    +0.092 A 
ENDROOT
BRANCH   5  12
ATOM     12  C   UNL     1       7.161  -3.071  23.479  0.00  0.00    +0.025 A 
ATOM     13  C   UNL     1       7.676  -4.323  23.835  0.00  0.00    +0.015 A 
ATOM     14  C   UNL     1       7.501  -5.421  22.979  0.00  0.00    +0.050 A 
ATOM     15  C   UNL     1       6.829  -5.247  21.777  0.00  0.00    +0.158 A 
ATOM     16  C   UNL     1       6.282  -4.014  21.443  0.00  0.00    +0.159 A 
ATOM     17  C   UNL     1       6.416  -2.937  22.297  0.00  0.00    +0.060 A 
BRANCH  16  18
ATOM     18  O   UNL     1       5.639  -3.900  20.241  0.00  0.00    -0.503 OA
ATOM     19  H   UNL     1       6.304  -3.661  19.568  0.00  0.00    +0.292 HD
ENDBRANCH  16  18
BRANCH  15  20
ATOM     20  O   UNL     1       6.719  -6.292  20.910  0.00  0.00    -0.503 OA
ATOM     21  H   UNL     1       6.507  -7.057  21.481  0.00  0.00    +0.292 HD
ENDBRANCH  15  20
ENDBRANCH   5  12
BRANCH  10  22
ATOM     22  O   UNL     1       7.319   2.163  27.333  0.00  0.00    -0.506 OA
ATOM     23  H   UNL     1       6.890   3.034  27.329  0.00  0.00    +0.292 HD
ENDBRANCH  10  22
BRANCH   6  24
ATOM     24  O   UNL     1       5.784  -2.662  25.916  0.00  0.00    -0.453 OA
BRANCH  24  25
ATOM     25  C   UNL     1       5.475  -3.140  27.248  0.00  0.00    +0.340 C 
ATOM     26  O   UNL     1       5.602  -4.592  27.255  0.00  0.00    -0.331 OA
ATOM     27  C   UNL     1       4.653  -5.429  27.949  0.00  0.00    +0.179 C 
ATOM     28  C   UNL     1       3.482  -4.744  28.664  0.00  0.00    +0.177 C 
ATOM     29  C   UNL     1       2.977  -3.635  27.760  0.00  0.00    +0.180 C 
ATOM     30  C   UNL     1       4.079  -2.564  27.706  0.00  0.00    +0.221 C 
BRANCH  28  31
ATOM     31  O   UNL     1       3.882  -4.229  29.941  0.00  0.00    -0.386 OA
ATOM     32  H   UNL     1       4.083  -4.998  30.511  0.00  0.00    +0.210 HD
ENDBRANCH  28  31
BRANCH  29  33
ATOM     33  O   UNL     1       2.607  -4.143  26.479  0.00  0.00    -0.386 OA
ATOM     34  H   UNL     1       2.954  -3.531  25.804  0.00  0.00    +0.210 HD
ENDBRANCH  29  33
BRANCH  30  35
ATOM     35  O   UNL     1       3.653  -1.354  27.033  0.00  0.00    -0.337 OA
BRANCH  35  36
ATOM     36  C   UNL     1       3.913  -0.099  27.709  0.00  0.00    +0.283 C 
ATOM     37  O   UNL     1       3.220  -0.110  28.975  0.00  0.00    -0.340 OA
ATOM     38  C   UNL     1       1.785  -0.045  28.843  0.00  0.00    +0.179 C 
ATOM     39  C   UNL     1       1.338   1.245  28.102  0.00  0.00    +0.189 C 
ATOM     40  C   UNL     1       2.033   1.216  26.732  0.00  0.00    +0.241 C 
ATOM     41  C   UNL     1       3.550   1.219  26.938  0.00  0.00    +0.213 C 
BRANCH  41  42
ATOM     42  O   UNL     1       4.233   1.388  25.688  0.00  0.00    -0.383 OA
ATOM     43  H   UNL     1       3.537   1.525  25.018  0.00  0.00    +0.210 HD
ENDBRANCH  41  42
BRANCH  39  44
ATOM     44  O   UNL     1       1.723   2.378  28.896  0.00  0.00    -0.385 OA
ATOM     45  H   UNL     1       2.582   2.185  29.332  0.00  0.00    +0.210 HD
ENDBRANCH  39  44
BRANCH  40  46
ATOM     46  O   UNL     1       1.587   2.140  25.701  0.00  0.00    -0.452 OA
BRANCH  46  47
ATOM     47  C   UNL     1       1.802   3.470  25.714  0.00  0.00    +0.340 C 
ATOM     48  O   UNL     1       2.010   4.140  26.709  0.00  0.00    -0.245 OA
BRANCH  47  49
ATOM     49  C   UNL     1       1.796   3.983  24.309  0.00  0.00    +0.059 A 
ATOM     50  C   UNL     1       1.341   5.274  23.986  0.00  0.00    +0.015 A 
ATOM     51  C   UNL     1       1.343   5.714  22.655  0.00  0.00    +0.001 A 
ATOM     52  C   UNL     1       1.788   4.871  21.641  0.00  0.00    +0.000 A 
ATOM     53  C   UNL     1       2.246   3.590  21.950  0.00  0.00    +0.001 A 
ATOM     54  C   UNL     1       2.260   3.151  23.280  0.00  0.00    +0.015 A 
ENDBRANCH  47  49
ENDBRANCH  46  47
ENDBRANCH  40  46
BRANCH  38  55
ATOM     55  C   UNL     1       1.136  -0.171  30.225  0.00  0.00    +0.190 C 
BRANCH  55  56
ATOM     56  O   UNL     1       0.767  -1.527  30.485  0.00  0.00    -0.392 OA
ATOM     57  H   UNL     1       1.173  -1.769  31.335  0.00  0.00    +0.210 HD
ENDBRANCH  55  56
ENDBRANCH  38  55
ENDBRANCH  35  36
ENDBRANCH  30  35
BRANCH  27  58
ATOM     58  C   UNL     1       5.403  -6.355  28.911  0.00  0.00    +0.190 C 
BRANCH  58  59
ATOM     59  O   UNL     1       6.403  -5.612  29.605  0.00  0.00    -0.392 OA
ATOM     60  H   UNL     1       6.095  -4.684  29.575  0.00  0.00    +0.210 HD
ENDBRANCH  58  59
ENDBRANCH  27  58
ENDBRANCH  24  25
ENDBRANCH   6  24
BRANCH   1  61
ATOM     61  O   UNL     1       9.135   3.807  23.273  0.00  0.00    -0.461 OA
BRANCH  61  65
ATOM     62  C   UNL     1       7.529   7.108  25.418  0.00  0.00    +0.041 C 
ATOM     63  C   UNL     1       6.640   6.075  24.727  0.00  0.00    +0.150 C 
ATOM     64  O   UNL     1       7.383   4.883  24.433  0.00  0.00    -0.334 OA
ATOM     65  C   UNL     1       8.359   5.017  23.391  0.00  0.00    +0.339 C 
ATOM     66  C   UNL     1       7.597   5.329  22.076  0.00  0.00    +0.214 C 
ATOM     67  C   UNL     1       6.891   6.690  22.273  0.00  0.00    +0.180 C 
ATOM     68  C   UNL     1       5.933   6.638  23.482  0.00  0.00    +0.174 C 
BRANCH  66  69
ATOM     69  O   UNL     1       6.604   4.308  21.817  0.00  0.00    -0.383 OA
ATOM     70  H   UNL     1       6.901   3.504  22.283  0.00  0.00    +0.210 HD
ENDBRANCH  66  69
BRANCH  67  71
ATOM     71  O   UNL     1       6.218   7.108  21.083  0.00  0.00    -0.386 OA
ATOM     72  H   UNL     1       5.591   6.406  20.827  0.00  0.00    +0.210 HD
ENDBRANCH  67  71
BRANCH  68  73
ATOM     73  O   UNL     1       4.787   5.830  23.180  0.00  0.00    -0.387 OA
ATOM     74  H   UNL     1       3.996   6.357  23.428  0.00  0.00    +0.210 HD
ENDBRANCH  68  73
ENDBRANCH  61  65
ENDBRANCH   1  61
TORSDOF 24
ENDMDL
MODEL 9
REMARK VINA RESULT:      -5.2      2.037      6.214
REMARK  Name = 
REMARK  25 active torsions:
REMARK  status: ('A' for Active; 'I' for Inactive)
REMARK    1  A    between atoms: C_1  and  C_2
REMARK    2  A    between atoms: C_3  and  O_70
REMARK    3  A    between atoms: C_5  and  O_69
REMARK    4  A    between atoms: C_7  and  O_68
REMARK    5  A    between atoms: C_8  and  O_11
REMARK    6  A    between atoms: O_11  and  C_12
REMARK    7  A    between atoms: C_14  and  O_67
REMARK    8  A    between atoms: C_19  and  C_59
REMARK    9  A    between atoms: C_20  and  O_23
REMARK   10  A    between atoms: O_23  and  C_24
REMARK   11  A    between atoms: C_26  and  O_37
REMARK   12  A    between atoms: C_27  and  O_36
REMARK   13  A    between atoms: C_29  and  O_35
REMARK   14  A    between atoms: C_31  and  C_33
REMARK   15  A    between atoms: C_33  and  O_34
REMARK   16  A    between atoms: O_37  and  C_38
REMARK   17  A    between atoms: C_40  and  O_58
REMARK   18  A    between atoms: C_41  and  O_49
REMARK   19  A    between atoms: C_42  and  O_48
REMARK   20  A    between atoms: C_44  and  C_46
REMARK   21  A    between atoms: C_46  and  O_47
REMARK   22  A    between atoms: O_49  and  C_50
REMARK   23  A    between atoms: C_50  and  C_52
REMARK   24  A    between atoms: C_61  and  O_66
REMARK   25  A    between atoms: C_62  and  O_65
REMARK                            x       y       z     vdW  Elec       q    Type
REMARK                         _______ _______ _______ _____ _____    ______ ____
ROOT
ATOM      1  C   UNL     1       8.273   2.436  23.527  0.00  0.00    +0.131 A 
ATOM      2  C   UNL     1       7.168   2.465  24.386  0.00  0.00    +0.093 A 
ATOM      3  C   UNL     1       6.437   1.299  24.671  0.00  0.00    +0.147 A 
ATOM      4  O   UNL     1       5.344   1.425  25.494  0.00  0.00    -0.451 OA
ATOM      5  C   UNL     1       4.910   0.284  26.160  0.00  0.00    +0.181 A 
ATOM      6  C   UNL     1       5.241  -0.985  25.827  0.00  0.00    +0.214 A 
ATOM      7  C   UNL     1       5.947  -1.105  24.506  0.00  0.00    +0.238 A 
ATOM      8  O   UNL     1       5.774  -2.055  23.759  0.00  0.00    -0.283 OA
ATOM      9  C   UNL     1       6.789   0.069  24.126  0.00  0.00    +0.109 A 
ATOM     10  C   UNL     1       7.912   0.030  23.288  0.00  0.00    +0.135 A 
ATOM     11  C   UNL     1       8.640   1.197  22.984  0.00  0.00    +0.092 A 
ENDROOT
BRANCH   5  12
ATOM     12  C   UNL     1       4.018   0.573  27.314  0.00  0.00    +0.025 A 
ATOM     13  C   UNL     1       4.438   0.322  28.626  0.00  0.00    +0.015 A 
ATOM     14  C   UNL     1       3.561   0.550  29.697  0.00  0.00    +0.050 A 
ATOM     15  C   UNL     1       2.276   1.008  29.440  0.00  0.00    +0.158 A 
ATOM     16  C   UNL     1       1.873   1.295  28.141  0.00  0.00    +0.159 A 
ATOM     17  C   UNL     1       2.742   1.111  27.084  0.00  0.00    +0.060 A 
BRANCH  16  18
ATOM     18  O   UNL     1       0.593   1.735  27.948  0.00  0.00    -0.503 OA
ATOM     19  H   UNL     1       0.380   1.630  27.002  0.00  0.00    +0.292 HD
ENDBRANCH  16  18
BRANCH  15  20
ATOM     20  O   UNL     1       1.398   1.162  30.470  0.00  0.00    -0.503 OA
ATOM     21  H   UNL     1       0.879   0.334  30.470  0.00  0.00    +0.292 HD
ENDBRANCH  15  20
ENDBRANCH   5  12
BRANCH  10  22
ATOM     22  O   UNL     1       8.346  -1.165  22.785  0.00  0.00    -0.506 OA
ATOM     23  H   UNL     1       8.017  -1.892  23.339  0.00  0.00    +0.292 HD
ENDBRANCH  10  22
BRANCH   6  24
ATOM     24  O   UNL     1       4.959  -2.026  26.713  0.00  0.00    -0.453 OA
BRANCH  24  25
ATOM     25  C   UNL     1       3.988  -3.084  26.529  0.00  0.00    +0.340 C 
ATOM     26  O   UNL     1       2.684  -2.475  26.302  0.00  0.00    -0.331 OA
ATOM     27  C   UNL     1       1.486  -3.009  26.904  0.00  0.00    +0.179 C 
ATOM     28  C   UNL     1       1.629  -4.232  27.818  0.00  0.00    +0.177 C 
ATOM     29  C   UNL     1       2.865  -4.025  28.673  0.00  0.00    +0.180 C 
ATOM     30  C   UNL     1       4.079  -4.101  27.732  0.00  0.00    +0.221 C 
BRANCH  28  31
ATOM     31  O   UNL     1       1.722  -5.443  27.057  0.00  0.00    -0.386 OA
ATOM     32  H   UNL     1       2.516  -5.919  27.370  0.00  0.00    +0.210 HD
ENDBRANCH  28  31
BRANCH  29  33
ATOM     33  O   UNL     1       2.784  -2.805  29.409  0.00  0.00    -0.386 OA
ATOM     34  H   UNL     1       2.405  -3.010  30.284  0.00  0.00    +0.210 HD
ENDBRANCH  29  33
BRANCH  30  35
ATOM     35  O   UNL     1       5.340  -4.114  28.444  0.00  0.00    -0.337 OA
BRANCH  35  36
ATOM     36  C   UNL     1       6.246  -5.209  28.156  0.00  0.00    +0.283 C 
ATOM     37  O   UNL     1       7.468  -4.661  27.620  0.00  0.00    -0.340 OA
ATOM     38  C   UNL     1       7.313  -4.096  26.301  0.00  0.00    +0.179 C 
ATOM     39  C   UNL     1       6.814  -5.156  25.282  0.00  0.00    +0.189 C 
ATOM     40  C   UNL     1       5.482  -5.688  25.831  0.00  0.00    +0.241 C 
ATOM     41  C   UNL     1       5.726  -6.336  27.197  0.00  0.00    +0.213 C 
BRANCH  41  42
ATOM     42  O   UNL     1       4.548  -7.015  27.655  0.00  0.00    -0.383 OA
ATOM     43  H   UNL     1       3.989  -6.333  28.073  0.00  0.00    +0.210 HD
ENDBRANCH  41  42
BRANCH  39  44
ATOM     44  O   UNL     1       7.816  -6.179  25.168  0.00  0.00    -0.385 OA
ATOM     45  H   UNL     1       8.065  -6.278  24.223  0.00  0.00    +0.210 HD
ENDBRANCH  39  44
BRANCH  40  46
ATOM     46  O   UNL     1       4.631  -6.481  24.959  0.00  0.00    -0.452 OA
BRANCH  46  47
ATOM     47  C   UNL     1       3.746  -5.974  24.078  0.00  0.00    +0.340 C 
ATOM     48  O   UNL     1       3.819  -4.875  23.559  0.00  0.00    -0.245 OA
BRANCH  47  49
ATOM     49  C   UNL     1       2.689  -6.996  23.799  0.00  0.00    +0.059 A 
ATOM     50  C   UNL     1       2.395  -8.033  24.700  0.00  0.00    +0.015 A 
ATOM     51  C   UNL     1       1.404  -8.977  24.396  0.00  0.00    +0.001 A 
ATOM     52  C   UNL     1       0.708  -8.897  23.193  0.00  0.00    +0.000 A 
ATOM     53  C   UNL     1       0.989  -7.868  22.293  0.00  0.00    +0.001 A 
ATOM     54  C   UNL     1       1.968  -6.915  22.599  0.00  0.00    +0.015 A 
ENDBRANCH  47  49
ENDBRANCH  46  47
ENDBRANCH  40  46
BRANCH  38  55
ATOM     55  C   UNL     1       8.629  -3.447  25.863  0.00  0.00    +0.190 C 
BRANCH  55  56
ATOM     56  O   UNL     1       8.694  -3.355  24.439  0.00  0.00    -0.392 OA
ATOM     57  H   UNL     1       8.573  -4.257  24.094  0.00  0.00    +0.210 HD
ENDBRANCH  55  56
ENDBRANCH  38  55
ENDBRANCH  35  36
ENDBRANCH  30  35
BRANCH  27  58
ATOM     58  C   UNL     1       0.444  -3.272  25.812  0.00  0.00    +0.190 C 
BRANCH  58  59
ATOM     59  O   UNL     1       1.092  -3.790  24.651  0.00  0.00    -0.392 OA
ATOM     60  H   UNL     1       1.281  -4.726  24.863  0.00  0.00    +0.210 HD
ENDBRANCH  58  59
ENDBRANCH  27  58
ENDBRANCH  24  25
ENDBRANCH   6  24
BRANCH   1  61
ATOM     61  O   UNL     1       9.033   3.514  23.137  0.00  0.00    -0.461 OA
BRANCH  61  65
ATOM     62  C   UNL     1       7.982   7.053  25.244  0.00  0.00    +0.041 C 
ATOM     63  C   UNL     1       6.932   6.128  24.632  0.00  0.00    +0.150 C 
ATOM     64  O   UNL     1       7.498   4.841  24.343  0.00  0.00    -0.334 OA
ATOM     65  C   UNL     1       8.427   4.817  23.251  0.00  0.00    +0.339 C 
ATOM     66  C   UNL     1       7.645   5.191  21.964  0.00  0.00    +0.214 C 
ATOM     67  C   UNL     1       7.132   6.638  22.149  0.00  0.00    +0.180 C 
ATOM     68  C   UNL     1       6.240   6.745  23.403  0.00  0.00    +0.174 C 
BRANCH  66  69
ATOM     69  O   UNL     1       6.516   4.303  21.788  0.00  0.00    -0.383 OA
ATOM     70  H   UNL     1       6.879   3.437  21.521  0.00  0.00    +0.210 HD
ENDBRANCH  66  69
BRANCH  67  71
ATOM     71  O   UNL     1       6.459   7.108  20.979  0.00  0.00    -0.386 OA
ATOM     72  H   UNL     1       5.512   7.205  21.193  0.00  0.00    +0.210 HD
ENDBRANCH  67  71
BRANCH  68  73
ATOM     73  O   UNL     1       4.985   6.086  23.185  0.00  0.00    -0.387 OA
ATOM     74  H   UNL     1       5.097   5.157  23.488  0.00  0.00    +0.210 HD
ENDBRANCH  68  73
ENDBRANCH  61  65
ENDBRANCH   1  61
TORSDOF 24
ENDMDL
