MODEL 1
REMARK VINA RESULT:      -7.1      0.000      0.000
REMARK  Name = 
REMARK  22 active torsions:
REMARK  status: ('A' for Active; 'I' for Inactive)
REMARK    1  A    between atoms: C_3  and  O_56
REMARK    2  A    between atoms: C_4  and  O_55
REMARK    3  A    between atoms: C_6  and  C_7
REMARK    4  A    between atoms: C_8  and  O_34
REMARK    5  A    between atoms: C_12  and  O_33
REMARK    6  A    between atoms: C_14  and  O_18
REMARK    7  A    between atoms: O_18  and  C_19
REMARK    8  A    between atoms: C_21  and  O_32
REMARK    9  A    between atoms: C_22  and  O_31
REMARK   10  A    between atoms: C_24  and  O_30
REMARK   11  A    between atoms: C_26  and  C_28
REMARK   12  A    between atoms: C_28  and  O_29
REMARK   13  A    between atoms: O_34  and  C_35
REMARK   14  A    between atoms: C_37  and  O_54
REMARK   15  A    between atoms: C_38  and  O_53
REMARK   16  A    between atoms: C_40  and  O_52
REMARK   17  A    between atoms: C_42  and  C_44
REMARK   18  A    between atoms: C_44  and  O_45
REMARK   19  A    between atoms: O_45  and  C_46
REMARK   20  A    between atoms: C_46  and  C_48
REMARK   21  A    between atoms: C_48  and  C_49
REMARK   22  A    between atoms: C_49  and  O_51
REMARK                            x       y       z     vdW  Elec       q    Type
REMARK                         _______ _______ _______ _____ _____    ______ ____
ROOT
ATOM      1  C   UNL     1       7.228   0.222  25.297  0.00  0.00    +0.181 A 
ATOM      2  O   UNL     1       6.868  -1.104  25.366  0.00  0.00    -0.451 OA
ATOM      3  C   UNL     1       5.912  -1.474  26.279  0.00  0.00    +0.147 A 
ATOM      4  C   UNL     1       5.335  -0.592  27.184  0.00  0.00    +0.109 A 
ATOM      5  C   UNL     1       4.387  -1.091  28.094  0.00  0.00    +0.135 A 
ATOM      6  C   UNL     1       3.959  -2.431  28.039  0.00  0.00    +0.092 A 
ATOM      7  C   UNL     1       4.474  -3.290  27.065  0.00  0.00    +0.131 A 
ATOM      8  C   UNL     1       5.724   0.835  27.094  0.00  0.00    +0.238 A 
ATOM      9  O   UNL     1       5.243   1.659  27.863  0.00  0.00    -0.283 OA
ATOM     10  C   UNL     1       5.502  -2.811  26.238  0.00  0.00    +0.093 A 
ATOM     11  C   UNL     1       6.700   1.227  26.030  0.00  0.00    +0.214 A 
ENDROOT
BRANCH   1  13
ATOM     12  C   UNL     1       9.567   0.829  24.623  0.00  0.00    +0.015 A 
ATOM     13  C   UNL     1       8.241   0.538  24.292  0.00  0.00    +0.025 A 
ATOM     14  C   UNL     1       7.813   0.747  22.966  0.00  0.00    +0.060 A 
ATOM     15  C   UNL     1       8.688   1.291  22.042  0.00  0.00    +0.159 A 
ATOM     16  C   UNL     1       9.984   1.649  22.405  0.00  0.00    +0.158 A 
ATOM     17  C   UNL     1      10.450   1.385  23.691  0.00  0.00    +0.050 A 
BRANCH  16  18
ATOM     18  O   UNL     1      10.756   2.280  21.470  0.00  0.00    -0.503 OA
ATOM     19  H   UNL     1      10.225   2.994  21.074  0.00  0.00    +0.292 HD
ENDBRANCH  16  18
BRANCH  15  20
ATOM     20  O   UNL     1       8.262   1.521  20.763  0.00  0.00    -0.503 OA
ATOM     21  H   UNL     1       8.307   2.494  20.663  0.00  0.00    +0.292 HD
ENDBRANCH  15  20
ENDBRANCH   1  13
BRANCH   5  22
ATOM     22  O   UNL     1       3.806  -0.314  29.064  0.00  0.00    -0.506 OA
ATOM     23  H   UNL     1       4.496   0.252  29.471  0.00  0.00    +0.292 HD
ENDBRANCH   5  22
BRANCH   7  24
ATOM     24  O   UNL     1       3.888  -4.546  26.947  0.00  0.00    -0.461 OA
BRANCH  24  25
ATOM     25  C   UNL     1       4.390  -5.303  25.821  0.00  0.00    +0.339 C 
ATOM     26  O   UNL     1       3.612  -5.029  24.653  0.00  0.00    -0.331 OA
ATOM     27  C   UNL     1       2.318  -5.657  24.678  0.00  0.00    +0.179 C 
ATOM     28  C   UNL     1       2.531  -7.170  24.530  0.00  0.00    +0.177 C 
ATOM     29  C   UNL     1       3.298  -7.676  25.759  0.00  0.00    +0.180 C 
ATOM     30  C   UNL     1       4.555  -6.834  26.042  0.00  0.00    +0.214 C 
BRANCH  28  31
ATOM     31  O   UNL     1       3.281  -7.421  23.334  0.00  0.00    -0.386 OA
ATOM     32  H   UNL     1       3.976  -6.747  23.244  0.00  0.00    +0.210 HD
ENDBRANCH  28  31
BRANCH  29  33
ATOM     33  O   UNL     1       2.455  -7.730  26.924  0.00  0.00    -0.386 OA
ATOM     34  H   UNL     1       2.949  -8.153  27.644  0.00  0.00    +0.210 HD
ENDBRANCH  29  33
BRANCH  30  35
ATOM     35  O   UNL     1       5.114  -7.159  27.319  0.00  0.00    -0.383 OA
ATOM     36  H   UNL     1       5.966  -7.610  27.158  0.00  0.00    +0.210 HD
ENDBRANCH  30  35
BRANCH  27  37
ATOM     37  C   UNL     1       1.461  -5.068  23.554  0.00  0.00    +0.190 C 
BRANCH  37  38
ATOM     38  O   UNL     1       1.433  -5.937  22.415  0.00  0.00    -0.392 OA
ATOM     39  H   UNL     1       1.022  -6.778  22.684  0.00  0.00    +0.210 HD
ENDBRANCH  37  38
ENDBRANCH  27  37
ENDBRANCH  24  25
ENDBRANCH   7  24
BRANCH  11  40
ATOM     40  O   UNL     1       7.283   2.479  25.980  0.00  0.00    -0.453 OA
BRANCH  40  41
ATOM     41  C   UNL     1       6.911   3.461  24.996  0.00  0.00    +0.340 C 
ATOM     42  O   UNL     1       8.077   3.942  24.309  0.00  0.00    -0.330 OA
ATOM     43  C   UNL     1       8.925   4.952  24.910  0.00  0.00    +0.191 C 
ATOM     44  C   UNL     1       8.433   5.728  26.180  0.00  0.00    +0.178 C 
ATOM     45  C   UNL     1       7.181   5.134  26.820  0.00  0.00    +0.180 C 
ATOM     46  C   UNL     1       6.249   4.655  25.689  0.00  0.00    +0.214 C 
BRANCH  46  47
ATOM     47  O   UNL     1       4.926   4.420  26.159  0.00  0.00    -0.383 OA
ATOM     48  H   UNL     1       4.288   4.556  25.429  0.00  0.00    +0.210 HD
ENDBRANCH  46  47
BRANCH  45  49
ATOM     49  O   UNL     1       7.574   4.142  27.779  0.00  0.00    -0.386 OA
ATOM     50  H   UNL     1       8.122   4.586  28.463  0.00  0.00    +0.210 HD
ENDBRANCH  45  49
BRANCH  44  51
ATOM     51  O   UNL     1       8.163   7.108  25.887  0.00  0.00    -0.386 OA
ATOM     52  H   UNL     1       8.969   7.497  25.497  0.00  0.00    +0.210 HD
ENDBRANCH  44  51
BRANCH  43  53
ATOM     53  C   UNL     1       9.347   5.967  23.814  0.00  0.00    +0.266 C 
BRANCH  53  54
ATOM     54  O   UNL     1      10.410   6.831  24.245  0.00  0.00    -0.462 OA
BRANCH  54  55
ATOM     55  C   UNL     1      11.605   6.193  24.410  0.00  0.00    +0.318 C 
ATOM     56  O   UNL     1      12.429   6.419  25.288  0.00  0.00    -0.250 OA
BRANCH  55  57
ATOM     57  C   UNL     1      11.823   5.183  23.335  0.00  0.00    +0.240 C 
BRANCH  57  58
ATOM     58  C   UNL     1      13.114   5.359  22.603  0.00  0.00    +0.316 C 
ATOM     59  O   UNL     1      13.243   5.785  21.464  0.00  0.00    -0.250 OA
BRANCH  58  60
ATOM     60  O   UNL     1      14.184   4.988  23.347  0.00  0.00    -0.480 OA
ATOM     61  H   UNL     1      14.268   5.464  24.197  0.00  0.00    +0.295 HD
ENDBRANCH  58  60
ENDBRANCH  57  58
ENDBRANCH  55  57
ENDBRANCH  54  55
ENDBRANCH  53  54
ENDBRANCH  43  53
ENDBRANCH  40  41
ENDBRANCH  11  40
TORSDOF 22
ENDMDL
MODEL 2
REMARK VINA RESULT:      -6.8      2.282     11.256
REMARK  Name = 
REMARK  22 active torsions:
REMARK  status: ('A' for Active; 'I' for Inactive)
REMARK    1  A    between atoms: C_3  and  O_56
REMARK    2  A    between atoms: C_4  and  O_55
REMARK    3  A    between atoms: C_6  and  C_7
REMARK    4  A    between atoms: C_8  and  O_34
REMARK    5  A    between atoms: C_12  and  O_33
REMARK    6  A    between atoms: C_14  and  O_18
REMARK    7  A    between atoms: O_18  and  C_19
REMARK    8  A    between atoms: C_21  and  O_32
REMARK    9  A    between atoms: C_22  and  O_31
REMARK   10  A    between atoms: C_24  and  O_30
REMARK   11  A    between atoms: C_26  and  C_28
REMARK   12  A    between atoms: C_28  and  O_29
REMARK   13  A    between atoms: O_34  and  C_35
REMARK   14  A    between atoms: C_37  and  O_54
REMARK   15  A    between atoms: C_38  and  O_53
REMARK   16  A    between atoms: C_40  and  O_52
REMARK   17  A    between atoms: C_42  and  C_44
REMARK   18  A    between atoms: C_44  and  O_45
REMARK   19  A    between atoms: O_45  and  C_46
REMARK   20  A    between atoms: C_46  and  C_48
REMARK   21  A    between atoms: C_48  and  C_49
REMARK   22  A    between atoms: C_49  and  O_51
REMARK                            x       y       z     vdW  Elec       q    Type
REMARK                         _______ _______ _______ _____ _____    ______ ____
ROOT
ATOM      1  C   UNL     1       6.527  -1.828  24.919  0.00  0.00    +0.181 A 
ATOM      2  O   UNL     1       7.067  -0.587  25.173  0.00  0.00    -0.451 OA
ATOM      3  C   UNL     1       7.951  -0.062  24.263  0.00  0.00    +0.147 A 
ATOM      4  C   UNL     1       8.382  -0.744  23.132  0.00  0.00    +0.109 A 
ATOM      5  C   UNL     1       9.314  -0.118  22.287  0.00  0.00    +0.135 A 
ATOM      6  C   UNL     1       9.738   1.204  22.523  0.00  0.00    +0.092 A 
ATOM      7  C   UNL     1       9.228   1.919  23.610  0.00  0.00    +0.131 A 
ATOM      8  C   UNL     1       7.788  -2.076  22.866  0.00  0.00    +0.238 A 
ATOM      9  O   UNL     1       8.127  -2.721  21.881  0.00  0.00    -0.283 OA
ATOM     10  C   UNL     1       8.388   1.244  24.508  0.00  0.00    +0.093 A 
ATOM     11  C   UNL     1       6.759  -2.585  23.824  0.00  0.00    +0.214 A 
ENDROOT
BRANCH   1  13
ATOM     12  C   UNL     1       5.941  -3.241  26.907  0.00  0.00    +0.015 A 
ATOM     13  C   UNL     1       5.585  -2.311  25.927  0.00  0.00    +0.025 A 
ATOM     14  C   UNL     1       4.226  -1.973  25.775  0.00  0.00    +0.060 A 
ATOM     15  C   UNL     1       3.273  -2.610  26.551  0.00  0.00    +0.159 A 
ATOM     16  C   UNL     1       3.634  -3.592  27.470  0.00  0.00    +0.158 A 
ATOM     17  C   UNL     1       4.977  -3.890  27.686  0.00  0.00    +0.050 A 
BRANCH  16  18
ATOM     18  O   UNL     1       2.630  -4.254  28.121  0.00  0.00    -0.503 OA
ATOM     19  H   UNL     1       1.824  -3.709  28.066  0.00  0.00    +0.292 HD
ENDBRANCH  16  18
BRANCH  15  20
ATOM     20  O   UNL     1       1.950  -2.302  26.382  0.00  0.00    -0.503 OA
ATOM     21  H   UNL     1       1.726  -2.669  25.503  0.00  0.00    +0.292 HD
ENDBRANCH  15  20
ENDBRANCH   1  13
BRANCH   5  22
ATOM     22  O   UNL     1       9.845  -0.731  21.181  0.00  0.00    -0.506 OA
ATOM     23  H   UNL     1      10.444  -1.450  21.475  0.00  0.00    +0.292 HD
ENDBRANCH   5  22
BRANCH   7  24
ATOM     24  O   UNL     1       9.546   3.270  23.690  0.00  0.00    -0.461 OA
BRANCH  24  25
ATOM     25  C   UNL     1       8.636   4.018  24.530  0.00  0.00    +0.339 C 
ATOM     26  O   UNL     1       7.282   3.665  24.232  0.00  0.00    -0.331 OA
ATOM     27  C   UNL     1       6.817   4.222  22.989  0.00  0.00    +0.179 C 
ATOM     28  C   UNL     1       6.679   5.738  23.180  0.00  0.00    +0.177 C 
ATOM     29  C   UNL     1       8.074   6.324  23.437  0.00  0.00    +0.180 C 
ATOM     30  C   UNL     1       8.825   5.562  24.544  0.00  0.00    +0.214 C 
BRANCH  28  31
ATOM     31  O   UNL     1       5.816   5.992  24.297  0.00  0.00    -0.386 OA
ATOM     32  H   UNL     1       5.097   6.584  24.018  0.00  0.00    +0.210 HD
ENDBRANCH  28  31
BRANCH  29  33
ATOM     33  O   UNL     1       8.860   6.369  22.232  0.00  0.00    -0.386 OA
ATOM     34  H   UNL     1       9.755   6.669  22.458  0.00  0.00    +0.210 HD
ENDBRANCH  29  33
BRANCH  30  35
ATOM     35  O   UNL     1      10.200   5.958  24.596  0.00  0.00    -0.383 OA
ATOM     36  H   UNL     1      10.219   6.927  24.718  0.00  0.00    +0.210 HD
ENDBRANCH  30  35
BRANCH  27  37
ATOM     37  C   UNL     1       5.492   3.551  22.614  0.00  0.00    +0.190 C 
BRANCH  37  38
ATOM     38  O   UNL     1       5.616   2.123  22.618  0.00  0.00    -0.392 OA
ATOM     39  H   UNL     1       4.839   1.747  22.167  0.00  0.00    +0.210 HD
ENDBRANCH  37  38
ENDBRANCH  27  37
ENDBRANCH  24  25
ENDBRANCH   7  24
BRANCH  11  40
ATOM     40  O   UNL     1       6.289  -3.884  23.790  0.00  0.00    -0.453 OA
BRANCH  40  41
ATOM     41  C   UNL     1       5.474  -4.377  22.711  0.00  0.00    +0.340 C 
ATOM     42  O   UNL     1       4.082  -4.231  23.032  0.00  0.00    -0.330 OA
ATOM     43  C   UNL     1       3.417  -5.190  23.894  0.00  0.00    +0.191 C 
ATOM     44  C   UNL     1       4.131  -6.538  24.254  0.00  0.00    +0.178 C 
ATOM     45  C   UNL     1       5.604  -6.585  23.855  0.00  0.00    +0.180 C 
ATOM     46  C   UNL     1       5.752  -5.867  22.498  0.00  0.00    +0.214 C 
BRANCH  46  47
ATOM     47  O   UNL     1       6.998  -6.164  21.878  0.00  0.00    -0.383 OA
ATOM     48  H   UNL     1       7.713  -5.655  22.312  0.00  0.00    +0.210 HD
ENDBRANCH  46  47
BRANCH  45  49
ATOM     49  O   UNL     1       6.395  -6.067  24.935  0.00  0.00    -0.386 OA
ATOM     50  H   UNL     1       7.260  -5.786  24.564  0.00  0.00    +0.210 HD
ENDBRANCH  45  49
BRANCH  44  51
ATOM     51  O   UNL     1       3.476  -7.663  23.646  0.00  0.00    -0.386 OA
ATOM     52  H   UNL     1       4.152  -8.191  23.180  0.00  0.00    +0.210 HD
ENDBRANCH  44  51
BRANCH  43  53
ATOM     53  C   UNL     1       2.007  -5.487  23.316  0.00  0.00    +0.266 C 
BRANCH  53  54
ATOM     54  O   UNL     1       1.214  -6.298  24.197  0.00  0.00    -0.462 OA
BRANCH  54  55
ATOM     55  C   UNL     1       0.697  -5.614  25.259  0.00  0.00    +0.318 C 
ATOM     56  O   UNL     1       0.444  -4.416  25.292  0.00  0.00    -0.250 OA
BRANCH  55  57
ATOM     57  C   UNL     1       0.513  -6.513  26.434  0.00  0.00    +0.240 C 
BRANCH  57  58
ATOM     58  C   UNL     1       1.722  -7.332  26.755  0.00  0.00    +0.316 C 
ATOM     59  O   UNL     1       2.595  -7.040  27.560  0.00  0.00    -0.250 OA
BRANCH  58  60
ATOM     60  O   UNL     1       1.770  -8.482  26.041  0.00  0.00    -0.480 OA
ATOM     61  H   UNL     1       1.794  -9.294  26.587  0.00  0.00    +0.295 HD
ENDBRANCH  58  60
ENDBRANCH  57  58
ENDBRANCH  55  57
ENDBRANCH  54  55
ENDBRANCH  53  54
ENDBRANCH  43  53
ENDBRANCH  40  41
ENDBRANCH  11  40
TORSDOF 22
ENDMDL
MODEL 3
REMARK VINA RESULT:      -6.8      2.414     11.318
REMARK  Name = 
REMARK  22 active torsions:
REMARK  status: ('A' for Active; 'I' for Inactive)
REMARK    1  A    between atoms: C_3  and  O_56
REMARK    2  A    between atoms: C_4  and  O_55
REMARK    3  A    between atoms: C_6  and  C_7
REMARK    4  A    between atoms: C_8  and  O_34
REMARK    5  A    between atoms: C_12  and  O_33
REMARK    6  A    between atoms: C_14  and  O_18
REMARK    7  A    between atoms: O_18  and  C_19
REMARK    8  A    between atoms: C_21  and  O_32
REMARK    9  A    between atoms: C_22  and  O_31
REMARK   10  A    between atoms: C_24  and  O_30
REMARK   11  A    between atoms: C_26  and  C_28
REMARK   12  A    between atoms: C_28  and  O_29
REMARK   13  A    between atoms: O_34  and  C_35
REMARK   14  A    between atoms: C_37  and  O_54
REMARK   15  A    between atoms: C_38  and  O_53
REMARK   16  A    between atoms: C_40  and  O_52
REMARK   17  A    between atoms: C_42  and  C_44
REMARK   18  A    between atoms: C_44  and  O_45
REMARK   19  A    between atoms: O_45  and  C_46
REMARK   20  A    between atoms: C_46  and  C_48
REMARK   21  A    between atoms: C_48  and  C_49
REMARK   22  A    between atoms: C_49  and  O_51
REMARK                            x       y       z     vdW  Elec       q    Type
REMARK                         _______ _______ _______ _____ _____    ______ ____
ROOT
ATOM      1  C   UNL     1       7.182  -1.927  24.881  0.00  0.00    +0.181 A 
ATOM      2  O   UNL     1       7.668  -0.753  25.411  0.00  0.00    -0.451 OA
ATOM      3  C   UNL     1       8.190   0.183  24.553  0.00  0.00    +0.147 A 
ATOM      4  C   UNL     1       8.316  -0.018  23.184  0.00  0.00    +0.109 A 
ATOM      5  C   UNL     1       8.895   1.001  22.408  0.00  0.00    +0.135 A 
ATOM      6  C   UNL     1       9.259   2.235  22.981  0.00  0.00    +0.092 A 
ATOM      7  C   UNL     1       9.043   2.466  24.341  0.00  0.00    +0.131 A 
ATOM      8  C   UNL     1       7.782  -1.282  22.625  0.00  0.00    +0.238 A 
ATOM      9  O   UNL     1       7.861  -1.511  21.423  0.00  0.00    -0.283 OA
ATOM     10  C   UNL     1       8.572   1.402  25.125  0.00  0.00    +0.093 A 
ATOM     11  C   UNL     1       7.135  -2.245  23.569  0.00  0.00    +0.214 A 
ENDROOT
BRANCH   1  13
ATOM     12  C   UNL     1       5.486  -2.587  26.606  0.00  0.00    +0.015 A 
ATOM     13  C   UNL     1       6.631  -2.865  25.857  0.00  0.00    +0.025 A 
ATOM     14  C   UNL     1       7.398  -4.000  26.188  0.00  0.00    +0.060 A 
ATOM     15  C   UNL     1       7.040  -4.773  27.279  0.00  0.00    +0.159 A 
ATOM     16  C   UNL     1       5.940  -4.440  28.064  0.00  0.00    +0.158 A 
ATOM     17  C   UNL     1       5.127  -3.365  27.713  0.00  0.00    +0.050 A 
BRANCH  16  18
ATOM     18  O   UNL     1       5.710  -5.185  29.187  0.00  0.00    -0.503 OA
ATOM     19  H   UNL     1       5.608  -6.115  28.916  0.00  0.00    +0.292 HD
ENDBRANCH  16  18
BRANCH  15  20
ATOM     20  O   UNL     1       7.803  -5.857  27.617  0.00  0.00    -0.503 OA
ATOM     21  H   UNL     1       7.552  -6.543  26.965  0.00  0.00    +0.292 HD
ENDBRANCH  15  20
ENDBRANCH   1  13
BRANCH   5  22
ATOM     22  O   UNL     1       9.117   0.874  21.061  0.00  0.00    -0.506 OA
ATOM     23  H   UNL     1       9.652   1.638  20.755  0.00  0.00    +0.292 HD
ENDBRANCH   5  22
BRANCH   7  24
ATOM     24  O   UNL     1       9.257   3.757  24.811  0.00  0.00    -0.461 OA
BRANCH  24  25
ATOM     25  C   UNL     1       8.103   4.316  25.481  0.00  0.00    +0.339 C 
ATOM     26  O   UNL     1       6.916   4.049  24.728  0.00  0.00    -0.331 OA
ATOM     27  C   UNL     1       6.802   4.865  23.549  0.00  0.00    +0.179 C 
ATOM     28  C   UNL     1       6.533   6.306  24.002  0.00  0.00    +0.177 C 
ATOM     29  C   UNL     1       7.759   6.808  24.777  0.00  0.00    +0.180 C 
ATOM     30  C   UNL     1       8.196   5.818  25.872  0.00  0.00    +0.214 C 
BRANCH  28  31
ATOM     31  O   UNL     1       5.371   6.323  24.841  0.00  0.00    -0.386 OA
ATOM     32  H   UNL     1       5.235   5.438  25.219  0.00  0.00    +0.210 HD
ENDBRANCH  28  31
BRANCH  29  33
ATOM     33  O   UNL     1       8.858   7.104  23.897  0.00  0.00    -0.386 OA
ATOM     34  H   UNL     1       8.597   6.878  22.990  0.00  0.00    +0.210 HD
ENDBRANCH  29  33
BRANCH  30  35
ATOM     35  O   UNL     1       9.472   6.179  26.411  0.00  0.00    -0.383 OA
ATOM     36  H   UNL     1       9.314   6.601  27.278  0.00  0.00    +0.210 HD
ENDBRANCH  30  35
BRANCH  27  37
ATOM     37  C   UNL     1       5.683   4.304  22.667  0.00  0.00    +0.190 C 
BRANCH  37  38
ATOM     38  O   UNL     1       4.805   5.346  22.221  0.00  0.00    -0.392 OA
ATOM     39  H   UNL     1       3.972   4.937  21.925  0.00  0.00    +0.210 HD
ENDBRANCH  37  38
ENDBRANCH  27  37
ENDBRANCH  24  25
ENDBRANCH   7  24
BRANCH  11  40
ATOM     40  O   UNL     1       6.786  -3.530  23.198  0.00  0.00    -0.453 OA
BRANCH  40  41
ATOM     41  C   UNL     1       5.521  -3.834  22.582  0.00  0.00    +0.340 C 
ATOM     42  O   UNL     1       4.482  -3.868  23.572  0.00  0.00    -0.330 OA
ATOM     43  C   UNL     1       4.292  -5.041  24.404  0.00  0.00    +0.191 C 
ATOM     44  C   UNL     1       5.028  -6.377  24.045  0.00  0.00    +0.178 C 
ATOM     45  C   UNL     1       6.104  -6.223  22.974  0.00  0.00    +0.180 C 
ATOM     46  C   UNL     1       5.590  -5.215  21.926  0.00  0.00    +0.214 C 
BRANCH  46  47
ATOM     47  O   UNL     1       6.348  -5.272  20.722  0.00  0.00    -0.383 OA
ATOM     48  H   UNL     1       5.932  -5.903  20.100  0.00  0.00    +0.210 HD
ENDBRANCH  46  47
BRANCH  45  49
ATOM     49  O   UNL     1       7.349  -5.896  23.607  0.00  0.00    -0.386 OA
ATOM     50  H   UNL     1       8.055  -6.421  23.168  0.00  0.00    +0.210 HD
ENDBRANCH  45  49
BRANCH  44  51
ATOM     51  O   UNL     1       4.109  -7.388  23.602  0.00  0.00    -0.386 OA
ATOM     52  H   UNL     1       3.383  -7.443  24.252  0.00  0.00    +0.210 HD
ENDBRANCH  44  51
BRANCH  43  53
ATOM     53  C   UNL     1       2.770  -5.311  24.547  0.00  0.00    +0.266 C 
BRANCH  53  54
ATOM     54  O   UNL     1       2.322  -5.217  25.908  0.00  0.00    -0.462 OA
BRANCH  54  55
ATOM     55  C   UNL     1       2.332  -6.408  26.575  0.00  0.00    +0.318 C 
ATOM     56  O   UNL     1       3.172  -6.773  27.388  0.00  0.00    -0.250 OA
BRANCH  55  57
ATOM     57  C   UNL     1       1.188  -7.266  26.151  0.00  0.00    +0.240 C 
BRANCH  57  58
ATOM     58  C   UNL     1       1.590  -8.657  25.780  0.00  0.00    +0.316 C 
ATOM     59  O   UNL     1       2.287  -8.974  24.827  0.00  0.00    -0.250 OA
BRANCH  58  60
ATOM     60  O   UNL     1       1.091  -9.583  26.632  0.00  0.00    -0.480 OA
ATOM     61  H   UNL     1       1.559 -10.441  26.614  0.00  0.00    +0.295 HD
ENDBRANCH  58  60
ENDBRANCH  57  58
ENDBRANCH  55  57
ENDBRANCH  54  55
ENDBRANCH  53  54
ENDBRANCH  43  53
ENDBRANCH  40  41
ENDBRANCH  11  40
TORSDOF 22
ENDMDL
MODEL 4
REMARK VINA RESULT:      -6.8      2.322      4.946
REMARK  Name = 
REMARK  22 active torsions:
REMARK  status: ('A' for Active; 'I' for Inactive)
REMARK    1  A    between atoms: C_3  and  O_56
REMARK    2  A    between atoms: C_4  and  O_55
REMARK    3  A    between atoms: C_6  and  C_7
REMARK    4  A    between atoms: C_8  and  O_34
REMARK    5  A    between atoms: C_12  and  O_33
REMARK    6  A    between atoms: C_14  and  O_18
REMARK    7  A    between atoms: O_18  and  C_19
REMARK    8  A    between atoms: C_21  and  O_32
REMARK    9  A    between atoms: C_22  and  O_31
REMARK   10  A    between atoms: C_24  and  O_30
REMARK   11  A    between atoms: C_26  and  C_28
REMARK   12  A    between atoms: C_28  and  O_29
REMARK   13  A    between atoms: O_34  and  C_35
REMARK   14  A    between atoms: C_37  and  O_54
REMARK   15  A    between atoms: C_38  and  O_53
REMARK   16  A    between atoms: C_40  and  O_52
REMARK   17  A    between atoms: C_42  and  C_44
REMARK   18  A    between atoms: C_44  and  O_45
REMARK   19  A    between atoms: O_45  and  C_46
REMARK   20  A    between atoms: C_46  and  C_48
REMARK   21  A    between atoms: C_48  and  C_49
REMARK   22  A    between atoms: C_49  and  O_51
REMARK                            x       y       z     vdW  Elec       q    Type
REMARK                         _______ _______ _______ _____ _____    ______ ____
ROOT
ATOM      1  C   UNL     1       6.224  -0.246  24.376  0.00  0.00    +0.181 A 
ATOM      2  O   UNL     1       5.328  -1.272  24.577  0.00  0.00    -0.451 OA
ATOM      3  C   UNL     1       5.793  -2.563  24.529  0.00  0.00    +0.147 A 
ATOM      4  C   UNL     1       7.107  -2.893  24.220  0.00  0.00    +0.109 A 
ATOM      5  C   UNL     1       7.462  -4.252  24.169  0.00  0.00    +0.135 A 
ATOM      6  C   UNL     1       6.538  -5.259  24.508  0.00  0.00    +0.092 A 
ATOM      7  C   UNL     1       5.245  -4.916  24.910  0.00  0.00    +0.131 A 
ATOM      8  C   UNL     1       8.063  -1.779  24.013  0.00  0.00    +0.238 A 
ATOM      9  O   UNL     1       9.236  -2.011  23.744  0.00  0.00    -0.283 OA
ATOM     10  C   UNL     1       4.870  -3.565  24.846  0.00  0.00    +0.093 A 
ATOM     11  C   UNL     1       7.551  -0.382  24.163  0.00  0.00    +0.214 A 
ENDROOT
BRANCH   1  13
ATOM     12  C   UNL     1       4.921   1.540  25.561  0.00  0.00    +0.015 A 
ATOM     13  C   UNL     1       5.654   1.098  24.458  0.00  0.00    +0.025 A 
ATOM     14  C   UNL     1       5.683   1.898  23.299  0.00  0.00    +0.060 A 
ATOM     15  C   UNL     1       4.939   3.065  23.255  0.00  0.00    +0.159 A 
ATOM     16  C   UNL     1       4.150   3.454  24.334  0.00  0.00    +0.158 A 
ATOM     17  C   UNL     1       4.163   2.715  25.515  0.00  0.00    +0.050 A 
BRANCH  16  18
ATOM     18  O   UNL     1       3.359   4.558  24.179  0.00  0.00    -0.503 OA
ATOM     19  H   UNL     1       3.912   5.277  23.822  0.00  0.00    +0.292 HD
ENDBRANCH  16  18
BRANCH  15  20
ATOM     20  O   UNL     1       4.944   3.826  22.118  0.00  0.00    -0.503 OA
ATOM     21  H   UNL     1       4.365   4.585  22.333  0.00  0.00    +0.292 HD
ENDBRANCH  15  20
ENDBRANCH   1  13
BRANCH   5  22
ATOM     22  O   UNL     1       8.716  -4.680  23.815  0.00  0.00    -0.506 OA
ATOM     23  H   UNL     1       8.632  -5.501  23.285  0.00  0.00    +0.292 HD
ENDBRANCH   5  22
BRANCH   7  24
ATOM     24  O   UNL     1       4.437  -5.936  25.400  0.00  0.00    -0.461 OA
BRANCH  24  25
ATOM     25  C   UNL     1       3.255  -5.449  26.077  0.00  0.00    +0.339 C 
ATOM     26  O   UNL     1       3.484  -5.382  27.488  0.00  0.00    -0.331 OA
ATOM     27  C   UNL     1       3.483  -6.675  28.119  0.00  0.00    +0.179 C 
ATOM     28  C   UNL     1       2.045  -7.209  28.089  0.00  0.00    +0.177 C 
ATOM     29  C   UNL     1       1.638  -7.426  26.625  0.00  0.00    +0.180 C 
ATOM     30  C   UNL     1       1.926  -6.188  25.756  0.00  0.00    +0.214 C 
BRANCH  28  31
ATOM     31  O   UNL     1       1.178  -6.251  28.712  0.00  0.00    -0.386 OA
ATOM     32  H   UNL     1       1.148  -5.445  28.170  0.00  0.00    +0.210 HD
ENDBRANCH  28  31
BRANCH  29  33
ATOM     33  O   UNL     1       2.270  -8.592  26.067  0.00  0.00    -0.386 OA
ATOM     34  H   UNL     1       2.756  -9.048  26.772  0.00  0.00    +0.210 HD
ENDBRANCH  29  33
BRANCH  30  35
ATOM     35  O   UNL     1       1.775  -6.492  24.365  0.00  0.00    -0.383 OA
ATOM     36  H   UNL     1       0.821  -6.449  24.160  0.00  0.00    +0.210 HD
ENDBRANCH  30  35
BRANCH  27  37
ATOM     37  C   UNL     1       4.030  -6.529  29.542  0.00  0.00    +0.190 C 
BRANCH  37  38
ATOM     38  O   UNL     1       3.410  -7.465  30.433  0.00  0.00    -0.392 OA
ATOM     39  H   UNL     1       2.665  -7.019  30.874  0.00  0.00    +0.210 HD
ENDBRANCH  37  38
ENDBRANCH  27  37
ENDBRANCH  24  25
ENDBRANCH   7  24
BRANCH  11  40
ATOM     40  O   UNL     1       8.294   0.725  23.800  0.00  0.00    -0.453 OA
BRANCH  40  41
ATOM     41  C   UNL     1       9.118   1.439  24.740  0.00  0.00    +0.340 C 
ATOM     42  O   UNL     1       8.760   2.829  24.759  0.00  0.00    -0.330 OA
ATOM     43  C   UNL     1       9.249   3.733  23.735  0.00  0.00    +0.191 C 
ATOM     44  C   UNL     1      10.388   3.267  22.765  0.00  0.00    +0.178 C 
ATOM     45  C   UNL     1      10.691   1.772  22.838  0.00  0.00    +0.180 C 
ATOM     46  C   UNL     1      10.585   1.338  24.314  0.00  0.00    +0.214 C 
BRANCH  46  47
ATOM     47  O   UNL     1      11.189   0.068  24.535  0.00  0.00    -0.383 OA
ATOM     48  H   UNL     1      11.076  -0.494  23.742  0.00  0.00    +0.210 HD
ENDBRANCH  46  47
BRANCH  45  49
ATOM     49  O   UNL     1       9.842   1.079  21.912  0.00  0.00    -0.386 OA
ATOM     50  H   UNL     1       9.124   1.695  21.645  0.00  0.00    +0.210 HD
ENDBRANCH  45  49
BRANCH  44  51
ATOM     51  O   UNL     1      11.614   3.975  23.008  0.00  0.00    -0.386 OA
ATOM     52  H   UNL     1      11.389   4.891  23.260  0.00  0.00    +0.210 HD
ENDBRANCH  44  51
BRANCH  43  53
ATOM     53  C   UNL     1       9.653   5.074  24.404  0.00  0.00    +0.266 C 
BRANCH  53  54
ATOM     54  O   UNL     1       9.584   6.183  23.494  0.00  0.00    -0.462 OA
BRANCH  54  55
ATOM     55  C   UNL     1       8.315   6.491  23.098  0.00  0.00    +0.318 C 
ATOM     56  O   UNL     1       7.852   6.334  21.975  0.00  0.00    -0.250 OA
BRANCH  55  57
ATOM     57  C   UNL     1       7.542   7.107  24.214  0.00  0.00    +0.240 C 
BRANCH  57  58
ATOM     58  C   UNL     1       6.205   6.476  24.434  0.00  0.00    +0.316 C 
ATOM     59  O   UNL     1       5.827   5.931  25.461  0.00  0.00    -0.250 OA
BRANCH  58  60
ATOM     60  O   UNL     1       5.408   6.563  23.342  0.00  0.00    -0.480 OA
ATOM     61  H   UNL     1       5.767   6.124  22.545  0.00  0.00    +0.295 HD
ENDBRANCH  58  60
ENDBRANCH  57  58
ENDBRANCH  55  57
ENDBRANCH  54  55
ENDBRANCH  53  54
ENDBRANCH  43  53
ENDBRANCH  40  41
ENDBRANCH  11  40
TORSDOF 22
ENDMDL
MODEL 5
REMARK VINA RESULT:      -6.6      2.438     10.698
REMARK  Name = 
REMARK  22 active torsions:
REMARK  status: ('A' for Active; 'I' for Inactive)
REMARK    1  A    between atoms: C_3  and  O_56
REMARK    2  A    between atoms: C_4  and  O_55
REMARK    3  A    between atoms: C_6  and  C_7
REMARK    4  A    between atoms: C_8  and  O_34
REMARK    5  A    between atoms: C_12  and  O_33
REMARK    6  A    between atoms: C_14  and  O_18
REMARK    7  A    between atoms: O_18  and  C_19
REMARK    8  A    between atoms: C_21  and  O_32
REMARK    9  A    between atoms: C_22  and  O_31
REMARK   10  A    between atoms: C_24  and  O_30
REMARK   11  A    between atoms: C_26  and  C_28
REMARK   12  A    between atoms: C_28  and  O_29
REMARK   13  A    between atoms: O_34  and  C_35
REMARK   14  A    between atoms: C_37  and  O_54
REMARK   15  A    between atoms: C_38  and  O_53
REMARK   16  A    between atoms: C_40  and  O_52
REMARK   17  A    between atoms: C_42  and  C_44
REMARK   18  A    between atoms: C_44  and  O_45
REMARK   19  A    between atoms: O_45  and  C_46
REMARK   20  A    between atoms: C_46  and  C_48
REMARK   21  A    between atoms: C_48  and  C_49
REMARK   22  A    between atoms: C_49  and  O_51
REMARK                            x       y       z     vdW  Elec       q    Type
REMARK                         _______ _______ _______ _____ _____    ______ ____
ROOT
ATOM      1  C   UNL     1       6.547  -1.921  25.621  0.00  0.00    +0.181 A 
ATOM      2  O   UNL     1       6.736  -0.733  24.951  0.00  0.00    -0.451 OA
ATOM      3  C   UNL     1       5.934   0.333  25.276  0.00  0.00    +0.147 A 
ATOM      4  C   UNL     1       4.898   0.259  26.198  0.00  0.00    +0.109 A 
ATOM      5  C   UNL     1       4.123   1.409  26.428  0.00  0.00    +0.135 A 
ATOM      6  C   UNL     1       4.438   2.635  25.811  0.00  0.00    +0.092 A 
ATOM      7  C   UNL     1       5.539   2.726  24.957  0.00  0.00    +0.131 A 
ATOM      8  C   UNL     1       4.710  -1.023  26.918  0.00  0.00    +0.238 A 
ATOM      9  O   UNL     1       3.815  -1.144  27.746  0.00  0.00    -0.283 OA
ATOM     10  C   UNL     1       6.234   1.546  24.648  0.00  0.00    +0.093 A 
ATOM     11  C   UNL     1       5.656  -2.141  26.612  0.00  0.00    +0.214 A 
ENDROOT
BRANCH   1  13
ATOM     12  C   UNL     1       7.214  -3.812  24.114  0.00  0.00    +0.015 A 
ATOM     13  C   UNL     1       7.449  -3.003  25.228  0.00  0.00    +0.025 A 
ATOM     14  C   UNL     1       8.478  -3.361  26.120  0.00  0.00    +0.060 A 
ATOM     15  C   UNL     1       9.188  -4.530  25.911  0.00  0.00    +0.159 A 
ATOM     16  C   UNL     1       8.892  -5.368  24.839  0.00  0.00    +0.158 A 
ATOM     17  C   UNL     1       7.927  -4.998  23.905  0.00  0.00    +0.050 A 
BRANCH  16  18
ATOM     18  O   UNL     1       9.561  -6.558  24.757  0.00  0.00    -0.503 OA
ATOM     19  H   UNL     1       8.995  -7.189  24.276  0.00  0.00    +0.292 HD
ENDBRANCH  16  18
BRANCH  15  20
ATOM     20  O   UNL     1      10.168  -4.892  26.795  0.00  0.00    -0.503 OA
ATOM     21  H   UNL     1      10.966  -4.421  26.479  0.00  0.00    +0.292 HD
ENDBRANCH  15  20
ENDBRANCH   1  13
BRANCH   5  22
ATOM     22  O   UNL     1       3.042   1.421  27.272  0.00  0.00    -0.506 OA
ATOM     23  H   UNL     1       2.788   2.352  27.448  0.00  0.00    +0.292 HD
ENDBRANCH   5  22
BRANCH   7  24
ATOM     24  O   UNL     1       5.905   3.994  24.519  0.00  0.00    -0.461 OA
BRANCH  24  25
ATOM     25  C   UNL     1       7.217   4.029  23.912  0.00  0.00    +0.339 C 
ATOM     26  O   UNL     1       8.083   4.893  24.654  0.00  0.00    -0.331 OA
ATOM     27  C   UNL     1       7.796   6.288  24.447  0.00  0.00    +0.179 C 
ATOM     28  C   UNL     1       8.204   6.641  23.011  0.00  0.00    +0.177 C 
ATOM     29  C   UNL     1       7.309   5.853  22.044  0.00  0.00    +0.180 C 
ATOM     30  C   UNL     1       7.263   4.354  22.392  0.00  0.00    +0.214 C 
BRANCH  28  31
ATOM     31  O   UNL     1       9.581   6.290  22.816  0.00  0.00    -0.386 OA
ATOM     32  H   UNL     1       9.708   5.353  23.040  0.00  0.00    +0.210 HD
ENDBRANCH  28  31
BRANCH  29  33
ATOM     33  O   UNL     1       5.979   6.399  21.988  0.00  0.00    -0.386 OA
ATOM     34  H   UNL     1       5.959   7.095  21.312  0.00  0.00    +0.210 HD
ENDBRANCH  29  33
BRANCH  30  35
ATOM     35  O   UNL     1       6.242   3.685  21.645  0.00  0.00    -0.383 OA
ATOM     36  H   UNL     1       5.723   3.149  22.276  0.00  0.00    +0.210 HD
ENDBRANCH  30  35
BRANCH  27  37
ATOM     37  C   UNL     1       8.555   7.108  25.495  0.00  0.00    +0.190 C 
BRANCH  37  38
ATOM     38  O   UNL     1       9.769   6.453  25.884  0.00  0.00    -0.392 OA
ATOM     39  H   UNL     1      10.278   6.250  25.079  0.00  0.00    +0.210 HD
ENDBRANCH  37  38
ENDBRANCH  27  37
ENDBRANCH  24  25
ENDBRANCH   7  24
BRANCH  11  40
ATOM     40  O   UNL     1       5.456  -3.429  27.067  0.00  0.00    -0.453 OA
BRANCH  40  41
ATOM     41  C   UNL     1       4.818  -4.438  26.263  0.00  0.00    +0.340 C 
ATOM     42  O   UNL     1       3.409  -4.177  26.164  0.00  0.00    -0.330 OA
ATOM     43  C   UNL     1       2.510  -4.550  27.240  0.00  0.00    +0.191 C 
ATOM     44  C   UNL     1       3.018  -5.485  28.390  0.00  0.00    +0.178 C 
ATOM     45  C   UNL     1       4.530  -5.701  28.390  0.00  0.00    +0.180 C 
ATOM     46  C   UNL     1       4.995  -5.808  26.923  0.00  0.00    +0.214 C 
BRANCH  46  47
ATOM     47  O   UNL     1       6.304  -6.359  26.825  0.00  0.00    -0.383 OA
ATOM     48  H   UNL     1       6.660  -6.203  25.927  0.00  0.00    +0.210 HD
ENDBRANCH  46  47
BRANCH  45  49
ATOM     49  O   UNL     1       5.147  -4.672  29.176  0.00  0.00    -0.386 OA
ATOM     50  H   UNL     1       6.000  -4.439  28.748  0.00  0.00    +0.210 HD
ENDBRANCH  45  49
BRANCH  44  51
ATOM     51  O   UNL     1       2.391  -6.777  28.339  0.00  0.00    -0.386 OA
ATOM     52  H   UNL     1       1.635  -6.770  28.956  0.00  0.00    +0.210 HD
ENDBRANCH  44  51
BRANCH  43  53
ATOM     53  C   UNL     1       1.213  -5.141  26.625  0.00  0.00    +0.266 C 
BRANCH  53  54
ATOM     54  O   UNL     1       1.301  -5.289  25.199  0.00  0.00    -0.462 OA
BRANCH  54  55
ATOM     55  C   UNL     1       1.733  -6.520  24.799  0.00  0.00    +0.318 C 
ATOM     56  O   UNL     1       1.780  -7.529  25.492  0.00  0.00    -0.250 OA
BRANCH  55  57
ATOM     57  C   UNL     1       2.202  -6.487  23.384  0.00  0.00    +0.240 C 
BRANCH  57  58
ATOM     58  C   UNL     1       3.670  -6.245  23.247  0.00  0.00    +0.316 C 
ATOM     59  O   UNL     1       4.193  -5.299  22.676  0.00  0.00    -0.250 OA
BRANCH  58  60
ATOM     60  O   UNL     1       4.410  -7.214  23.838  0.00  0.00    -0.480 OA
ATOM     61  H   UNL     1       4.712  -6.995  24.742  0.00  0.00    +0.295 HD
ENDBRANCH  58  60
ENDBRANCH  57  58
ENDBRANCH  55  57
ENDBRANCH  54  55
ENDBRANCH  53  54
ENDBRANCH  43  53
ENDBRANCH  40  41
ENDBRANCH  11  40
TORSDOF 22
ENDMDL
MODEL 6
REMARK VINA RESULT:      -6.5      2.507     10.441
REMARK  Name = 
REMARK  22 active torsions:
REMARK  status: ('A' for Active; 'I' for Inactive)
REMARK    1  A    between atoms: C_3  and  O_56
REMARK    2  A    between atoms: C_4  and  O_55
REMARK    3  A    between atoms: C_6  and  C_7
REMARK    4  A    between atoms: C_8  and  O_34
REMARK    5  A    between atoms: C_12  and  O_33
REMARK    6  A    between atoms: C_14  and  O_18
REMARK    7  A    between atoms: O_18  and  C_19
REMARK    8  A    between atoms: C_21  and  O_32
REMARK    9  A    between atoms: C_22  and  O_31
REMARK   10  A    between atoms: C_24  and  O_30
REMARK   11  A    between atoms: C_26  and  C_28
REMARK   12  A    between atoms: C_28  and  O_29
REMARK   13  A    between atoms: O_34  and  C_35
REMARK   14  A    between atoms: C_37  and  O_54
REMARK   15  A    between atoms: C_38  and  O_53
REMARK   16  A    between atoms: C_40  and  O_52
REMARK   17  A    between atoms: C_42  and  C_44
REMARK   18  A    between atoms: C_44  and  O_45
REMARK   19  A    between atoms: O_45  and  C_46
REMARK   20  A    between atoms: C_46  and  C_48
REMARK   21  A    between atoms: C_48  and  C_49
REMARK   22  A    between atoms: C_49  and  O_51
REMARK                            x       y       z     vdW  Elec       q    Type
REMARK                         _______ _______ _______ _____ _____    ______ ____
ROOT
ATOM      1  C   UNL     1       6.053  -0.952  26.204  0.00  0.00    +0.181 A 
ATOM      2  O   UNL     1       6.168   0.361  25.808  0.00  0.00    -0.451 OA
ATOM      3  C   UNL     1       7.265   0.725  25.066  0.00  0.00    +0.147 A 
ATOM      4  C   UNL     1       8.299  -0.147  24.751  0.00  0.00    +0.109 A 
ATOM      5  C   UNL     1       9.388   0.346  24.011  0.00  0.00    +0.135 A 
ATOM      6  C   UNL     1       9.397   1.666  23.519  0.00  0.00    +0.092 A 
ATOM      7  C   UNL     1       8.310   2.510  23.760  0.00  0.00    +0.131 A 
ATOM      8  C   UNL     1       8.160  -1.559  25.177  0.00  0.00    +0.238 A 
ATOM      9  O   UNL     1       9.039  -2.374  24.921  0.00  0.00    -0.283 OA
ATOM     10  C   UNL     1       7.284   2.042  24.595  0.00  0.00    +0.093 A 
ATOM     11  C   UNL     1       6.913  -1.950  25.903  0.00  0.00    +0.214 A 
ENDROOT
BRANCH   1  13
ATOM     12  C   UNL     1       4.748  -1.001  28.346  0.00  0.00    +0.015 A 
ATOM     13  C   UNL     1       4.852  -1.262  26.978  0.00  0.00    +0.025 A 
ATOM     14  C   UNL     1       3.847  -2.030  26.356  0.00  0.00    +0.060 A 
ATOM     15  C   UNL     1       2.820  -2.557  27.119  0.00  0.00    +0.159 A 
ATOM     16  C   UNL     1       2.771  -2.354  28.496  0.00  0.00    +0.158 A 
ATOM     17  C   UNL     1       3.714  -1.541  29.119  0.00  0.00    +0.050 A 
BRANCH  16  18
ATOM     18  O   UNL     1       1.790  -2.996  29.199  0.00  0.00    -0.503 OA
ATOM     19  H   UNL     1       2.036  -2.982  30.142  0.00  0.00    +0.292 HD
ENDBRANCH  16  18
BRANCH  15  20
ATOM     20  O   UNL     1       1.861  -3.327  26.520  0.00  0.00    -0.503 OA
ATOM     21  H   UNL     1       1.163  -2.690  26.264  0.00  0.00    +0.292 HD
ENDBRANCH  15  20
ENDBRANCH   1  13
BRANCH   5  22
ATOM     22  O   UNL     1      10.484  -0.418  23.702  0.00  0.00    -0.506 OA
ATOM     23  H   UNL     1      10.179  -1.292  23.379  0.00  0.00    +0.292 HD
ENDBRANCH   5  22
BRANCH   7  24
ATOM     24  O   UNL     1       8.296   3.736  23.104  0.00  0.00    -0.461 OA
BRANCH  24  25
ATOM     25  C   UNL     1       7.715   4.797  23.896  0.00  0.00    +0.339 C 
ATOM     26  O   UNL     1       6.308   4.587  24.051  0.00  0.00    -0.331 OA
ATOM     27  C   UNL     1       5.562   4.880  22.856  0.00  0.00    +0.179 C 
ATOM     28  C   UNL     1       5.601   6.398  22.642  0.00  0.00    +0.177 C 
ATOM     29  C   UNL     1       7.053   6.814  22.373  0.00  0.00    +0.180 C 
ATOM     30  C   UNL     1       8.020   6.249  23.430  0.00  0.00    +0.214 C 
BRANCH  28  31
ATOM     31  O   UNL     1       5.104   7.050  23.818  0.00  0.00    -0.386 OA
ATOM     32  H   UNL     1       5.223   8.011  23.728  0.00  0.00    +0.210 HD
ENDBRANCH  28  31
BRANCH  29  33
ATOM     33  O   UNL     1       7.476   6.439  21.050  0.00  0.00    -0.386 OA
ATOM     34  H   UNL     1       7.059   5.594  20.820  0.00  0.00    +0.210 HD
ENDBRANCH  29  33
BRANCH  30  35
ATOM     35  O   UNL     1       9.382   6.435  23.030  0.00  0.00    -0.383 OA
ATOM     36  H   UNL     1       9.375   6.962  22.207  0.00  0.00    +0.210 HD
ENDBRANCH  30  35
BRANCH  27  37
ATOM     37  C   UNL     1       4.137   4.343  23.022  0.00  0.00    +0.190 C 
BRANCH  37  38
ATOM     38  O   UNL     1       4.033   2.997  22.540  0.00  0.00    -0.392 OA
ATOM     39  H   UNL     1       4.903   2.570  22.634  0.00  0.00    +0.210 HD
ENDBRANCH  37  38
ENDBRANCH  27  37
ENDBRANCH  24  25
ENDBRANCH   7  24
BRANCH  11  40
ATOM     40  O   UNL     1       6.764  -3.178  26.518  0.00  0.00    -0.453 OA
BRANCH  40  41
ATOM     41  C   UNL     1       6.967  -4.418  25.816  0.00  0.00    +0.340 C 
ATOM     42  O   UNL     1       5.759  -4.816  25.150  0.00  0.00    -0.330 OA
ATOM     43  C   UNL     1       4.693  -5.473  25.881  0.00  0.00    +0.191 C 
ATOM     44  C   UNL     1       4.957  -6.005  27.332  0.00  0.00    +0.178 C 
ATOM     45  C   UNL     1       6.275  -5.527  27.936  0.00  0.00    +0.180 C 
ATOM     46  C   UNL     1       7.335  -5.518  26.816  0.00  0.00    +0.214 C 
BRANCH  46  47
ATOM     47  O   UNL     1       8.656  -5.436  27.341  0.00  0.00    -0.383 OA
ATOM     48  H   UNL     1       9.070  -4.594  27.064  0.00  0.00    +0.210 HD
ENDBRANCH  46  47
BRANCH  45  49
ATOM     49  O   UNL     1       6.054  -4.279  28.609  0.00  0.00    -0.386 OA
ATOM     50  H   UNL     1       5.460  -3.736  28.045  0.00  0.00    +0.210 HD
ENDBRANCH  45  49
BRANCH  44  51
ATOM     51  O   UNL     1       4.947  -7.440  27.381  0.00  0.00    -0.386 OA
ATOM     52  H   UNL     1       5.603  -7.725  28.045  0.00  0.00    +0.210 HD
ENDBRANCH  44  51
BRANCH  43  53
ATOM     53  C   UNL     1       4.119  -6.619  25.005  0.00  0.00    +0.266 C 
BRANCH  53  54
ATOM     54  O   UNL     1       4.887  -6.833  23.810  0.00  0.00    -0.462 OA
BRANCH  54  55
ATOM     55  C   UNL     1       4.580  -5.971  22.798  0.00  0.00    +0.318 C 
ATOM     56  O   UNL     1       3.520  -5.374  22.653  0.00  0.00    -0.250 OA
BRANCH  55  57
ATOM     57  C   UNL     1       5.707  -5.868  21.826  0.00  0.00    +0.240 C 
BRANCH  57  58
ATOM     58  C   UNL     1       6.326  -4.509  21.771  0.00  0.00    +0.316 C 
ATOM     59  O   UNL     1       7.412  -4.194  22.235  0.00  0.00    -0.250 OA
BRANCH  58  60
ATOM     60  O   UNL     1       5.541  -3.610  21.131  0.00  0.00    -0.480 OA
ATOM     61  H   UNL     1       5.581  -3.662  20.155  0.00  0.00    +0.295 HD
ENDBRANCH  58  60
ENDBRANCH  57  58
ENDBRANCH  55  57
ENDBRANCH  54  55
ENDBRANCH  53  54
ENDBRANCH  43  53
ENDBRANCH  40  41
ENDBRANCH  11  40
TORSDOF 22
ENDMDL
MODEL 7
REMARK VINA RESULT:      -6.5      1.750      2.659
REMARK  Name = 
REMARK  22 active torsions:
REMARK  status: ('A' for Active; 'I' for Inactive)
REMARK    1  A    between atoms: C_3  and  O_56
REMARK    2  A    between atoms: C_4  and  O_55
REMARK    3  A    between atoms: C_6  and  C_7
REMARK    4  A    between atoms: C_8  and  O_34
REMARK    5  A    between atoms: C_12  and  O_33
REMARK    6  A    between atoms: C_14  and  O_18
REMARK    7  A    between atoms: O_18  and  C_19
REMARK    8  A    between atoms: C_21  and  O_32
REMARK    9  A    between atoms: C_22  and  O_31
REMARK   10  A    between atoms: C_24  and  O_30
REMARK   11  A    between atoms: C_26  and  C_28
REMARK   12  A    between atoms: C_28  and  O_29
REMARK   13  A    between atoms: O_34  and  C_35
REMARK   14  A    between atoms: C_37  and  O_54
REMARK   15  A    between atoms: C_38  and  O_53
REMARK   16  A    between atoms: C_40  and  O_52
REMARK   17  A    between atoms: C_42  and  C_44
REMARK   18  A    between atoms: C_44  and  O_45
REMARK   19  A    between atoms: O_45  and  C_46
REMARK   20  A    between atoms: C_46  and  C_48
REMARK   21  A    between atoms: C_48  and  C_49
REMARK   22  A    between atoms: C_49  and  O_51
REMARK                            x       y       z     vdW  Elec       q    Type
REMARK                         _______ _______ _______ _____ _____    ______ ____
ROOT
ATOM      1  C   UNL     1       7.228   0.166  25.592  0.00  0.00    +0.181 A 
ATOM      2  O   UNL     1       6.913  -1.171  25.681  0.00  0.00    -0.451 OA
ATOM      3  C   UNL     1       6.020  -1.568  26.646  0.00  0.00    +0.147 A 
ATOM      4  C   UNL     1       5.469  -0.702  27.582  0.00  0.00    +0.109 A 
ATOM      5  C   UNL     1       4.589  -1.228  28.544  0.00  0.00    +0.135 A 
ATOM      6  C   UNL     1       4.199  -2.580  28.512  0.00  0.00    +0.092 A 
ATOM      7  C   UNL     1       4.684  -3.425  27.511  0.00  0.00    +0.131 A 
ATOM      8  C   UNL     1       5.810   0.736  27.471  0.00  0.00    +0.238 A 
ATOM      9  O   UNL     1       5.349   1.547  28.266  0.00  0.00    -0.283 OA
ATOM     10  C   UNL     1       5.649  -2.916  26.628  0.00  0.00    +0.093 A 
ATOM     11  C   UNL     1       6.712   1.155  26.354  0.00  0.00    +0.214 A 
ENDROOT
BRANCH   1  13
ATOM     12  C   UNL     1       9.542   0.667  24.763  0.00  0.00    +0.015 A 
ATOM     13  C   UNL     1       8.173   0.510  24.532  0.00  0.00    +0.025 A 
ATOM     14  C   UNL     1       7.651   0.888  23.279  0.00  0.00    +0.060 A 
ATOM     15  C   UNL     1       8.485   1.460  22.334  0.00  0.00    +0.159 A 
ATOM     16  C   UNL     1       9.833   1.682  22.607  0.00  0.00    +0.158 A 
ATOM     17  C   UNL     1      10.385   1.252  23.811  0.00  0.00    +0.050 A 
BRANCH  16  18
ATOM     18  O   UNL     1      10.570   2.349  21.669  0.00  0.00    -0.503 OA
ATOM     19  H   UNL     1      10.243   3.266  21.624  0.00  0.00    +0.292 HD
ENDBRANCH  16  18
BRANCH  15  20
ATOM     20  O   UNL     1       7.971   1.854  21.129  0.00  0.00    -0.503 OA
ATOM     21  H   UNL     1       7.040   2.084  21.327  0.00  0.00    +0.292 HD
ENDBRANCH  15  20
ENDBRANCH   1  13
BRANCH   5  22
ATOM     22  O   UNL     1       4.041  -0.467  29.545  0.00  0.00    -0.506 OA
ATOM     23  H   UNL     1       3.245  -0.925  29.890  0.00  0.00    +0.292 HD
ENDBRANCH   5  22
BRANCH   7  24
ATOM     24  O   UNL     1       4.130  -4.698  27.426  0.00  0.00    -0.461 OA
BRANCH  24  25
ATOM     25  C   UNL     1       4.848  -5.570  26.523  0.00  0.00    +0.339 C 
ATOM     26  O   UNL     1       4.594  -5.197  25.166  0.00  0.00    -0.331 OA
ATOM     27  C   UNL     1       3.282  -5.579  24.715  0.00  0.00    +0.179 C 
ATOM     28  C   UNL     1       3.254  -7.108  24.599  0.00  0.00    +0.177 C 
ATOM     29  C   UNL     1       3.436  -7.705  26.002  0.00  0.00    +0.180 C 
ATOM     30  C   UNL     1       4.644  -7.097  26.735  0.00  0.00    +0.214 C 
BRANCH  28  31
ATOM     31  O   UNL     1       4.317  -7.532  23.735  0.00  0.00    -0.386 OA
ATOM     32  H   UNL     1       4.074  -7.347  22.812  0.00  0.00    +0.210 HD
ENDBRANCH  28  31
BRANCH  29  33
ATOM     33  O   UNL     1       2.242  -7.567  26.794  0.00  0.00    -0.386 OA
ATOM     34  H   UNL     1       2.496  -7.285  27.687  0.00  0.00    +0.210 HD
ENDBRANCH  29  33
BRANCH  30  35
ATOM     35  O   UNL     1       4.650  -7.477  28.116  0.00  0.00    -0.383 OA
ATOM     36  H   UNL     1       3.792  -7.207  28.496  0.00  0.00    +0.210 HD
ENDBRANCH  30  35
BRANCH  27  37
ATOM     37  C   UNL     1       2.996  -4.880  23.382  0.00  0.00    +0.190 C 
BRANCH  37  38
ATOM     38  O   UNL     1       4.195  -4.725  22.612  0.00  0.00    -0.392 OA
ATOM     39  H   UNL     1       4.937  -4.582  23.227  0.00  0.00    +0.210 HD
ENDBRANCH  37  38
ENDBRANCH  27  37
ENDBRANCH  24  25
ENDBRANCH   7  24
BRANCH  11  40
ATOM     40  O   UNL     1       7.254   2.424  26.272  0.00  0.00    -0.453 OA
BRANCH  40  41
ATOM     41  C   UNL     1       6.678   3.453  25.447  0.00  0.00    +0.340 C 
ATOM     42  O   UNL     1       7.712   4.194  24.782  0.00  0.00    -0.330 OA
ATOM     43  C   UNL     1       8.437   5.240  25.478  0.00  0.00    +0.191 C 
ATOM     44  C   UNL     1       7.916   5.760  26.861  0.00  0.00    +0.178 C 
ATOM     45  C   UNL     1       6.809   4.901  27.468  0.00  0.00    +0.180 C 
ATOM     46  C   UNL     1       5.890   4.431  26.323  0.00  0.00    +0.214 C 
BRANCH  46  47
ATOM     47  O   UNL     1       4.649   3.934  26.813  0.00  0.00    -0.383 OA
ATOM     48  H   UNL     1       4.784   3.512  27.686  0.00  0.00    +0.210 HD
ENDBRANCH  46  47
BRANCH  45  49
ATOM     49  O   UNL     1       7.406   3.868  28.266  0.00  0.00    -0.386 OA
ATOM     50  H   UNL     1       7.636   3.123  27.667  0.00  0.00    +0.210 HD
ENDBRANCH  45  49
BRANCH  44  51
ATOM     51  O   UNL     1       7.425   7.107  26.771  0.00  0.00    -0.386 OA
ATOM     52  H   UNL     1       6.450   7.074  26.756  0.00  0.00    +0.210 HD
ENDBRANCH  44  51
BRANCH  43  53
ATOM     53  C   UNL     1       8.632   6.440  24.512  0.00  0.00    +0.266 C 
BRANCH  53  54
ATOM     54  O   UNL     1       7.385   6.959  24.023  0.00  0.00    -0.462 OA
BRANCH  54  55
ATOM     55  C   UNL     1       7.071   6.538  22.764  0.00  0.00    +0.318 C 
ATOM     56  O   UNL     1       7.859   6.358  21.844  0.00  0.00    -0.250 OA
BRANCH  55  57
ATOM     57  C   UNL     1       5.597   6.360  22.613  0.00  0.00    +0.240 C 
BRANCH  57  58
ATOM     58  C   UNL     1       5.165   4.930  22.623  0.00  0.00    +0.316 C 
ATOM     59  O   UNL     1       4.121   4.497  23.089  0.00  0.00    -0.250 OA
BRANCH  58  60
ATOM     60  O   UNL     1       6.075   4.112  22.043  0.00  0.00    -0.480 OA
ATOM     61  H   UNL     1       6.114   3.214  22.429  0.00  0.00    +0.295 HD
ENDBRANCH  58  60
ENDBRANCH  57  58
ENDBRANCH  55  57
ENDBRANCH  54  55
ENDBRANCH  53  54
ENDBRANCH  43  53
ENDBRANCH  40  41
ENDBRANCH  11  40
TORSDOF 22
ENDMDL
MODEL 8
REMARK VINA RESULT:      -6.5      2.492     10.975
REMARK  Name = 
REMARK  22 active torsions:
REMARK  status: ('A' for Active; 'I' for Inactive)
REMARK    1  A    between atoms: C_3  and  O_56
REMARK    2  A    between atoms: C_4  and  O_55
REMARK    3  A    between atoms: C_6  and  C_7
REMARK    4  A    between atoms: C_8  and  O_34
REMARK    5  A    between atoms: C_12  and  O_33
REMARK    6  A    between atoms: C_14  and  O_18
REMARK    7  A    between atoms: O_18  and  C_19
REMARK    8  A    between atoms: C_21  and  O_32
REMARK    9  A    between atoms: C_22  and  O_31
REMARK   10  A    between atoms: C_24  and  O_30
REMARK   11  A    between atoms: C_26  and  C_28
REMARK   12  A    between atoms: C_28  and  O_29
REMARK   13  A    between atoms: O_34  and  C_35
REMARK   14  A    between atoms: C_37  and  O_54
REMARK   15  A    between atoms: C_38  and  O_53
REMARK   16  A    between atoms: C_40  and  O_52
REMARK   17  A    between atoms: C_42  and  C_44
REMARK   18  A    between atoms: C_44  and  O_45
REMARK   19  A    between atoms: O_45  and  C_46
REMARK   20  A    between atoms: C_46  and  C_48
REMARK   21  A    between atoms: C_48  and  C_49
REMARK   22  A    between atoms: C_49  and  O_51
REMARK                            x       y       z     vdW  Elec       q    Type
REMARK                         _______ _______ _______ _____ _____    ______ ____
ROOT
ATOM      1  C   UNL     1       6.106  -2.200  26.204  0.00  0.00    +0.181 A 
ATOM      2  O   UNL     1       6.311  -1.086  25.421  0.00  0.00    -0.451 OA
ATOM      3  C   UNL     1       5.528   0.019  25.642  0.00  0.00    +0.147 A 
ATOM      4  C   UNL     1       4.493   0.053  26.568  0.00  0.00    +0.109 A 
ATOM      5  C   UNL     1       3.737   1.232  26.686  0.00  0.00    +0.135 A 
ATOM      6  C   UNL     1       4.070   2.386  25.952  0.00  0.00    +0.092 A 
ATOM      7  C   UNL     1       5.170   2.375  25.091  0.00  0.00    +0.131 A 
ATOM      8  C   UNL     1       4.288  -1.150  27.410  0.00  0.00    +0.238 A 
ATOM      9  O   UNL     1       3.393  -1.175  28.248  0.00  0.00    -0.283 OA
ATOM     10  C   UNL     1       5.845   1.160  24.897  0.00  0.00    +0.093 A 
ATOM     11  C   UNL     1       5.214  -2.307  27.213  0.00  0.00    +0.214 A 
ENDROOT
BRANCH   1  13
ATOM     12  C   UNL     1       8.074  -3.663  26.730  0.00  0.00    +0.015 A 
ATOM     13  C   UNL     1       6.989  -3.329  25.917  0.00  0.00    +0.025 A 
ATOM     14  C   UNL     1       6.851  -3.975  24.673  0.00  0.00    +0.060 A 
ATOM     15  C   UNL     1       7.819  -4.873  24.258  0.00  0.00    +0.159 A 
ATOM     16  C   UNL     1       8.937  -5.138  25.044  0.00  0.00    +0.158 A 
ATOM     17  C   UNL     1       9.057  -4.565  26.308  0.00  0.00    +0.050 A 
BRANCH  16  18
ATOM     18  O   UNL     1       9.904  -5.951  24.522  0.00  0.00    -0.503 OA
ATOM     19  H   UNL     1       9.463  -6.670  24.035  0.00  0.00    +0.292 HD
ENDBRANCH  16  18
BRANCH  15  20
ATOM     20  O   UNL     1       7.700  -5.477  23.036  0.00  0.00    -0.503 OA
ATOM     21  H   UNL     1       6.799  -5.240  22.735  0.00  0.00    +0.292 HD
ENDBRANCH  15  20
ENDBRANCH   1  13
BRANCH   5  22
ATOM     22  O   UNL     1       2.660   1.344  27.527  0.00  0.00    -0.506 OA
ATOM     23  H   UNL     1       2.169   2.163  27.305  0.00  0.00    +0.292 HD
ENDBRANCH   5  22
BRANCH   7  24
ATOM     24  O   UNL     1       5.554   3.589  24.531  0.00  0.00    -0.461 OA
BRANCH  24  25
ATOM     25  C   UNL     1       6.926   3.593  24.070  0.00  0.00    +0.339 C 
ATOM     26  O   UNL     1       7.723   4.449  24.894  0.00  0.00    -0.331 OA
ATOM     27  C   UNL     1       7.487   5.846  24.645  0.00  0.00    +0.179 C 
ATOM     28  C   UNL     1       8.056   6.176  23.259  0.00  0.00    +0.177 C 
ATOM     29  C   UNL     1       7.256   5.394  22.207  0.00  0.00    +0.180 C 
ATOM     30  C   UNL     1       7.143   3.900  22.562  0.00  0.00    +0.214 C 
BRANCH  28  31
ATOM     31  O   UNL     1       9.438   5.798  23.218  0.00  0.00    -0.386 OA
ATOM     32  H   UNL     1       9.627   5.363  22.369  0.00  0.00    +0.210 HD
ENDBRANCH  28  31
BRANCH  29  33
ATOM     33  O   UNL     1       5.951   5.965  22.002  0.00  0.00    -0.386 OA
ATOM     34  H   UNL     1       6.030   6.931  22.020  0.00  0.00    +0.210 HD
ENDBRANCH  29  33
BRANCH  30  35
ATOM     35  O   UNL     1       6.196   3.243  21.713  0.00  0.00    -0.383 OA
ATOM     36  H   UNL     1       6.015   2.365  22.104  0.00  0.00    +0.210 HD
ENDBRANCH  30  35
BRANCH  27  37
ATOM     37  C   UNL     1       8.143   6.663  25.762  0.00  0.00    +0.190 C 
BRANCH  37  38
ATOM     38  O   UNL     1       9.319   6.011  26.257  0.00  0.00    -0.392 OA
ATOM     39  H   UNL     1       9.095   5.084  26.452  0.00  0.00    +0.210 HD
ENDBRANCH  37  38
ENDBRANCH  27  37
ENDBRANCH  24  25
ENDBRANCH   7  24
BRANCH  11  40
ATOM     40  O   UNL     1       4.995  -3.542  27.793  0.00  0.00    -0.453 OA
BRANCH  40  41
ATOM     41  C   UNL     1       4.202  -4.560  27.156  0.00  0.00    +0.340 C 
ATOM     42  O   UNL     1       2.831  -4.452  27.568  0.00  0.00    -0.330 OA
ATOM     43  C   UNL     1       2.396  -4.994  28.841  0.00  0.00    +0.191 C 
ATOM     44  C   UNL     1       3.348  -5.941  29.649  0.00  0.00    +0.178 C 
ATOM     45  C   UNL     1       4.777  -5.986  29.115  0.00  0.00    +0.180 C 
ATOM     46  C   UNL     1       4.710  -5.942  27.575  0.00  0.00    +0.214 C 
BRANCH  46  47
ATOM     47  O   UNL     1       5.943  -6.335  26.982  0.00  0.00    -0.383 OA
ATOM     48  H   UNL     1       6.601  -6.523  27.682  0.00  0.00    +0.210 HD
ENDBRANCH  46  47
BRANCH  45  49
ATOM     49  O   UNL     1       5.542  -4.948  29.745  0.00  0.00    -0.386 OA
ATOM     50  H   UNL     1       5.655  -5.191  30.690  0.00  0.00    +0.210 HD
ENDBRANCH  45  49
BRANCH  44  51
ATOM     51  O   UNL     1       2.850  -7.288  29.685  0.00  0.00    -0.386 OA
ATOM     52  H   UNL     1       1.977  -7.276  30.121  0.00  0.00    +0.210 HD
ENDBRANCH  44  51
BRANCH  43  53
ATOM     53  C   UNL     1       1.019  -5.684  28.647  0.00  0.00    +0.266 C 
BRANCH  53  54
ATOM     54  O   UNL     1       0.715  -5.921  27.263  0.00  0.00    -0.462 OA
BRANCH  54  55
ATOM     55  C   UNL     1       1.130  -7.139  26.809  0.00  0.00    +0.318 C 
ATOM     56  O   UNL     1       1.147  -8.181  27.452  0.00  0.00    -0.250 OA
BRANCH  55  57
ATOM     57  C   UNL     1       1.623  -7.045  25.405  0.00  0.00    +0.240 C 
BRANCH  57  58
ATOM     58  C   UNL     1       2.764  -7.964  25.109  0.00  0.00    +0.316 C 
ATOM     59  O   UNL     1       3.902  -7.628  24.817  0.00  0.00    -0.250 OA
BRANCH  58  60
ATOM     60  O   UNL     1       2.410  -9.269  25.197  0.00  0.00    -0.480 OA
ATOM     61  H   UNL     1       1.509  -9.465  24.871  0.00  0.00    +0.295 HD
ENDBRANCH  58  60
ENDBRANCH  57  58
ENDBRANCH  55  57
ENDBRANCH  54  55
ENDBRANCH  53  54
ENDBRANCH  43  53
ENDBRANCH  40  41
ENDBRANCH  11  40
TORSDOF 22
ENDMDL
MODEL 9
REMARK VINA RESULT:      -6.4      2.234     11.337
REMARK  Name = 
REMARK  22 active torsions:
REMARK  status: ('A' for Active; 'I' for Inactive)
REMARK    1  A    between atoms: C_3  and  O_56
REMARK    2  A    between atoms: C_4  and  O_55
REMARK    3  A    between atoms: C_6  and  C_7
REMARK    4  A    between atoms: C_8  and  O_34
REMARK    5  A    between atoms: C_12  and  O_33
REMARK    6  A    between atoms: C_14  and  O_18
REMARK    7  A    between atoms: O_18  and  C_19
REMARK    8  A    between atoms: C_21  and  O_32
REMARK    9  A    between atoms: C_22  and  O_31
REMARK   10  A    between atoms: C_24  and  O_30
REMARK   11  A    between atoms: C_26  and  C_28
REMARK   12  A    between atoms: C_28  and  O_29
REMARK   13  A    between atoms: O_34  and  C_35
REMARK   14  A    between atoms: C_37  and  O_54
REMARK   15  A    between atoms: C_38  and  O_53
REMARK   16  A    between atoms: C_40  and  O_52
REMARK   17  A    between atoms: C_42  and  C_44
REMARK   18  A    between atoms: C_44  and  O_45
REMARK   19  A    between atoms: O_45  and  C_46
REMARK   20  A    between atoms: C_46  and  C_48
REMARK   21  A    between atoms: C_48  and  C_49
REMARK   22  A    between atoms: C_49  and  O_51
REMARK                            x       y       z     vdW  Elec       q    Type
REMARK                         _______ _______ _______ _____ _____    ______ ____
ROOT
ATOM      1  C   UNL     1       5.860  -1.768  24.648  0.00  0.00    +0.181 A 
ATOM      2  O   UNL     1       6.525  -0.571  24.518  0.00  0.00    -0.451 OA
ATOM      3  C   UNL     1       6.167   0.467  25.343  0.00  0.00    +0.147 A 
ATOM      4  C   UNL     1       5.122   0.394  26.255  0.00  0.00    +0.109 A 
ATOM      5  C   UNL     1       4.825   1.532  27.026  0.00  0.00    +0.135 A 
ATOM      6  C   UNL     1       5.619   2.693  26.946  0.00  0.00    +0.092 A 
ATOM      7  C   UNL     1       6.725   2.727  26.094  0.00  0.00    +0.131 A 
ATOM      8  C   UNL     1       4.419  -0.903  26.391  0.00  0.00    +0.238 A 
ATOM      9  O   UNL     1       3.493  -1.027  27.184  0.00  0.00    -0.283 OA
ATOM     10  C   UNL     1       6.942   1.628  25.249  0.00  0.00    +0.093 A 
ATOM     11  C   UNL     1       4.890  -2.044  25.547  0.00  0.00    +0.214 A 
ENDROOT
BRANCH   1  13
ATOM     12  C   UNL     1       5.596  -3.196  22.602  0.00  0.00    +0.015 A 
ATOM     13  C   UNL     1       6.309  -2.827  23.745  0.00  0.00    +0.025 A 
ATOM     14  C   UNL     1       7.392  -3.629  24.156  0.00  0.00    +0.060 A 
ATOM     15  C   UNL     1       7.686  -4.789  23.460  0.00  0.00    +0.159 A 
ATOM     16  C   UNL     1       6.918  -5.186  22.369  0.00  0.00    +0.158 A 
ATOM     17  C   UNL     1       5.888  -4.373  21.903  0.00  0.00    +0.050 A 
BRANCH  16  18
ATOM     18  O   UNL     1       7.199  -6.397  21.799  0.00  0.00    -0.503 OA
ATOM     19  H   UNL     1       6.419  -6.677  21.287  0.00  0.00    +0.292 HD
ENDBRANCH  16  18
BRANCH  15  20
ATOM     20  O   UNL     1       8.719  -5.583  23.878  0.00  0.00    -0.503 OA
ATOM     21  H   UNL     1       9.272  -5.702  23.079  0.00  0.00    +0.292 HD
ENDBRANCH  15  20
ENDBRANCH   1  13
BRANCH   5  22
ATOM     22  O   UNL     1       3.777   1.580  27.909  0.00  0.00    -0.506 OA
ATOM     23  H   UNL     1       4.122   1.813  28.797  0.00  0.00    +0.292 HD
ENDBRANCH   5  22
BRANCH   7  24
ATOM     24  O   UNL     1       7.570   3.828  26.188  0.00  0.00    -0.461 OA
BRANCH  24  25
ATOM     25  C   UNL     1       7.553   4.659  25.005  0.00  0.00    +0.339 C 
ATOM     26  O   UNL     1       8.467   4.150  24.029  0.00  0.00    -0.331 OA
ATOM     27  C   UNL     1       9.844   4.407  24.361  0.00  0.00    +0.179 C 
ATOM     28  C   UNL     1      10.085   5.915  24.218  0.00  0.00    +0.177 C 
ATOM     29  C   UNL     1       9.230   6.645  25.262  0.00  0.00    +0.180 C 
ATOM     30  C   UNL     1       7.762   6.183  25.232  0.00  0.00    +0.214 C 
BRANCH  28  31
ATOM     31  O   UNL     1       9.715   6.324  22.894  0.00  0.00    -0.386 OA
ATOM     32  H   UNL     1       9.477   7.267  22.905  0.00  0.00    +0.210 HD
ENDBRANCH  28  31
BRANCH  29  33
ATOM     33  O   UNL     1       9.776   6.505  26.586  0.00  0.00    -0.386 OA
ATOM     34  H   UNL     1      10.627   6.970  26.620  0.00  0.00    +0.210 HD
ENDBRANCH  29  33
BRANCH  30  35
ATOM     35  O   UNL     1       7.043   6.684  26.364  0.00  0.00    -0.383 OA
ATOM     36  H   UNL     1       6.676   5.915  26.840  0.00  0.00    +0.210 HD
ENDBRANCH  30  35
BRANCH  27  37
ATOM     37  C   UNL     1      10.737   3.575  23.436  0.00  0.00    +0.190 C 
BRANCH  37  38
ATOM     38  O   UNL     1      12.022   4.187  23.270  0.00  0.00    -0.392 OA
ATOM     39  H   UNL     1      11.895   5.150  23.204  0.00  0.00    +0.210 HD
ENDBRANCH  37  38
ENDBRANCH  27  37
ENDBRANCH  24  25
ENDBRANCH   7  24
BRANCH  11  40
ATOM     40  O   UNL     1       4.189  -3.231  25.442  0.00  0.00    -0.453 OA
BRANCH  40  41
ATOM     41  C   UNL     1       4.567  -4.412  26.173  0.00  0.00    +0.340 C 
ATOM     42  O   UNL     1       4.399  -5.579  25.352  0.00  0.00    -0.330 OA
ATOM     43  C   UNL     1       3.090  -6.177  25.177  0.00  0.00    +0.191 C 
ATOM     44  C   UNL     1       1.901  -5.731  26.096  0.00  0.00    +0.178 C 
ATOM     45  C   UNL     1       2.196  -4.488  26.930  0.00  0.00    +0.180 C 
ATOM     46  C   UNL     1       3.663  -4.567  27.398  0.00  0.00    +0.214 C 
BRANCH  46  47
ATOM     47  O   UNL     1       3.928  -3.656  28.460  0.00  0.00    -0.383 OA
ATOM     48  H   UNL     1       3.201  -3.691  29.114  0.00  0.00    +0.210 HD
ENDBRANCH  46  47
BRANCH  45  49
ATOM     49  O   UNL     1       1.835  -3.323  26.174  0.00  0.00    -0.386 OA
ATOM     50  H   UNL     1       1.521  -2.640  26.808  0.00  0.00    +0.210 HD
ENDBRANCH  45  49
BRANCH  44  51
ATOM     51  O   UNL     1       1.503  -6.779  26.994  0.00  0.00    -0.386 OA
ATOM     52  H   UNL     1       1.472  -6.407  27.897  0.00  0.00    +0.210 HD
ENDBRANCH  44  51
BRANCH  43  53
ATOM     53  C   UNL     1       3.236  -7.722  25.231  0.00  0.00    +0.266 C 
BRANCH  53  54
ATOM     54  O   UNL     1       2.579  -8.373  24.132  0.00  0.00    -0.462 OA
BRANCH  54  55
ATOM     55  C   UNL     1       1.405  -8.980  24.474  0.00  0.00    +0.318 C 
ATOM     56  O   UNL     1       1.133  -9.460  25.568  0.00  0.00    -0.250 OA
BRANCH  55  57
ATOM     57  C   UNL     1       0.475  -9.037  23.310  0.00  0.00    +0.240 C 
BRANCH  57  58
ATOM     58  C   UNL     1       0.965  -8.283  22.117  0.00  0.00    +0.316 C 
ATOM     59  O   UNL     1       1.254  -8.764  21.031  0.00  0.00    -0.250 OA
BRANCH  58  60
ATOM     60  O   UNL     1       1.068  -6.953  22.353  0.00  0.00    -0.480 OA
ATOM     61  H   UNL     1       1.807  -6.517  21.884  0.00  0.00    +0.295 HD
ENDBRANCH  58  60
ENDBRANCH  57  58
ENDBRANCH  55  57
ENDBRANCH  54  55
ENDBRANCH  53  54
ENDBRANCH  43  53
ENDBRANCH  40  41
ENDBRANCH  11  40
TORSDOF 22
ENDMDL
