MODEL 1
REMARK VINA RESULT:      -6.1      0.000      0.000
REMARK  Name = 
REMARK  29 active torsions:
REMARK  status: ('A' for Active; 'I' for Inactive)
REMARK    1  A    between atoms: C_3  and  O_75
REMARK    2  A    between atoms: C_4  and  O_74
REMARK    3  A    between atoms: C_6  and  C_7
REMARK    4  A    between atoms: C_8  and  C_9
REMARK    5  A    between atoms: C_9  and  O_11
REMARK    6  A    between atoms: O_11  and  C_12
REMARK    7  A    between atoms: C_12  and  C_13
REMARK    8  A    between atoms: C_14  and  O_73
REMARK    9  A    between atoms: C_16  and  O_72
REMARK   10  A    between atoms: C_17  and  O_71
REMARK   11  A    between atoms: C_19  and  O_22
REMARK   12  A    between atoms: O_22  and  C_23
REMARK   13  A    between atoms: C_24  and  O_35
REMARK   14  A    between atoms: C_27  and  C_33
REMARK   15  A    between atoms: C_28  and  O_32
REMARK   16  A    between atoms: C_30  and  O_31
REMARK   17  A    between atoms: C_33  and  O_34
REMARK   18  A    between atoms: O_35  and  C_36
REMARK   19  A    between atoms: C_37  and  O_70
REMARK   20  A    between atoms: C_39  and  O_69
REMARK   21  A    between atoms: C_41  and  C_67
REMARK   22  A    between atoms: C_43  and  O_45
REMARK   23  A    between atoms: O_45  and  C_46
REMARK   24  A    between atoms: C_47  and  C_59
REMARK   25  A    between atoms: C_51  and  O_58
REMARK   26  A    between atoms: C_53  and  O_57
REMARK   27  A    between atoms: C_61  and  O_66
REMARK   28  A    between atoms: C_62  and  O_65
REMARK   29  A    between atoms: C_67  and  O_68
REMARK                            x       y       z     vdW  Elec       q    Type
REMARK                         _______ _______ _______ _____ _____    ______ ____
ROOT
ATOM      1  C   UNL     1       3.853  -3.004  25.984  0.00  0.00    +0.208 C 
ATOM      2  C   UNL     1       3.382  -4.145  26.882  0.00  0.00    +0.179 C 
ATOM      3  C   UNL     1       1.872  -4.286  26.870  0.00  0.00    +0.177 C 
ATOM      4  C   UNL     1       1.151  -2.950  27.151  0.00  0.00    +0.178 C 
ATOM      5  O   UNL     1       1.717  -1.783  26.560  0.00  0.00    -0.341 OA
ATOM      6  C   UNL     1       3.139  -1.664  26.388  0.00  0.00    +0.283 C 
ENDROOT
BRANCH   3   7
ATOM      7  O   UNL     1       1.540  -5.352  27.775  0.00  0.00    -0.386 OA
ATOM      8  H   UNL     1       2.372  -5.821  28.005  0.00  0.00    +0.210 HD
ENDBRANCH   3   7
BRANCH   2   9
ATOM      9  O   UNL     1       3.836  -3.950  28.228  0.00  0.00    -0.386 OA
ATOM     10  H   UNL     1       4.692  -4.425  28.276  0.00  0.00    +0.210 HD
ENDBRANCH   2   9
BRANCH   6  11
ATOM     11  O   UNL     1       3.779  -0.871  27.449  0.00  0.00    -0.337 OA
BRANCH  11  12
ATOM     12  C   UNL     1       4.070   0.508  27.075  0.00  0.00    +0.221 C 
ATOM     13  C   UNL     1       5.216   1.271  27.802  0.00  0.00    +0.340 C 
ATOM     14  O   UNL     1       4.873   1.609  29.168  0.00  0.00    -0.331 OA
ATOM     15  C   UNL     1       3.708   2.493  29.272  0.00  0.00    +0.179 C 
ATOM     16  C   UNL     1       2.486   1.809  28.623  0.00  0.00    +0.177 C 
ATOM     17  C   UNL     1       2.865   1.485  27.189  0.00  0.00    +0.180 C 
BRANCH  16  18
ATOM     18  O   UNL     1       1.322   2.654  28.576  0.00  0.00    -0.386 OA
ATOM     19  H   UNL     1       0.603   2.110  28.196  0.00  0.00    +0.210 HD
ENDBRANCH  16  18
BRANCH  17  20
ATOM     20  O   UNL     1       1.714   1.115  26.433  0.00  0.00    -0.386 OA
ATOM     21  H   UNL     1       0.940   1.457  26.923  0.00  0.00    +0.210 HD
ENDBRANCH  17  20
BRANCH  13  22
ATOM     22  O   UNL     1       6.513   0.661  27.607  0.00  0.00    -0.453 OA
BRANCH  22  23
ATOM     23  C   UNL     1       7.408   1.149  26.621  0.00  0.00    +0.214 A 
ATOM     24  C   UNL     1       7.547   2.641  26.295  0.00  0.00    +0.238 A 
ATOM     25  O   UNL     1       6.872   3.506  26.843  0.00  0.00    -0.283 OA
ATOM     26  C   UNL     1       8.547   3.075  25.296  0.00  0.00    +0.109 A 
ATOM     27  C   UNL     1       9.357   2.105  24.750  0.00  0.00    +0.147 A 
ATOM     28  C   UNL     1      10.389   2.436  23.858  0.00  0.00    +0.092 A 
ATOM     29  C   UNL     1      10.598   3.764  23.512  0.00  0.00    +0.124 A 
ATOM     30  C   UNL     1       9.775   4.758  24.017  0.00  0.00    +0.091 A 
ATOM     31  O   UNL     1       9.212   0.787  25.038  0.00  0.00    -0.451 OA
ATOM     32  C   UNL     1       8.747   4.413  24.903  0.00  0.00    +0.135 A 
ATOM     33  C   UNL     1       8.242   0.321  25.926  0.00  0.00    +0.181 A 
BRANCH  33  34
ATOM     34  C   UNL     1       8.307  -1.192  25.928  0.00  0.00    +0.025 A 
ATOM     35  C   UNL     1       9.337  -1.823  25.168  0.00  0.00    +0.015 A 
ATOM     36  C   UNL     1       9.444  -3.209  25.031  0.00  0.00    +0.050 A 
ATOM     37  C   UNL     1       8.524  -4.005  25.672  0.00  0.00    +0.158 A 
ATOM     38  C   UNL     1       7.538  -3.432  26.470  0.00  0.00    +0.159 A 
ATOM     39  C   UNL     1       7.421  -2.041  26.602  0.00  0.00    +0.060 A 
BRANCH  37  40
ATOM     40  O   UNL     1       8.599  -5.358  25.513  0.00  0.00    -0.503 OA
ATOM     41  H   UNL     1       9.537  -5.531  25.304  0.00  0.00    +0.292 HD
ENDBRANCH  37  40
BRANCH  38  42
ATOM     42  O   UNL     1       6.692  -4.291  27.121  0.00  0.00    -0.503 OA
ATOM     43  H   UNL     1       6.849  -5.181  26.759  0.00  0.00    +0.292 HD
ENDBRANCH  38  42
ENDBRANCH  33  34
BRANCH  32  44
ATOM     44  O   UNL     1       7.947   5.419  25.371  0.00  0.00    -0.506 OA
ATOM     45  H   UNL     1       8.215   5.674  26.268  0.00  0.00    +0.292 HD
ENDBRANCH  32  44
BRANCH  29  46
ATOM     46  O   UNL     1      11.598   4.138  22.664  0.00  0.00    -0.507 OA
ATOM     47  H   UNL     1      12.195   3.386  22.515  0.00  0.00    +0.292 HD
ENDBRANCH  29  46
ENDBRANCH  22  23
ENDBRANCH  13  22
BRANCH  15  48
ATOM     48  C   UNL     1       3.936   3.945  28.730  0.00  0.00    +0.190 C 
BRANCH  48  49
ATOM     49  O   UNL     1       5.200   4.493  29.110  0.00  0.00    -0.392 OA
ATOM     50  H   UNL     1       5.154   5.463  28.971  0.00  0.00    +0.210 HD
ENDBRANCH  48  49
ENDBRANCH  15  48
ENDBRANCH  11  12
ENDBRANCH   6  11
BRANCH   4  51
ATOM     51  C   UNL     1       0.749  -2.667  28.602  0.00  0.00    +0.190 C 
BRANCH  51  52
ATOM     52  O   UNL     1       1.810  -2.003  29.295  0.00  0.00    -0.392 OA
ATOM     53  H   UNL     1       2.115  -2.608  29.996  0.00  0.00    +0.210 HD
ENDBRANCH  51  52
ENDBRANCH   4  51
BRANCH   1  54
ATOM     54  O   UNL     1       3.683  -3.407  24.591  0.00  0.00    -0.338 OA
BRANCH  54  57
ATOM     55  C   UNL     1       6.066  -3.877  21.823  0.00  0.00    +0.190 C 
ATOM     56  O   UNL     1       4.903  -3.452  22.571  0.00  0.00    -0.339 OA
ATOM     57  C   UNL     1       4.834  -3.965  23.914  0.00  0.00    +0.282 C 
ATOM     58  C   UNL     1       4.819  -5.519  23.811  0.00  0.00    +0.201 C 
ATOM     59  C   UNL     1       6.070  -6.037  23.094  0.00  0.00    +0.179 C 
ATOM     60  C   UNL     1       6.173  -5.405  21.719  0.00  0.00    +0.178 C 
BRANCH  58  61
ATOM     61  O   UNL     1       4.854  -6.170  25.066  0.00  0.00    -0.384 OA
ATOM     62  H   UNL     1       4.271  -5.577  25.577  0.00  0.00    +0.210 HD
ENDBRANCH  58  61
BRANCH  59  63
ATOM     63  O   UNL     1       6.027  -7.469  22.971  0.00  0.00    -0.386 OA
ATOM     64  H   UNL     1       6.642  -7.727  22.259  0.00  0.00    +0.210 HD
ENDBRANCH  59  63
BRANCH  60  65
ATOM     65  O   UNL     1       7.408  -5.784  21.110  0.00  0.00    -0.386 OA
ATOM     66  H   UNL     1       7.599  -6.699  21.379  0.00  0.00    +0.210 HD
ENDBRANCH  60  65
BRANCH  55  67
ATOM     67  C   UNL     1       7.374  -3.226  22.321  0.00  0.00    +0.266 C 
BRANCH  67  68
ATOM     68  O   UNL     1       7.206  -1.800  22.284  0.00  0.00    -0.459 OA
BRANCH  68  69
ATOM     69  C   UNL     1       8.304  -1.075  21.970  0.00  0.00    +0.332 C 
ATOM     70  O   UNL     1       9.390  -1.509  21.623  0.00  0.00    -0.246 OA
BRANCH  69  72
ATOM     71  C   UNL     1       6.756   0.703  22.602  0.00  0.00    +0.015 C 
ATOM     72  C   UNL     1       7.961   0.355  22.150  0.00  0.00    +0.092 C 
BRANCH  71  74
ATOM     73  C   UNL     1       5.174   2.446  23.515  0.00  0.00    +0.012 A 
ATOM     74  C   UNL     1       6.293   2.095  22.751  0.00  0.00    -0.021 A 
ATOM     75  C   UNL     1       6.997   3.093  22.070  0.00  0.00    +0.057 A 
ATOM     76  C   UNL     1       6.588   4.415  22.173  0.00  0.00    +0.159 A 
ATOM     77  C   UNL     1       5.482   4.758  22.946  0.00  0.00    +0.158 A 
ATOM     78  C   UNL     1       4.766   3.775  23.634  0.00  0.00    +0.050 A 
BRANCH  77  79
ATOM     79  O   UNL     1       5.125   6.076  23.009  0.00  0.00    -0.503 OA
ATOM     80  H   UNL     1       5.561   6.473  23.782  0.00  0.00    +0.292 HD
ENDBRANCH  77  79
BRANCH  76  81
ATOM     81  O   UNL     1       7.295   5.378  21.510  0.00  0.00    -0.503 OA
ATOM     82  H   UNL     1       6.675   5.726  20.856  0.00  0.00    +0.292 HD
ENDBRANCH  76  81
ENDBRANCH  71  74
ENDBRANCH  69  72
ENDBRANCH  68  69
ENDBRANCH  67  68
ENDBRANCH  55  67
ENDBRANCH  54  57
ENDBRANCH   1  54
TORSDOF 29
ENDMDL
MODEL 2
REMARK VINA RESULT:      -5.9      1.757      7.616
REMARK  Name = 
REMARK  29 active torsions:
REMARK  status: ('A' for Active; 'I' for Inactive)
REMARK    1  A    between atoms: C_3  and  O_75
REMARK    2  A    between atoms: C_4  and  O_74
REMARK    3  A    between atoms: C_6  and  C_7
REMARK    4  A    between atoms: C_8  and  C_9
REMARK    5  A    between atoms: C_9  and  O_11
REMARK    6  A    between atoms: O_11  and  C_12
REMARK    7  A    between atoms: C_12  and  C_13
REMARK    8  A    between atoms: C_14  and  O_73
REMARK    9  A    between atoms: C_16  and  O_72
REMARK   10  A    between atoms: C_17  and  O_71
REMARK   11  A    between atoms: C_19  and  O_22
REMARK   12  A    between atoms: O_22  and  C_23
REMARK   13  A    between atoms: C_24  and  O_35
REMARK   14  A    between atoms: C_27  and  C_33
REMARK   15  A    between atoms: C_28  and  O_32
REMARK   16  A    between atoms: C_30  and  O_31
REMARK   17  A    between atoms: C_33  and  O_34
REMARK   18  A    between atoms: O_35  and  C_36
REMARK   19  A    between atoms: C_37  and  O_70
REMARK   20  A    between atoms: C_39  and  O_69
REMARK   21  A    between atoms: C_41  and  C_67
REMARK   22  A    between atoms: C_43  and  O_45
REMARK   23  A    between atoms: O_45  and  C_46
REMARK   24  A    between atoms: C_47  and  C_59
REMARK   25  A    between atoms: C_51  and  O_58
REMARK   26  A    between atoms: C_53  and  O_57
REMARK   27  A    between atoms: C_61  and  O_66
REMARK   28  A    between atoms: C_62  and  O_65
REMARK   29  A    between atoms: C_67  and  O_68
REMARK                            x       y       z     vdW  Elec       q    Type
REMARK                         _______ _______ _______ _____ _____    ______ ____
ROOT
ATOM      1  C   UNL     1       3.031   3.079  25.730  0.00  0.00    +0.208 C 
ATOM      2  C   UNL     1       2.482   4.136  24.775  0.00  0.00    +0.179 C 
ATOM      3  C   UNL     1       2.773   3.794  23.326  0.00  0.00    +0.177 C 
ATOM      4  C   UNL     1       4.262   3.467  23.083  0.00  0.00    +0.178 C 
ATOM      5  O   UNL     1       4.921   2.708  24.093  0.00  0.00    -0.341 OA
ATOM      6  C   UNL     1       4.567   2.866  25.478  0.00  0.00    +0.283 C 
ENDROOT
BRANCH   3   7
ATOM      7  O   UNL     1       2.253   4.869  22.526  0.00  0.00    -0.386 OA
ATOM      8  H   UNL     1       1.666   4.477  21.842  0.00  0.00    +0.210 HD
ENDBRANCH   3   7
BRANCH   2   9
ATOM      9  O   UNL     1       3.024   5.427  25.084  0.00  0.00    -0.386 OA
ATOM     10  H   UNL     1       3.794   5.527  24.484  0.00  0.00    +0.210 HD
ENDBRANCH   2   9
BRANCH   6  11
ATOM     11  O   UNL     1       5.483   3.758  26.204  0.00  0.00    -0.337 OA
BRANCH  11  12
ATOM     12  C   UNL     1       6.572   3.072  26.891  0.00  0.00    +0.221 C 
ATOM     13  C   UNL     1       6.404   1.574  27.282  0.00  0.00    +0.340 C 
ATOM     14  O   UNL     1       5.469   1.391  28.373  0.00  0.00    -0.331 OA
ATOM     15  C   UNL     1       5.883   2.060  29.610  0.00  0.00    +0.179 C 
ATOM     16  C   UNL     1       6.031   3.574  29.351  0.00  0.00    +0.177 C 
ATOM     17  C   UNL     1       7.030   3.737  28.220  0.00  0.00    +0.180 C 
BRANCH  16  18
ATOM     18  O   UNL     1       6.547   4.295  30.484  0.00  0.00    -0.386 OA
ATOM     19  H   UNL     1       6.002   5.104  30.565  0.00  0.00    +0.210 HD
ENDBRANCH  16  18
BRANCH  17  20
ATOM     20  O   UNL     1       7.444   5.097  28.103  0.00  0.00    -0.386 OA
ATOM     21  H   UNL     1       8.098   5.248  28.814  0.00  0.00    +0.210 HD
ENDBRANCH  17  20
BRANCH  13  22
ATOM     22  O   UNL     1       6.220   0.708  26.138  0.00  0.00    -0.453 OA
BRANCH  22  23
ATOM     23  C   UNL     1       6.995  -0.469  25.983  0.00  0.00    +0.214 A 
ATOM     24  C   UNL     1       6.618  -1.801  26.642  0.00  0.00    +0.238 A 
ATOM     25  O   UNL     1       5.641  -1.929  27.371  0.00  0.00    -0.283 OA
ATOM     26  C   UNL     1       7.445  -3.000  26.382  0.00  0.00    +0.109 A 
ATOM     27  C   UNL     1       8.490  -2.866  25.494  0.00  0.00    +0.147 A 
ATOM     28  C   UNL     1       9.275  -3.968  25.123  0.00  0.00    +0.092 A 
ATOM     29  C   UNL     1       9.001  -5.219  25.661  0.00  0.00    +0.124 A 
ATOM     30  C   UNL     1       7.979  -5.377  26.584  0.00  0.00    +0.091 A 
ATOM     31  O   UNL     1       8.820  -1.677  24.930  0.00  0.00    -0.451 OA
ATOM     32  C   UNL     1       7.206  -4.267  26.948  0.00  0.00    +0.135 A 
ATOM     33  C   UNL     1       8.109  -0.505  25.193  0.00  0.00    +0.181 A 
BRANCH  33  34
ATOM     34  C   UNL     1       8.810   0.631  24.478  0.00  0.00    +0.025 A 
ATOM     35  C   UNL     1      10.224   0.747  24.622  0.00  0.00    +0.015 A 
ATOM     36  C   UNL     1      10.965   1.798  24.076  0.00  0.00    +0.050 A 
ATOM     37  C   UNL     1      10.301   2.759  23.350  0.00  0.00    +0.158 A 
ATOM     38  C   UNL     1       8.930   2.653  23.137  0.00  0.00    +0.159 A 
ATOM     39  C   UNL     1       8.182   1.605  23.692  0.00  0.00    +0.060 A 
BRANCH  37  40
ATOM     40  O   UNL     1      11.010   3.810  22.845  0.00  0.00    -0.503 OA
ATOM     41  H   UNL     1      10.622   4.597  23.273  0.00  0.00    +0.292 HD
ENDBRANCH  37  40
BRANCH  38  42
ATOM     42  O   UNL     1       8.348   3.619  22.358  0.00  0.00    -0.503 OA
ATOM     43  H   UNL     1       7.386   3.567  22.503  0.00  0.00    +0.292 HD
ENDBRANCH  38  42
ENDBRANCH  33  34
BRANCH  32  44
ATOM     44  O   UNL     1       6.216  -4.459  27.871  0.00  0.00    -0.506 OA
ATOM     45  H   UNL     1       5.846  -5.352  27.789  0.00  0.00    +0.292 HD
ENDBRANCH  32  44
BRANCH  29  46
ATOM     46  O   UNL     1       9.724  -6.323  25.319  0.00  0.00    -0.507 OA
ATOM     47  H   UNL     1      10.526  -6.050  24.843  0.00  0.00    +0.292 HD
ENDBRANCH  29  46
ENDBRANCH  22  23
ENDBRANCH  13  22
BRANCH  15  48
ATOM     48  C   UNL     1       7.151   1.445  30.295  0.00  0.00    +0.190 C 
BRANCH  48  49
ATOM     49  O   UNL     1       8.336   2.211  30.069  0.00  0.00    -0.392 OA
ATOM     50  H   UNL     1       8.843   1.765  29.356  0.00  0.00    +0.210 HD
ENDBRANCH  48  49
ENDBRANCH  15  48
ENDBRANCH  11  12
ENDBRANCH   6  11
BRANCH   4  51
ATOM     51  C   UNL     1       5.160   4.616  22.614  0.00  0.00    +0.190 C 
BRANCH  51  52
ATOM     52  O   UNL     1       5.310   5.591  23.650  0.00  0.00    -0.392 OA
ATOM     53  H   UNL     1       6.215   5.946  23.579  0.00  0.00    +0.210 HD
ENDBRANCH  51  52
ENDBRANCH   4  51
BRANCH   1  54
ATOM     54  O   UNL     1       2.207   1.878  25.618  0.00  0.00    -0.338 OA
BRANCH  54  57
ATOM     55  C   UNL     1       0.988  -0.949  27.639  0.00  0.00    +0.190 C 
ATOM     56  O   UNL     1       1.107   0.021  26.572  0.00  0.00    -0.339 OA
ATOM     57  C   UNL     1       2.120   1.021  26.781  0.00  0.00    +0.282 C 
ATOM     58  C   UNL     1       1.757   1.772  28.097  0.00  0.00    +0.201 C 
ATOM     59  C   UNL     1       1.693   0.805  29.284  0.00  0.00    +0.179 C 
ATOM     60  C   UNL     1       0.691  -0.296  28.996  0.00  0.00    +0.178 C 
BRANCH  58  61
ATOM     61  O   UNL     1       2.723   2.727  28.489  0.00  0.00    -0.384 OA
ATOM     62  H   UNL     1       3.524   2.170  28.470  0.00  0.00    +0.210 HD
ENDBRANCH  58  61
BRANCH  59  63
ATOM     63  O   UNL     1       1.320   1.503  30.485  0.00  0.00    -0.386 OA
ATOM     64  H   UNL     1       1.414   0.884  31.233  0.00  0.00    +0.210 HD
ENDBRANCH  59  63
BRANCH  60  65
ATOM     65  O   UNL     1       0.734  -1.267  30.044  0.00  0.00    -0.386 OA
ATOM     66  H   UNL     1       0.184  -2.020  29.768  0.00  0.00    +0.210 HD
ENDBRANCH  60  65
BRANCH  55  67
ATOM     67  C   UNL     1       2.183  -1.925  27.702  0.00  0.00    +0.266 C 
BRANCH  67  68
ATOM     68  O   UNL     1       1.716  -3.169  28.245  0.00  0.00    -0.459 OA
BRANCH  68  69
ATOM     69  C   UNL     1       1.844  -4.256  27.450  0.00  0.00    +0.332 C 
ATOM     70  O   UNL     1       1.237  -5.310  27.551  0.00  0.00    -0.246 OA
BRANCH  69  72
ATOM     71  C   UNL     1       3.325  -4.905  25.622  0.00  0.00    +0.015 C 
ATOM     72  C   UNL     1       2.883  -3.950  26.441  0.00  0.00    +0.092 C 
BRANCH  71  74
ATOM     73  C   UNL     1       5.207  -5.772  24.181  0.00  0.00    +0.012 A 
ATOM     74  C   UNL     1       4.401  -4.721  24.632  0.00  0.00    -0.021 A 
ATOM     75  C   UNL     1       4.634  -3.427  24.153  0.00  0.00    +0.057 A 
ATOM     76  C   UNL     1       5.645  -3.208  23.230  0.00  0.00    +0.159 A 
ATOM     77  C   UNL     1       6.434  -4.261  22.776  0.00  0.00    +0.158 A 
ATOM     78  C   UNL     1       6.217  -5.560  23.242  0.00  0.00    +0.050 A 
BRANCH  77  79
ATOM     79  O   UNL     1       7.416  -3.984  21.867  0.00  0.00    -0.503 OA
ATOM     80  H   UNL     1       7.536  -4.765  21.300  0.00  0.00    +0.292 HD
ENDBRANCH  77  79
BRANCH  76  81
ATOM     81  O   UNL     1       5.850  -1.939  22.765  0.00  0.00    -0.503 OA
ATOM     82  H   UNL     1       6.797  -1.788  22.881  0.00  0.00    +0.292 HD
ENDBRANCH  76  81
ENDBRANCH  71  74
ENDBRANCH  69  72
ENDBRANCH  68  69
ENDBRANCH  67  68
ENDBRANCH  55  67
ENDBRANCH  54  57
ENDBRANCH   1  54
TORSDOF 29
ENDMDL
MODEL 3
REMARK VINA RESULT:      -5.2      2.299      7.535
REMARK  Name = 
REMARK  29 active torsions:
REMARK  status: ('A' for Active; 'I' for Inactive)
REMARK    1  A    between atoms: C_3  and  O_75
REMARK    2  A    between atoms: C_4  and  O_74
REMARK    3  A    between atoms: C_6  and  C_7
REMARK    4  A    between atoms: C_8  and  C_9
REMARK    5  A    between atoms: C_9  and  O_11
REMARK    6  A    between atoms: O_11  and  C_12
REMARK    7  A    between atoms: C_12  and  C_13
REMARK    8  A    between atoms: C_14  and  O_73
REMARK    9  A    between atoms: C_16  and  O_72
REMARK   10  A    between atoms: C_17  and  O_71
REMARK   11  A    between atoms: C_19  and  O_22
REMARK   12  A    between atoms: O_22  and  C_23
REMARK   13  A    between atoms: C_24  and  O_35
REMARK   14  A    between atoms: C_27  and  C_33
REMARK   15  A    between atoms: C_28  and  O_32
REMARK   16  A    between atoms: C_30  and  O_31
REMARK   17  A    between atoms: C_33  and  O_34
REMARK   18  A    between atoms: O_35  and  C_36
REMARK   19  A    between atoms: C_37  and  O_70
REMARK   20  A    between atoms: C_39  and  O_69
REMARK   21  A    between atoms: C_41  and  C_67
REMARK   22  A    between atoms: C_43  and  O_45
REMARK   23  A    between atoms: O_45  and  C_46
REMARK   24  A    between atoms: C_47  and  C_59
REMARK   25  A    between atoms: C_51  and  O_58
REMARK   26  A    between atoms: C_53  and  O_57
REMARK   27  A    between atoms: C_61  and  O_66
REMARK   28  A    between atoms: C_62  and  O_65
REMARK   29  A    between atoms: C_67  and  O_68
REMARK                            x       y       z     vdW  Elec       q    Type
REMARK                         _______ _______ _______ _____ _____    ______ ____
ROOT
ATOM      1  C   UNL     1       2.208   2.427  26.569  0.00  0.00    +0.208 C 
ATOM      2  C   UNL     1       1.275   2.347  27.775  0.00  0.00    +0.179 C 
ATOM      3  C   UNL     1       1.319   3.613  28.608  0.00  0.00    +0.177 C 
ATOM      4  C   UNL     1       2.760   4.028  28.978  0.00  0.00    +0.178 C 
ATOM      5  O   UNL     1       3.751   3.859  27.968  0.00  0.00    -0.341 OA
ATOM      6  C   UNL     1       3.669   2.768  27.035  0.00  0.00    +0.283 C 
ENDROOT
BRANCH   3   7
ATOM      7  O   UNL     1       0.443   3.411  29.730  0.00  0.00    -0.386 OA
ATOM      8  H   UNL     1       0.466   4.226  30.279  0.00  0.00    +0.210 HD
ENDBRANCH   3   7
BRANCH   2   9
ATOM      9  O   UNL     1       1.605   1.218  28.595  0.00  0.00    -0.386 OA
ATOM     10  H   UNL     1       1.753   0.483  27.965  0.00  0.00    +0.210 HD
ENDBRANCH   2   9
BRANCH   6  11
ATOM     11  O   UNL     1       4.522   1.630  27.409  0.00  0.00    -0.337 OA
BRANCH  11  12
ATOM     12  C   UNL     1       5.841   1.638  26.786  0.00  0.00    +0.221 C 
ATOM     13  C   UNL     1       6.336   0.369  26.031  0.00  0.00    +0.340 C 
ATOM     14  O   UNL     1       6.661  -0.717  26.934  0.00  0.00    -0.331 OA
ATOM     15  C   UNL     1       7.740  -0.390  27.871  0.00  0.00    +0.179 C 
ATOM     16  C   UNL     1       7.332   0.835  28.716  0.00  0.00    +0.177 C 
ATOM     17  C   UNL     1       7.019   1.961  27.749  0.00  0.00    +0.180 C 
BRANCH  16  18
ATOM     18  O   UNL     1       8.381   1.298  29.586  0.00  0.00    -0.386 OA
ATOM     19  H   UNL     1       8.202   2.246  29.750  0.00  0.00    +0.210 HD
ENDBRANCH  16  18
BRANCH  17  20
ATOM     20  O   UNL     1       6.911   3.205  28.438  0.00  0.00    -0.386 OA
ATOM     21  H   UNL     1       7.368   3.086  29.295  0.00  0.00    +0.210 HD
ENDBRANCH  17  20
BRANCH  13  22
ATOM     22  O   UNL     1       5.506   0.024  24.898  0.00  0.00    -0.453 OA
BRANCH  22  23
ATOM     23  C   UNL     1       5.731  -1.169  24.166  0.00  0.00    +0.214 A 
ATOM     24  C   UNL     1       4.975  -2.472  24.454  0.00  0.00    +0.238 A 
ATOM     25  O   UNL     1       4.151  -2.576  25.355  0.00  0.00    -0.283 OA
ATOM     26  C   UNL     1       5.223  -3.657  23.604  0.00  0.00    +0.109 A 
ATOM     27  C   UNL     1       6.086  -3.504  22.542  0.00  0.00    +0.147 A 
ATOM     28  C   UNL     1       6.315  -4.550  21.635  0.00  0.00    +0.092 A 
ATOM     29  C   UNL     1       5.666  -5.765  21.809  0.00  0.00    +0.124 A 
ATOM     30  C   UNL     1       4.821  -5.960  22.890  0.00  0.00    +0.091 A 
ATOM     31  O   UNL     1       6.758  -2.348  22.309  0.00  0.00    -0.451 OA
ATOM     32  C   UNL     1       4.604  -4.908  23.789  0.00  0.00    +0.135 A 
ATOM     33  C   UNL     1       6.606  -1.222  23.119  0.00  0.00    +0.181 A 
BRANCH  33  34
ATOM     34  C   UNL     1       7.570  -0.165  22.625  0.00  0.00    +0.025 A 
ATOM     35  C   UNL     1       8.943  -0.524  22.472  0.00  0.00    +0.015 A 
ATOM     36  C   UNL     1       9.935   0.388  22.102  0.00  0.00    +0.050 A 
ATOM     37  C   UNL     1       9.569   1.691  21.857  0.00  0.00    +0.158 A 
ATOM     38  C   UNL     1       8.232   2.070  21.938  0.00  0.00    +0.159 A 
ATOM     39  C   UNL     1       7.236   1.160  22.319  0.00  0.00    +0.060 A 
BRANCH  37  40
ATOM     40  O   UNL     1      10.536   2.597  21.531  0.00  0.00    -0.503 OA
ATOM     41  H   UNL     1      10.681   2.470  20.574  0.00  0.00    +0.292 HD
ENDBRANCH  37  40
BRANCH  38  42
ATOM     42  O   UNL     1       7.938   3.371  21.627  0.00  0.00    -0.503 OA
ATOM     43  H   UNL     1       7.578   3.378  20.722  0.00  0.00    +0.292 HD
ENDBRANCH  38  42
ENDBRANCH  33  34
BRANCH  32  44
ATOM     44  O   UNL     1       3.773  -5.142  24.850  0.00  0.00    -0.506 OA
ATOM     45  H   UNL     1       4.278  -5.479  25.607  0.00  0.00    +0.292 HD
ENDBRANCH  32  44
BRANCH  29  46
ATOM     46  O   UNL     1       5.843  -6.805  20.945  0.00  0.00    -0.507 OA
ATOM     47  H   UNL     1       6.790  -7.007  20.871  0.00  0.00    +0.292 HD
ENDBRANCH  29  46
ENDBRANCH  22  23
ENDBRANCH  13  22
BRANCH  15  48
ATOM     48  C   UNL     1       9.150  -0.216  27.211  0.00  0.00    +0.190 C 
BRANCH  48  49
ATOM     49  O   UNL     1       9.317  -1.001  26.029  0.00  0.00    -0.392 OA
ATOM     50  H   UNL     1       8.425  -1.289  25.738  0.00  0.00    +0.210 HD
ENDBRANCH  48  49
ENDBRANCH  15  48
ENDBRANCH  11  12
ENDBRANCH   6  11
BRANCH   4  51
ATOM     51  C   UNL     1       3.297   3.551  30.332  0.00  0.00    +0.190 C 
BRANCH  51  52
ATOM     52  O   UNL     1       3.932   2.277  30.198  0.00  0.00    -0.392 OA
ATOM     53  H   UNL     1       4.287   2.042  31.075  0.00  0.00    +0.210 HD
ENDBRANCH  51  52
ENDBRANCH   4  51
BRANCH   1  54
ATOM     54  O   UNL     1       1.631   3.350  25.596  0.00  0.00    -0.338 OA
BRANCH  54  57
ATOM     55  C   UNL     1       2.710   6.235  23.575  0.00  0.00    +0.190 C 
ATOM     56  O   UNL     1       1.867   5.312  24.305  0.00  0.00    -0.339 OA
ATOM     57  C   UNL     1       2.549   4.152  24.814  0.00  0.00    +0.282 C 
ATOM     58  C   UNL     1       3.160   3.406  23.591  0.00  0.00    +0.201 C 
ATOM     59  C   UNL     1       4.126   4.310  22.819  0.00  0.00    +0.179 C 
ATOM     60  C   UNL     1       3.409   5.572  22.380  0.00  0.00    +0.178 C 
BRANCH  58  61
ATOM     61  O   UNL     1       3.950   2.289  23.946  0.00  0.00    -0.384 OA
ATOM     62  H   UNL     1       4.544   2.706  24.598  0.00  0.00    +0.210 HD
ENDBRANCH  58  61
BRANCH  59  63
ATOM     63  O   UNL     1       4.654   3.624  21.671  0.00  0.00    -0.386 OA
ATOM     64  H   UNL     1       3.900   3.291  21.148  0.00  0.00    +0.210 HD
ENDBRANCH  59  63
BRANCH  60  65
ATOM     65  O   UNL     1       4.345   6.470  21.782  0.00  0.00    -0.386 OA
ATOM     66  H   UNL     1       5.057   6.624  22.426  0.00  0.00    +0.210 HD
ENDBRANCH  60  65
BRANCH  55  67
ATOM     67  C   UNL     1       3.694   6.999  24.485  0.00  0.00    +0.266 C 
BRANCH  67  68
ATOM     68  O   UNL     1       3.386   6.674  25.850  0.00  0.00    -0.459 OA
BRANCH  68  69
ATOM     69  C   UNL     1       4.369   6.889  26.754  0.00  0.00    +0.332 C 
ATOM     70  O   UNL     1       4.231   7.081  27.951  0.00  0.00    -0.246 OA
BRANCH  69  72
ATOM     71  C   UNL     1       6.252   5.723  25.727  0.00  0.00    +0.015 C 
ATOM     72  C   UNL     1       5.658   6.880  26.023  0.00  0.00    +0.092 C 
BRANCH  71  74
ATOM     73  C   UNL     1       8.163   6.665  24.372  0.00  0.00    +0.012 A 
ATOM     74  C   UNL     1       7.563   5.607  25.065  0.00  0.00    -0.021 A 
ATOM     75  C   UNL     1       8.212   4.368  25.115  0.00  0.00    +0.057 A 
ATOM     76  C   UNL     1       9.443   4.212  24.494  0.00  0.00    +0.159 A 
ATOM     77  C   UNL     1      10.038   5.273  23.819  0.00  0.00    +0.158 A 
ATOM     78  C   UNL     1       9.406   6.517  23.758  0.00  0.00    +0.050 A 
BRANCH  77  79
ATOM     79  O   UNL     1      11.251   5.059  23.225  0.00  0.00    -0.503 OA
ATOM     80  H   UNL     1      11.847   4.666  23.884  0.00  0.00    +0.292 HD
ENDBRANCH  77  79
BRANCH  76  81
ATOM     81  O   UNL     1      10.067   2.998  24.564  0.00  0.00    -0.503 OA
ATOM     82  H   UNL     1       9.458   2.441  25.068  0.00  0.00    +0.292 HD
ENDBRANCH  76  81
ENDBRANCH  71  74
ENDBRANCH  69  72
ENDBRANCH  68  69
ENDBRANCH  67  68
ENDBRANCH  55  67
ENDBRANCH  54  57
ENDBRANCH   1  54
TORSDOF 29
ENDMDL
MODEL 4
REMARK VINA RESULT:      -5.2      2.241      7.049
REMARK  Name = 
REMARK  29 active torsions:
REMARK  status: ('A' for Active; 'I' for Inactive)
REMARK    1  A    between atoms: C_3  and  O_75
REMARK    2  A    between atoms: C_4  and  O_74
REMARK    3  A    between atoms: C_6  and  C_7
REMARK    4  A    between atoms: C_8  and  C_9
REMARK    5  A    between atoms: C_9  and  O_11
REMARK    6  A    between atoms: O_11  and  C_12
REMARK    7  A    between atoms: C_12  and  C_13
REMARK    8  A    between atoms: C_14  and  O_73
REMARK    9  A    between atoms: C_16  and  O_72
REMARK   10  A    between atoms: C_17  and  O_71
REMARK   11  A    between atoms: C_19  and  O_22
REMARK   12  A    between atoms: O_22  and  C_23
REMARK   13  A    between atoms: C_24  and  O_35
REMARK   14  A    between atoms: C_27  and  C_33
REMARK   15  A    between atoms: C_28  and  O_32
REMARK   16  A    between atoms: C_30  and  O_31
REMARK   17  A    between atoms: C_33  and  O_34
REMARK   18  A    between atoms: O_35  and  C_36
REMARK   19  A    between atoms: C_37  and  O_70
REMARK   20  A    between atoms: C_39  and  O_69
REMARK   21  A    between atoms: C_41  and  C_67
REMARK   22  A    between atoms: C_43  and  O_45
REMARK   23  A    between atoms: O_45  and  C_46
REMARK   24  A    between atoms: C_47  and  C_59
REMARK   25  A    between atoms: C_51  and  O_58
REMARK   26  A    between atoms: C_53  and  O_57
REMARK   27  A    between atoms: C_61  and  O_66
REMARK   28  A    between atoms: C_62  and  O_65
REMARK   29  A    between atoms: C_67  and  O_68
REMARK                            x       y       z     vdW  Elec       q    Type
REMARK                         _______ _______ _______ _____ _____    ______ ____
ROOT
ATOM      1  C   UNL     1       7.782  -3.709  23.315  0.00  0.00    +0.208 C 
ATOM      2  C   UNL     1       7.404  -4.699  22.216  0.00  0.00    +0.179 C 
ATOM      3  C   UNL     1       6.082  -4.343  21.564  0.00  0.00    +0.177 C 
ATOM      4  C   UNL     1       4.956  -4.117  22.596  0.00  0.00    +0.178 C 
ATOM      5  O   UNL     1       5.316  -3.433  23.794  0.00  0.00    -0.341 OA
ATOM      6  C   UNL     1       6.623  -3.600  24.369  0.00  0.00    +0.283 C 
ENDROOT
BRANCH   3   7
ATOM      7  O   UNL     1       5.806  -5.357  20.583  0.00  0.00    -0.386 OA
ATOM      8  H   UNL     1       5.971  -6.231  21.001  0.00  0.00    +0.210 HD
ENDBRANCH   3   7
BRANCH   2   9
ATOM      9  O   UNL     1       7.339  -6.033  22.738  0.00  0.00    -0.386 OA
ATOM     10  H   UNL     1       6.411  -6.315  22.594  0.00  0.00    +0.210 HD
ENDBRANCH   2   9
BRANCH   6  11
ATOM     11  O   UNL     1       6.641  -4.574  25.471  0.00  0.00    -0.337 OA
BRANCH  11  12
ATOM     12  C   UNL     1       5.395  -4.652  26.225  0.00  0.00    +0.221 C 
ATOM     13  C   UNL     1       5.197  -3.740  27.471  0.00  0.00    +0.340 C 
ATOM     14  O   UNL     1       6.016  -4.154  28.592  0.00  0.00    -0.331 OA
ATOM     15  C   UNL     1       5.712  -5.508  29.064  0.00  0.00    +0.179 C 
ATOM     16  C   UNL     1       5.927  -6.513  27.913  0.00  0.00    +0.177 C 
ATOM     17  C   UNL     1       5.043  -6.069  26.762  0.00  0.00    +0.180 C 
BRANCH  16  18
ATOM     18  O   UNL     1       5.540  -7.856  28.254  0.00  0.00    -0.386 OA
ATOM     19  H   UNL     1       5.058  -8.208  27.479  0.00  0.00    +0.210 HD
ENDBRANCH  16  18
BRANCH  17  20
ATOM     20  O   UNL     1       4.957  -7.087  25.767  0.00  0.00    -0.386 OA
ATOM     21  H   UNL     1       4.069  -7.487  25.857  0.00  0.00    +0.210 HD
ENDBRANCH  17  20
BRANCH  13  22
ATOM     22  O   UNL     1       5.228  -2.330  27.150  0.00  0.00    -0.453 OA
BRANCH  22  23
ATOM     23  C   UNL     1       4.262  -1.439  27.683  0.00  0.00    +0.214 A 
ATOM     24  C   UNL     1       4.642  -0.138  28.400  0.00  0.00    +0.238 A 
ATOM     25  O   UNL     1       5.804   0.202  28.587  0.00  0.00    -0.283 OA
ATOM     26  C   UNL     1       3.573   0.768  28.874  0.00  0.00    +0.109 A 
ATOM     27  C   UNL     1       2.273   0.418  28.583  0.00  0.00    +0.147 A 
ATOM     28  C   UNL     1       1.201   1.259  28.919  0.00  0.00    +0.092 A 
ATOM     29  C   UNL     1       1.449   2.465  29.562  0.00  0.00    +0.124 A 
ATOM     30  C   UNL     1       2.744   2.826  29.900  0.00  0.00    +0.091 A 
ATOM     31  O   UNL     1       1.952  -0.744  27.960  0.00  0.00    -0.451 OA
ATOM     32  C   UNL     1       3.804   1.975  29.561  0.00  0.00    +0.135 A 
ATOM     33  C   UNL     1       2.921  -1.661  27.550  0.00  0.00    +0.181 A 
BRANCH  33  34
ATOM     34  C   UNL     1       2.203  -2.870  26.988  0.00  0.00    +0.025 A 
ATOM     35  C   UNL     1       1.830  -3.911  27.888  0.00  0.00    +0.015 A 
ATOM     36  C   UNL     1       1.238  -5.106  27.473  0.00  0.00    +0.050 A 
ATOM     37  C   UNL     1       0.987  -5.281  26.132  0.00  0.00    +0.158 A 
ATOM     38  C   UNL     1       1.282  -4.266  25.226  0.00  0.00    +0.159 A 
ATOM     39  C   UNL     1       1.886  -3.070  25.638  0.00  0.00    +0.060 A 
BRANCH  37  40
ATOM     40  O   UNL     1       0.443  -6.460  25.711  0.00  0.00    -0.503 OA
ATOM     41  H   UNL     1      -0.008  -6.818  26.500  0.00  0.00    +0.292 HD
ENDBRANCH  37  40
BRANCH  38  42
ATOM     42  O   UNL     1       0.953  -4.492  23.915  0.00  0.00    -0.503 OA
ATOM     43  H   UNL     1       1.173  -5.420  23.717  0.00  0.00    +0.292 HD
ENDBRANCH  38  42
ENDBRANCH  33  34
BRANCH  32  44
ATOM     44  O   UNL     1       5.065   2.359  29.923  0.00  0.00    -0.506 OA
ATOM     45  H   UNL     1       5.030   3.141  30.496  0.00  0.00    +0.292 HD
ENDBRANCH  32  44
BRANCH  29  46
ATOM     46  O   UNL     1       0.443   3.323  29.893  0.00  0.00    -0.507 OA
ATOM     47  H   UNL     1       0.820   4.183  30.144  0.00  0.00    +0.292 HD
ENDBRANCH  29  46
ENDBRANCH  22  23
ENDBRANCH  13  22
BRANCH  15  48
ATOM     48  C   UNL     1       4.307  -5.667  29.740  0.00  0.00    +0.190 C 
BRANCH  48  49
ATOM     49  O   UNL     1       4.086  -6.974  30.272  0.00  0.00    -0.392 OA
ATOM     50  H   UNL     1       4.920  -7.481  30.165  0.00  0.00    +0.210 HD
ENDBRANCH  48  49
ENDBRANCH  15  48
ENDBRANCH  11  12
ENDBRANCH   6  11
BRANCH   4  51
ATOM     51  C   UNL     1       4.057  -5.315  22.920  0.00  0.00    +0.190 C 
BRANCH  51  52
ATOM     52  O   UNL     1       4.739  -6.541  22.643  0.00  0.00    -0.392 OA
ATOM     53  H   UNL     1       5.161  -6.826  23.475  0.00  0.00    +0.210 HD
ENDBRANCH  51  52
ENDBRANCH   4  51
BRANCH   1  54
ATOM     54  O   UNL     1       8.179  -2.451  22.690  0.00  0.00    -0.338 OA
BRANCH  54  57
ATOM     55  C   UNL     1       6.793   0.802  23.721  0.00  0.00    +0.190 C 
ATOM     56  O   UNL     1       7.046  -0.396  22.951  0.00  0.00    -0.339 OA
ATOM     57  C   UNL     1       8.073  -1.249  23.489  0.00  0.00    +0.282 C 
ATOM     58  C   UNL     1       9.383  -0.408  23.547  0.00  0.00    +0.201 C 
ATOM     59  C   UNL     1       9.200   0.840  24.417  0.00  0.00    +0.179 C 
ATOM     60  C   UNL     1       8.048   1.671  23.887  0.00  0.00    +0.178 C 
BRANCH  58  61
ATOM     61  O   UNL     1      10.465  -1.087  24.152  0.00  0.00    -0.384 OA
ATOM     62  H   UNL     1       9.977  -1.779  24.636  0.00  0.00    +0.210 HD
ENDBRANCH  58  61
BRANCH  59  63
ATOM     63  O   UNL     1      10.403   1.627  24.432  0.00  0.00    -0.386 OA
ATOM     64  H   UNL     1      10.915   1.408  23.630  0.00  0.00    +0.210 HD
ENDBRANCH  59  63
BRANCH  60  65
ATOM     65  O   UNL     1       7.794   2.759  24.778  0.00  0.00    -0.386 OA
ATOM     66  H   UNL     1       6.979   3.199  24.479  0.00  0.00    +0.210 HD
ENDBRANCH  60  65
BRANCH  55  67
ATOM     67  C   UNL     1       6.090   0.516  25.065  0.00  0.00    +0.266 C 
BRANCH  67  68
ATOM     68  O   UNL     1       4.823   1.192  25.061  0.00  0.00    -0.459 OA
BRANCH  68  69
ATOM     69  C   UNL     1       4.784   2.398  25.673  0.00  0.00    +0.332 C 
ATOM     70  O   UNL     1       5.432   2.742  26.649  0.00  0.00    -0.246 OA
BRANCH  69  72
ATOM     71  C   UNL     1       3.742   3.231  23.630  0.00  0.00    +0.015 C 
ATOM     72  C   UNL     1       3.784   3.227  24.962  0.00  0.00    +0.092 C 
BRANCH  71  74
ATOM     73  C   UNL     1       1.447   3.882  22.803  0.00  0.00    +0.012 A 
ATOM     74  C   UNL     1       2.833   4.070  22.828  0.00  0.00    -0.021 A 
ATOM     75  C   UNL     1       3.400   5.077  22.038  0.00  0.00    +0.057 A 
ATOM     76  C   UNL     1       2.582   5.881  21.259  0.00  0.00    +0.159 A 
ATOM     77  C   UNL     1       1.203   5.696  21.251  0.00  0.00    +0.158 A 
ATOM     78  C   UNL     1       0.618   4.697  22.032  0.00  0.00    +0.050 A 
BRANCH  77  79
ATOM     79  O   UNL     1       0.448   6.518  20.462  0.00  0.00    -0.503 OA
ATOM     80  H   UNL     1       0.886   7.385  20.419  0.00  0.00    +0.292 HD
ENDBRANCH  77  79
BRANCH  76  81
ATOM     81  O   UNL     1       3.153   6.867  20.504  0.00  0.00    -0.503 OA
ATOM     82  H   UNL     1       3.758   7.316  21.109  0.00  0.00    +0.292 HD
ENDBRANCH  76  81
ENDBRANCH  71  74
ENDBRANCH  69  72
ENDBRANCH  68  69
ENDBRANCH  67  68
ENDBRANCH  55  67
ENDBRANCH  54  57
ENDBRANCH   1  54
TORSDOF 29
ENDMDL
MODEL 5
REMARK VINA RESULT:      -5.0      2.155      8.077
REMARK  Name = 
REMARK  29 active torsions:
REMARK  status: ('A' for Active; 'I' for Inactive)
REMARK    1  A    between atoms: C_3  and  O_75
REMARK    2  A    between atoms: C_4  and  O_74
REMARK    3  A    between atoms: C_6  and  C_7
REMARK    4  A    between atoms: C_8  and  C_9
REMARK    5  A    between atoms: C_9  and  O_11
REMARK    6  A    between atoms: O_11  and  C_12
REMARK    7  A    between atoms: C_12  and  C_13
REMARK    8  A    between atoms: C_14  and  O_73
REMARK    9  A    between atoms: C_16  and  O_72
REMARK   10  A    between atoms: C_17  and  O_71
REMARK   11  A    between atoms: C_19  and  O_22
REMARK   12  A    between atoms: O_22  and  C_23
REMARK   13  A    between atoms: C_24  and  O_35
REMARK   14  A    between atoms: C_27  and  C_33
REMARK   15  A    between atoms: C_28  and  O_32
REMARK   16  A    between atoms: C_30  and  O_31
REMARK   17  A    between atoms: C_33  and  O_34
REMARK   18  A    between atoms: O_35  and  C_36
REMARK   19  A    between atoms: C_37  and  O_70
REMARK   20  A    between atoms: C_39  and  O_69
REMARK   21  A    between atoms: C_41  and  C_67
REMARK   22  A    between atoms: C_43  and  O_45
REMARK   23  A    between atoms: O_45  and  C_46
REMARK   24  A    between atoms: C_47  and  C_59
REMARK   25  A    between atoms: C_51  and  O_58
REMARK   26  A    between atoms: C_53  and  O_57
REMARK   27  A    between atoms: C_61  and  O_66
REMARK   28  A    between atoms: C_62  and  O_65
REMARK   29  A    between atoms: C_67  and  O_68
REMARK                            x       y       z     vdW  Elec       q    Type
REMARK                         _______ _______ _______ _____ _____    ______ ____
ROOT
ATOM      1  C   UNL     1       3.478   2.593  26.801  0.00  0.00    +0.208 C 
ATOM      2  C   UNL     1       3.245   2.666  28.308  0.00  0.00    +0.179 C 
ATOM      3  C   UNL     1       3.940   3.861  28.930  0.00  0.00    +0.177 C 
ATOM      4  C   UNL     1       5.431   3.948  28.538  0.00  0.00    +0.178 C 
ATOM      5  O   UNL     1       5.758   3.611  27.192  0.00  0.00    -0.341 OA
ATOM      6  C   UNL     1       5.018   2.598  26.489  0.00  0.00    +0.283 C 
ENDROOT
BRANCH   3   7
ATOM      7  O   UNL     1       3.690   3.807  30.344  0.00  0.00    -0.386 OA
ATOM      8  H   UNL     1       2.797   3.419  30.477  0.00  0.00    +0.210 HD
ENDBRANCH   3   7
BRANCH   2   9
ATOM      9  O   UNL     1       3.691   1.462  28.948  0.00  0.00    -0.386 OA
ATOM     10  H   UNL     1       3.805   1.706  29.890  0.00  0.00    +0.210 HD
ENDBRANCH   2   9
BRANCH   6  11
ATOM     11  O   UNL     1       5.694   1.292  26.490  0.00  0.00    -0.337 OA
BRANCH  11  12
ATOM     12  C   UNL     1       6.048   0.799  25.163  0.00  0.00    +0.221 C 
ATOM     13  C   UNL     1       6.144  -0.736  24.920  0.00  0.00    +0.340 C 
ATOM     14  O   UNL     1       7.305  -1.323  25.556  0.00  0.00    -0.331 OA
ATOM     15  C   UNL     1       8.574  -0.784  25.060  0.00  0.00    +0.179 C 
ATOM     16  C   UNL     1       8.612   0.741  25.300  0.00  0.00    +0.177 C 
ATOM     17  C   UNL     1       7.399   1.332  24.606  0.00  0.00    +0.180 C 
BRANCH  16  18
ATOM     18  O   UNL     1       9.776   1.373  24.738  0.00  0.00    -0.386 OA
ATOM     19  H   UNL     1      10.528   0.774  24.919  0.00  0.00    +0.210 HD
ENDBRANCH  16  18
BRANCH  17  20
ATOM     20  O   UNL     1       7.502   2.752  24.529  0.00  0.00    -0.386 OA
ATOM     21  H   UNL     1       8.256   2.943  23.935  0.00  0.00    +0.210 HD
ENDBRANCH  17  20
BRANCH  13  22
ATOM     22  O   UNL     1       4.888  -1.422  25.135  0.00  0.00    -0.453 OA
BRANCH  22  23
ATOM     23  C   UNL     1       4.807  -2.537  26.006  0.00  0.00    +0.214 A 
ATOM     24  C   UNL     1       4.569  -2.394  27.514  0.00  0.00    +0.238 A 
ATOM     25  O   UNL     1       4.465  -1.306  28.070  0.00  0.00    -0.283 OA
ATOM     26  C   UNL     1       4.435  -3.609  28.346  0.00  0.00    +0.109 A 
ATOM     27  C   UNL     1       4.469  -4.825  27.700  0.00  0.00    +0.147 A 
ATOM     28  C   UNL     1       4.266  -6.025  28.397  0.00  0.00    +0.092 A 
ATOM     29  C   UNL     1       4.032  -5.994  29.765  0.00  0.00    +0.124 A 
ATOM     30  C   UNL     1       4.029  -4.788  30.449  0.00  0.00    +0.091 A 
ATOM     31  O   UNL     1       4.695  -4.935  26.366  0.00  0.00    -0.451 OA
ATOM     32  C   UNL     1       4.237  -3.598  29.741  0.00  0.00    +0.135 A 
ATOM     33  C   UNL     1       4.889  -3.821  25.549  0.00  0.00    +0.181 A 
BRANCH  33  34
ATOM     34  C   UNL     1       5.207  -4.321  24.156  0.00  0.00    +0.025 A 
ATOM     35  C   UNL     1       5.569  -5.692  23.998  0.00  0.00    +0.015 A 
ATOM     36  C   UNL     1       5.961  -6.244  22.776  0.00  0.00    +0.050 A 
ATOM     37  C   UNL     1       5.983  -5.430  21.667  0.00  0.00    +0.158 A 
ATOM     38  C   UNL     1       5.582  -4.101  21.765  0.00  0.00    +0.159 A 
ATOM     39  C   UNL     1       5.199  -3.542  22.992  0.00  0.00    +0.060 A 
BRANCH  37  40
ATOM     40  O   UNL     1       6.401  -5.950  20.476  0.00  0.00    -0.503 OA
ATOM     41  H   UNL     1       6.492  -5.176  19.888  0.00  0.00    +0.292 HD
ENDBRANCH  37  40
BRANCH  38  42
ATOM     42  O   UNL     1       5.579  -3.368  20.607  0.00  0.00    -0.503 OA
ATOM     43  H   UNL     1       5.585  -3.999  19.866  0.00  0.00    +0.292 HD
ENDBRANCH  38  42
ENDBRANCH  33  34
BRANCH  32  44
ATOM     44  O   UNL     1       4.240  -2.430  30.451  0.00  0.00    -0.506 OA
ATOM     45  H   UNL     1       3.360  -2.257  30.821  0.00  0.00    +0.292 HD
ENDBRANCH  32  44
BRANCH  29  46
ATOM     46  O   UNL     1       3.812  -7.132  30.484  0.00  0.00    -0.507 OA
ATOM     47  H   UNL     1       3.219  -6.936  31.228  0.00  0.00    +0.292 HD
ENDBRANCH  29  46
ENDBRANCH  22  23
ENDBRANCH  13  22
BRANCH  15  48
ATOM     48  C   UNL     1       8.913  -1.163  23.578  0.00  0.00    +0.190 C 
BRANCH  48  49
ATOM     49  O   UNL     1      10.315  -1.152  23.304  0.00  0.00    -0.392 OA
ATOM     50  H   UNL     1      10.427  -1.240  22.333  0.00  0.00    +0.210 HD
ENDBRANCH  48  49
ENDBRANCH  15  48
ENDBRANCH  11  12
ENDBRANCH   6  11
BRANCH   4  51
ATOM     51  C   UNL     1       6.442   3.317  29.502  0.00  0.00    +0.190 C 
BRANCH  51  52
ATOM     52  O   UNL     1       5.856   2.206  30.185  0.00  0.00    -0.392 OA
ATOM     53  H   UNL     1       5.057   1.954  29.686  0.00  0.00    +0.210 HD
ENDBRANCH  51  52
ENDBRANCH   4  51
BRANCH   1  54
ATOM     54  O   UNL     1       2.707   3.653  26.159  0.00  0.00    -0.338 OA
BRANCH  54  57
ATOM     55  C   UNL     1       3.475   6.474  23.919  0.00  0.00    +0.190 C 
ATOM     56  O   UNL     1       2.871   5.686  24.972  0.00  0.00    -0.339 OA
ATOM     57  C   UNL     1       3.306   4.316  25.021  0.00  0.00    +0.282 C 
ATOM     58  C   UNL     1       2.947   3.672  23.649  0.00  0.00    +0.201 C 
ATOM     59  C   UNL     1       3.624   4.418  22.494  0.00  0.00    +0.179 C 
ATOM     60  C   UNL     1       3.226   5.881  22.525  0.00  0.00    +0.178 C 
BRANCH  58  61
ATOM     61  O   UNL     1       3.407   2.343  23.509  0.00  0.00    -0.384 OA
ATOM     62  H   UNL     1       3.661   2.352  22.567  0.00  0.00    +0.210 HD
ENDBRANCH  58  61
BRANCH  59  63
ATOM     63  O   UNL     1       3.254   3.838  21.231  0.00  0.00    -0.386 OA
ATOM     64  H   UNL     1       3.481   4.478  20.530  0.00  0.00    +0.210 HD
ENDBRANCH  59  63
BRANCH  60  65
ATOM     65  O   UNL     1       3.964   6.598  21.533  0.00  0.00    -0.386 OA
ATOM     66  H   UNL     1       4.892   6.628  21.823  0.00  0.00    +0.210 HD
ENDBRANCH  60  65
BRANCH  55  67
ATOM     67  C   UNL     1       4.967   6.777  24.175  0.00  0.00    +0.266 C 
BRANCH  67  68
ATOM     68  O   UNL     1       5.378   6.045  25.340  0.00  0.00    -0.459 OA
BRANCH  68  69
ATOM     69  C   UNL     1       6.335   6.621  26.103  0.00  0.00    +0.332 C 
ATOM     70  O   UNL     1       6.190   7.107  27.213  0.00  0.00    -0.246 OA
BRANCH  69  72
ATOM     71  C   UNL     1       8.674   5.973  25.838  0.00  0.00    +0.015 C 
ATOM     72  C   UNL     1       7.601   6.584  25.334  0.00  0.00    +0.092 C 
BRANCH  71  74
ATOM     73  C   UNL     1      11.013   6.853  25.480  0.00  0.00    +0.012 A 
ATOM     74  C   UNL     1       9.995   5.938  25.186  0.00  0.00    -0.021 A 
ATOM     75  C   UNL     1      10.216   4.959  24.211  0.00  0.00    +0.057 A 
ATOM     76  C   UNL     1      11.442   4.899  23.564  0.00  0.00    +0.159 A 
ATOM     77  C   UNL     1      12.454   5.804  23.872  0.00  0.00    +0.158 A 
ATOM     78  C   UNL     1      12.251   6.789  24.842  0.00  0.00    +0.050 A 
BRANCH  77  79
ATOM     79  O   UNL     1      13.639   5.697  23.200  0.00  0.00    -0.503 OA
ATOM     80  H   UNL     1      13.776   4.762  22.971  0.00  0.00    +0.292 HD
ENDBRANCH  77  79
BRANCH  76  81
ATOM     81  O   UNL     1      11.643   3.928  22.623  0.00  0.00    -0.503 OA
ATOM     82  H   UNL     1      12.291   4.310  22.016  0.00  0.00    +0.292 HD
ENDBRANCH  76  81
ENDBRANCH  71  74
ENDBRANCH  69  72
ENDBRANCH  68  69
ENDBRANCH  67  68
ENDBRANCH  55  67
ENDBRANCH  54  57
ENDBRANCH   1  54
TORSDOF 29
ENDMDL
MODEL 6
REMARK VINA RESULT:      -5.0      1.533      2.365
REMARK  Name = 
REMARK  29 active torsions:
REMARK  status: ('A' for Active; 'I' for Inactive)
REMARK    1  A    between atoms: C_3  and  O_75
REMARK    2  A    between atoms: C_4  and  O_74
REMARK    3  A    between atoms: C_6  and  C_7
REMARK    4  A    between atoms: C_8  and  C_9
REMARK    5  A    between atoms: C_9  and  O_11
REMARK    6  A    between atoms: O_11  and  C_12
REMARK    7  A    between atoms: C_12  and  C_13
REMARK    8  A    between atoms: C_14  and  O_73
REMARK    9  A    between atoms: C_16  and  O_72
REMARK   10  A    between atoms: C_17  and  O_71
REMARK   11  A    between atoms: C_19  and  O_22
REMARK   12  A    between atoms: O_22  and  C_23
REMARK   13  A    between atoms: C_24  and  O_35
REMARK   14  A    between atoms: C_27  and  C_33
REMARK   15  A    between atoms: C_28  and  O_32
REMARK   16  A    between atoms: C_30  and  O_31
REMARK   17  A    between atoms: C_33  and  O_34
REMARK   18  A    between atoms: O_35  and  C_36
REMARK   19  A    between atoms: C_37  and  O_70
REMARK   20  A    between atoms: C_39  and  O_69
REMARK   21  A    between atoms: C_41  and  C_67
REMARK   22  A    between atoms: C_43  and  O_45
REMARK   23  A    between atoms: O_45  and  C_46
REMARK   24  A    between atoms: C_47  and  C_59
REMARK   25  A    between atoms: C_51  and  O_58
REMARK   26  A    between atoms: C_53  and  O_57
REMARK   27  A    between atoms: C_61  and  O_66
REMARK   28  A    between atoms: C_62  and  O_65
REMARK   29  A    between atoms: C_67  and  O_68
REMARK                            x       y       z     vdW  Elec       q    Type
REMARK                         _______ _______ _______ _____ _____    ______ ____
ROOT
ATOM      1  C   UNL     1       3.150  -2.015  27.299  0.00  0.00    +0.208 C 
ATOM      2  C   UNL     1       2.907  -2.592  28.691  0.00  0.00    +0.179 C 
ATOM      3  C   UNL     1       1.481  -2.365  29.155  0.00  0.00    +0.177 C 
ATOM      4  C   UNL     1       1.043  -0.891  29.021  0.00  0.00    +0.178 C 
ATOM      5  O   UNL     1       1.484  -0.198  27.856  0.00  0.00    -0.341 OA
ATOM      6  C   UNL     1       2.762  -0.493  27.267  0.00  0.00    +0.283 C 
ENDROOT
BRANCH   3   7
ATOM      7  O   UNL     1       1.377  -2.906  30.483  0.00  0.00    -0.386 OA
ATOM      8  H   UNL     1       2.138  -2.568  31.005  0.00  0.00    +0.210 HD
ENDBRANCH   3   7
BRANCH   2   9
ATOM      9  O   UNL     1       3.819  -2.023  29.641  0.00  0.00    -0.386 OA
ATOM     10  H   UNL     1       3.299  -1.338  30.110  0.00  0.00    +0.210 HD
ENDBRANCH   2   9
BRANCH   6  11
ATOM     11  O   UNL     1       3.808   0.462  27.663  0.00  0.00    -0.337 OA
BRANCH  11  12
ATOM     12  C   UNL     1       4.029   1.542  26.709  0.00  0.00    +0.221 C 
ATOM     13  C   UNL     1       5.105   2.625  27.015  0.00  0.00    +0.340 C 
ATOM     14  O   UNL     1       4.699   3.518  28.082  0.00  0.00    -0.331 OA
ATOM     15  C   UNL     1       3.481   4.273  27.774  0.00  0.00    +0.179 C 
ATOM     16  C   UNL     1       2.323   3.291  27.501  0.00  0.00    +0.177 C 
ATOM     17  C   UNL     1       2.766   2.383  26.368  0.00  0.00    +0.180 C 
BRANCH  16  18
ATOM     18  O   UNL     1       1.114   3.945  27.076  0.00  0.00    -0.386 OA
ATOM     19  H   UNL     1       0.796   3.452  26.293  0.00  0.00    +0.210 HD
ENDBRANCH  16  18
BRANCH  17  20
ATOM     20  O   UNL     1       1.663   1.636  25.858  0.00  0.00    -0.386 OA
ATOM     21  H   UNL     1       1.013   2.291  25.533  0.00  0.00    +0.210 HD
ENDBRANCH  17  20
BRANCH  13  22
ATOM     22  O   UNL     1       6.441   2.081  27.119  0.00  0.00    -0.453 OA
BRANCH  22  23
ATOM     23  C   UNL     1       7.455   2.459  26.203  0.00  0.00    +0.214 A 
ATOM     24  C   UNL     1       7.694   3.915  25.787  0.00  0.00    +0.238 A 
ATOM     25  O   UNL     1       7.005   4.844  26.195  0.00  0.00    -0.283 OA
ATOM     26  C   UNL     1       8.812   4.235  24.874  0.00  0.00    +0.109 A 
ATOM     27  C   UNL     1       9.631   3.197  24.490  0.00  0.00    +0.147 A 
ATOM     28  C   UNL     1      10.765   3.421  23.693  0.00  0.00    +0.092 A 
ATOM     29  C   UNL     1      11.068   4.711  23.277  0.00  0.00    +0.124 A 
ATOM     30  C   UNL     1      10.241   5.770  23.617  0.00  0.00    +0.091 A 
ATOM     31  O   UNL     1       9.398   1.911  24.854  0.00  0.00    -0.451 OA
ATOM     32  C   UNL     1       9.112   5.531  24.410  0.00  0.00    +0.135 A 
ATOM     33  C   UNL     1       8.320   1.550  25.664  0.00  0.00    +0.181 A 
BRANCH  33  34
ATOM     34  C   UNL     1       8.317   0.040  25.781  0.00  0.00    +0.025 A 
ATOM     35  C   UNL     1       9.382  -0.686  25.169  0.00  0.00    +0.015 A 
ATOM     36  C   UNL     1       9.439  -2.081  25.143  0.00  0.00    +0.050 A 
ATOM     37  C   UNL     1       8.430  -2.790  25.751  0.00  0.00    +0.158 A 
ATOM     38  C   UNL     1       7.403  -2.121  26.410  0.00  0.00    +0.159 A 
ATOM     39  C   UNL     1       7.336  -0.721  26.429  0.00  0.00    +0.060 A 
BRANCH  37  40
ATOM     40  O   UNL     1       8.458  -4.153  25.699  0.00  0.00    -0.503 OA
ATOM     41  H   UNL     1       9.407  -4.382  25.730  0.00  0.00    +0.292 HD
ENDBRANCH  37  40
BRANCH  38  42
ATOM     42  O   UNL     1       6.463  -2.895  27.039  0.00  0.00    -0.503 OA
ATOM     43  H   UNL     1       6.939  -3.497  27.638  0.00  0.00    +0.292 HD
ENDBRANCH  38  42
ENDBRANCH  33  34
BRANCH  32  44
ATOM     44  O   UNL     1       8.313   6.598  24.714  0.00  0.00    -0.506 OA
ATOM     45  H   UNL     1       7.824   6.889  23.929  0.00  0.00    +0.292 HD
ENDBRANCH  32  44
BRANCH  29  46
ATOM     46  O   UNL     1      12.167   4.981  22.517  0.00  0.00    -0.507 OA
ATOM     47  H   UNL     1      11.887   5.254  21.628  0.00  0.00    +0.292 HD
ENDBRANCH  29  46
ENDBRANCH  22  23
ENDBRANCH  13  22
BRANCH  15  48
ATOM     48  C   UNL     1       3.641   5.339  26.636  0.00  0.00    +0.190 C 
BRANCH  48  49
ATOM     49  O   UNL     1       2.584   6.300  26.617  0.00  0.00    -0.392 OA
ATOM     50  H   UNL     1       2.269   6.411  27.540  0.00  0.00    +0.210 HD
ENDBRANCH  48  49
ENDBRANCH  15  48
ENDBRANCH  11  12
ENDBRANCH   6  11
BRANCH   4  51
ATOM     51  C   UNL     1       1.202  -0.000  30.258  0.00  0.00    +0.190 C 
BRANCH  51  52
ATOM     52  O   UNL     1       2.550   0.467  30.368  0.00  0.00    -0.392 OA
ATOM     53  H   UNL     1       2.915   0.499  29.464  0.00  0.00    +0.210 HD
ENDBRANCH  51  52
ENDBRANCH   4  51
BRANCH   1  54
ATOM     54  O   UNL     1       2.465  -2.855  26.321  0.00  0.00    -0.338 OA
BRANCH  54  57
ATOM     55  C   UNL     1       3.696  -5.125  23.695  0.00  0.00    +0.190 C 
ATOM     56  O   UNL     1       2.945  -4.086  24.365  0.00  0.00    -0.339 OA
ATOM     57  C   UNL     1       3.200  -3.977  25.777  0.00  0.00    +0.282 C 
ATOM     58  C   UNL     1       2.830  -5.348  26.416  0.00  0.00    +0.201 C 
ATOM     59  C   UNL     1       3.652  -6.485  25.800  0.00  0.00    +0.179 C 
ATOM     60  C   UNL     1       3.443  -6.514  24.299  0.00  0.00    +0.178 C 
BRANCH  58  61
ATOM     61  O   UNL     1       3.123  -5.427  27.797  0.00  0.00    -0.384 OA
ATOM     62  H   UNL     1       3.598  -6.279  27.817  0.00  0.00    +0.210 HD
ENDBRANCH  58  61
BRANCH  59  63
ATOM     63  O   UNL     1       3.274  -7.749  26.371  0.00  0.00    -0.386 OA
ATOM     64  H   UNL     1       4.040  -8.094  26.869  0.00  0.00    +0.210 HD
ENDBRANCH  59  63
BRANCH  60  65
ATOM     65  O   UNL     1       4.314  -7.484  23.714  0.00  0.00    -0.386 OA
ATOM     66  H   UNL     1       4.724  -7.077  22.932  0.00  0.00    +0.210 HD
ENDBRANCH  60  65
BRANCH  55  67
ATOM     67  C   UNL     1       5.200  -4.799  23.573  0.00  0.00    +0.266 C 
BRANCH  67  68
ATOM     68  O   UNL     1       5.331  -3.547  22.883  0.00  0.00    -0.459 OA
BRANCH  68  69
ATOM     69  C   UNL     1       6.586  -3.183  22.533  0.00  0.00    +0.332 C 
ATOM     70  O   UNL     1       7.588  -3.879  22.582  0.00  0.00    -0.246 OA
BRANCH  69  72
ATOM     71  C   UNL     1       7.022  -0.809  22.893  0.00  0.00    +0.015 C 
ATOM     72  C   UNL     1       6.537  -1.766  22.103  0.00  0.00    +0.092 C 
BRANCH  71  74
ATOM     73  C   UNL     1       7.905   1.282  21.787  0.00  0.00    +0.012 A 
ATOM     74  C   UNL     1       6.960   0.632  22.589  0.00  0.00    -0.021 A 
ATOM     75  C   UNL     1       5.921   1.376  23.160  0.00  0.00    +0.057 A 
ATOM     76  C   UNL     1       5.833   2.738  22.909  0.00  0.00    +0.159 A 
ATOM     77  C   UNL     1       6.769   3.373  22.099  0.00  0.00    +0.158 A 
ATOM     78  C   UNL     1       7.813   2.648  21.520  0.00  0.00    +0.050 A 
BRANCH  77  79
ATOM     79  O   UNL     1       6.632   4.717  21.889  0.00  0.00    -0.503 OA
ATOM     80  H   UNL     1       7.206   4.970  21.147  0.00  0.00    +0.292 HD
ENDBRANCH  77  79
BRANCH  76  81
ATOM     81  O   UNL     1       4.804   3.445  23.465  0.00  0.00    -0.503 OA
ATOM     82  H   UNL     1       4.647   4.171  22.848  0.00  0.00    +0.292 HD
ENDBRANCH  76  81
ENDBRANCH  71  74
ENDBRANCH  69  72
ENDBRANCH  68  69
ENDBRANCH  67  68
ENDBRANCH  55  67
ENDBRANCH  54  57
ENDBRANCH   1  54
TORSDOF 29
ENDMDL
MODEL 7
REMARK VINA RESULT:      -4.9      1.988      7.078
REMARK  Name = 
REMARK  29 active torsions:
REMARK  status: ('A' for Active; 'I' for Inactive)
REMARK    1  A    between atoms: C_3  and  O_75
REMARK    2  A    between atoms: C_4  and  O_74
REMARK    3  A    between atoms: C_6  and  C_7
REMARK    4  A    between atoms: C_8  and  C_9
REMARK    5  A    between atoms: C_9  and  O_11
REMARK    6  A    between atoms: O_11  and  C_12
REMARK    7  A    between atoms: C_12  and  C_13
REMARK    8  A    between atoms: C_14  and  O_73
REMARK    9  A    between atoms: C_16  and  O_72
REMARK   10  A    between atoms: C_17  and  O_71
REMARK   11  A    between atoms: C_19  and  O_22
REMARK   12  A    between atoms: O_22  and  C_23
REMARK   13  A    between atoms: C_24  and  O_35
REMARK   14  A    between atoms: C_27  and  C_33
REMARK   15  A    between atoms: C_28  and  O_32
REMARK   16  A    between atoms: C_30  and  O_31
REMARK   17  A    between atoms: C_33  and  O_34
REMARK   18  A    between atoms: O_35  and  C_36
REMARK   19  A    between atoms: C_37  and  O_70
REMARK   20  A    between atoms: C_39  and  O_69
REMARK   21  A    between atoms: C_41  and  C_67
REMARK   22  A    between atoms: C_43  and  O_45
REMARK   23  A    between atoms: O_45  and  C_46
REMARK   24  A    between atoms: C_47  and  C_59
REMARK   25  A    between atoms: C_51  and  O_58
REMARK   26  A    between atoms: C_53  and  O_57
REMARK   27  A    between atoms: C_61  and  O_66
REMARK   28  A    between atoms: C_62  and  O_65
REMARK   29  A    between atoms: C_67  and  O_68
REMARK                            x       y       z     vdW  Elec       q    Type
REMARK                         _______ _______ _______ _____ _____    ______ ____
ROOT
ATOM      1  C   UNL     1       6.764  -1.585  26.236  0.00  0.00    +0.208 C 
ATOM      2  C   UNL     1       6.444  -1.184  24.798  0.00  0.00    +0.179 C 
ATOM      3  C   UNL     1       7.684  -1.173  23.925  0.00  0.00    +0.177 C 
ATOM      4  C   UNL     1       8.836  -0.353  24.545  0.00  0.00    +0.178 C 
ATOM      5  O   UNL     1       9.012  -0.466  25.955  0.00  0.00    -0.341 OA
ATOM      6  C   UNL     1       7.881  -0.651  26.824  0.00  0.00    +0.283 C 
ENDROOT
BRANCH   3   7
ATOM      7  O   UNL     1       7.275  -0.744  22.616  0.00  0.00    -0.386 OA
ATOM      8  H   UNL     1       8.086  -0.536  22.101  0.00  0.00    +0.210 HD
ENDBRANCH   3   7
BRANCH   2   9
ATOM      9  O   UNL     1       5.816   0.105  24.760  0.00  0.00    -0.386 OA
ATOM     10  H   UNL     1       6.512   0.715  24.437  0.00  0.00    +0.210 HD
ENDBRANCH   2   9
BRANCH   6  11
ATOM     11  O   UNL     1       7.431   0.601  27.449  0.00  0.00    -0.337 OA
BRANCH  11  12
ATOM     12  C   UNL     1       6.058   0.974  27.129  0.00  0.00    +0.221 C 
ATOM     13  C   UNL     1       5.748   2.429  26.671  0.00  0.00    +0.340 C 
ATOM     14  O   UNL     1       5.858   3.383  27.756  0.00  0.00    -0.331 OA
ATOM     15  C   UNL     1       4.920   3.125  28.852  0.00  0.00    +0.179 C 
ATOM     16  C   UNL     1       5.173   1.714  29.423  0.00  0.00    +0.177 C 
ATOM     17  C   UNL     1       5.031   0.735  28.272  0.00  0.00    +0.180 C 
BRANCH  16  18
ATOM     18  O   UNL     1       4.219   1.331  30.430  0.00  0.00    -0.386 OA
ATOM     19  H   UNL     1       4.714   1.282  31.272  0.00  0.00    +0.210 HD
ENDBRANCH  16  18
BRANCH  17  20
ATOM     20  O   UNL     1       4.965  -0.606  28.754  0.00  0.00    -0.386 OA
ATOM     21  H   UNL     1       4.293  -0.611  29.465  0.00  0.00    +0.210 HD
ENDBRANCH  17  20
BRANCH  13  22
ATOM     22  O   UNL     1       6.418   2.789  25.440  0.00  0.00    -0.453 OA
BRANCH  22  23
ATOM     23  C   UNL     1       5.782   3.615  24.479  0.00  0.00    +0.214 A 
ATOM     24  C   UNL     1       4.424   3.267  23.858  0.00  0.00    +0.238 A 
ATOM     25  O   UNL     1       3.814   2.239  24.128  0.00  0.00    -0.283 OA
ATOM     26  C   UNL     1       3.797   4.211  22.908  0.00  0.00    +0.109 A 
ATOM     27  C   UNL     1       4.449   5.402  22.677  0.00  0.00    +0.147 A 
ATOM     28  C   UNL     1       3.887   6.392  21.856  0.00  0.00    +0.092 A 
ATOM     29  C   UNL     1       2.654   6.170  21.259  0.00  0.00    +0.124 A 
ATOM     30  C   UNL     1       1.991   4.967  21.443  0.00  0.00    +0.091 A 
ATOM     31  O   UNL     1       5.658   5.689  23.223  0.00  0.00    -0.451 OA
ATOM     32  C   UNL     1       2.566   3.987  22.262  0.00  0.00    +0.135 A 
ATOM     33  C   UNL     1       6.319   4.804  24.076  0.00  0.00    +0.181 A 
BRANCH  33  34
ATOM     34  C   UNL     1       7.668   5.406  24.410  0.00  0.00    +0.025 A 
ATOM     35  C   UNL     1       8.624   5.541  23.360  0.00  0.00    +0.015 A 
ATOM     36  C   UNL     1       9.925   6.006  23.566  0.00  0.00    +0.050 A 
ATOM     37  C   UNL     1      10.298   6.366  24.839  0.00  0.00    +0.158 A 
ATOM     38  C   UNL     1       9.379   6.304  25.882  0.00  0.00    +0.159 A 
ATOM     39  C   UNL     1       8.075   5.829  25.681  0.00  0.00    +0.060 A 
BRANCH  37  40
ATOM     40  O   UNL     1      11.578   6.786  25.057  0.00  0.00    -0.503 OA
ATOM     41  H   UNL     1      11.811   7.293  24.256  0.00  0.00    +0.292 HD
ENDBRANCH  37  40
BRANCH  38  42
ATOM     42  O   UNL     1       9.808   6.732  27.111  0.00  0.00    -0.503 OA
ATOM     43  H   UNL     1       9.225   6.327  27.778  0.00  0.00    +0.292 HD
ENDBRANCH  38  42
ENDBRANCH  33  34
BRANCH  32  44
ATOM     44  O   UNL     1       1.889   2.808  22.410  0.00  0.00    -0.506 OA
ATOM     45  H   UNL     1       2.210   2.329  23.190  0.00  0.00    +0.292 HD
ENDBRANCH  32  44
BRANCH  29  46
ATOM     46  O   UNL     1       2.059   7.108  20.467  0.00  0.00    -0.507 OA
ATOM     47  H   UNL     1       2.256   6.917  19.535  0.00  0.00    +0.292 HD
ENDBRANCH  29  46
ENDBRANCH  22  23
ENDBRANCH  13  22
BRANCH  15  48
ATOM     48  C   UNL     1       3.413   3.362  28.495  0.00  0.00    +0.190 C 
BRANCH  48  49
ATOM     49  O   UNL     1       2.604   2.200  28.680  0.00  0.00    -0.392 OA
ATOM     50  H   UNL     1       2.804   1.839  29.571  0.00  0.00    +0.210 HD
ENDBRANCH  48  49
ENDBRANCH  15  48
ENDBRANCH  11  12
ENDBRANCH   6  11
BRANCH   4  51
ATOM     51  C   UNL     1       8.961   1.112  24.112  0.00  0.00    +0.190 C 
BRANCH  51  52
ATOM     52  O   UNL     1       9.085   1.962  25.256  0.00  0.00    -0.392 OA
ATOM     53  H   UNL     1       8.260   1.872  25.769  0.00  0.00    +0.210 HD
ENDBRANCH  51  52
ENDBRANCH   4  51
BRANCH   1  54
ATOM     54  O   UNL     1       7.064  -3.013  26.265  0.00  0.00    -0.338 OA
BRANCH  54  57
ATOM     55  C   UNL     1       4.569  -3.881  28.831  0.00  0.00    +0.190 C 
ATOM     56  O   UNL     1       5.568  -3.147  28.085  0.00  0.00    -0.339 OA
ATOM     57  C   UNL     1       6.149  -3.871  26.986  0.00  0.00    +0.282 C 
ATOM     58  C   UNL     1       6.812  -5.150  27.580  0.00  0.00    +0.201 C 
ATOM     59  C   UNL     1       5.784  -6.013  28.319  0.00  0.00    +0.179 C 
ATOM     60  C   UNL     1       5.114  -5.196  29.407  0.00  0.00    +0.178 C 
BRANCH  58  61
ATOM     61  O   UNL     1       7.343  -6.019  26.600  0.00  0.00    -0.384 OA
ATOM     62  H   UNL     1       7.985  -6.511  27.145  0.00  0.00    +0.210 HD
ENDBRANCH  58  61
BRANCH  59  63
ATOM     63  O   UNL     1       6.415  -7.169  28.895  0.00  0.00    -0.386 OA
ATOM     64  H   UNL     1       6.885  -7.641  28.181  0.00  0.00    +0.210 HD
ENDBRANCH  59  63
BRANCH  60  65
ATOM     65  O   UNL     1       4.064  -5.961  30.001  0.00  0.00    -0.386 OA
ATOM     66  H   UNL     1       4.400  -6.863  30.139  0.00  0.00    +0.210 HD
ENDBRANCH  60  65
BRANCH  55  67
ATOM     67  C   UNL     1       3.256  -4.081  28.044  0.00  0.00    +0.266 C 
BRANCH  67  68
ATOM     68  O   UNL     1       2.794  -2.792  27.610  0.00  0.00    -0.459 OA
BRANCH  68  69
ATOM     69  C   UNL     1       2.172  -2.751  26.410  0.00  0.00    +0.332 C 
ATOM     70  O   UNL     1       0.993  -2.510  26.207  0.00  0.00    -0.246 OA
BRANCH  69  72
ATOM     71  C   UNL     1       3.263  -4.323  24.894  0.00  0.00    +0.015 C 
ATOM     72  C   UNL     1       3.178  -3.082  25.374  0.00  0.00    +0.092 C 
BRANCH  71  74
ATOM     73  C   UNL     1       4.638  -6.111  23.760  0.00  0.00    +0.012 A 
ATOM     74  C   UNL     1       4.270  -4.770  23.915  0.00  0.00    -0.021 A 
ATOM     75  C   UNL     1       4.899  -3.794  23.134  0.00  0.00    +0.057 A 
ATOM     76  C   UNL     1       5.862  -4.170  22.209  0.00  0.00    +0.159 A 
ATOM     77  C   UNL     1       6.212  -5.508  22.051  0.00  0.00    +0.158 A 
ATOM     78  C   UNL     1       5.595  -6.496  22.822  0.00  0.00    +0.050 A 
BRANCH  77  79
ATOM     79  O   UNL     1       7.168  -5.818  21.125  0.00  0.00    -0.503 OA
ATOM     80  H   UNL     1       6.908  -6.645  20.685  0.00  0.00    +0.292 HD
ENDBRANCH  77  79
BRANCH  76  81
ATOM     81  O   UNL     1       6.456  -3.204  21.446  0.00  0.00    -0.503 OA
ATOM     82  H   UNL     1       7.206  -2.904  21.977  0.00  0.00    +0.292 HD
ENDBRANCH  76  81
ENDBRANCH  71  74
ENDBRANCH  69  72
ENDBRANCH  68  69
ENDBRANCH  67  68
ENDBRANCH  55  67
ENDBRANCH  54  57
ENDBRANCH   1  54
TORSDOF 29
ENDMDL
MODEL 8
REMARK VINA RESULT:      -4.2      1.917      6.773
REMARK  Name = 
REMARK  29 active torsions:
REMARK  status: ('A' for Active; 'I' for Inactive)
REMARK    1  A    between atoms: C_3  and  O_75
REMARK    2  A    between atoms: C_4  and  O_74
REMARK    3  A    between atoms: C_6  and  C_7
REMARK    4  A    between atoms: C_8  and  C_9
REMARK    5  A    between atoms: C_9  and  O_11
REMARK    6  A    between atoms: O_11  and  C_12
REMARK    7  A    between atoms: C_12  and  C_13
REMARK    8  A    between atoms: C_14  and  O_73
REMARK    9  A    between atoms: C_16  and  O_72
REMARK   10  A    between atoms: C_17  and  O_71
REMARK   11  A    between atoms: C_19  and  O_22
REMARK   12  A    between atoms: O_22  and  C_23
REMARK   13  A    between atoms: C_24  and  O_35
REMARK   14  A    between atoms: C_27  and  C_33
REMARK   15  A    between atoms: C_28  and  O_32
REMARK   16  A    between atoms: C_30  and  O_31
REMARK   17  A    between atoms: C_33  and  O_34
REMARK   18  A    between atoms: O_35  and  C_36
REMARK   19  A    between atoms: C_37  and  O_70
REMARK   20  A    between atoms: C_39  and  O_69
REMARK   21  A    between atoms: C_41  and  C_67
REMARK   22  A    between atoms: C_43  and  O_45
REMARK   23  A    between atoms: O_45  and  C_46
REMARK   24  A    between atoms: C_47  and  C_59
REMARK   25  A    between atoms: C_51  and  O_58
REMARK   26  A    between atoms: C_53  and  O_57
REMARK   27  A    between atoms: C_61  and  O_66
REMARK   28  A    between atoms: C_62  and  O_65
REMARK   29  A    between atoms: C_67  and  O_68
REMARK                            x       y       z     vdW  Elec       q    Type
REMARK                         _______ _______ _______ _____ _____    ______ ____
ROOT
ATOM      1  C   UNL     1       1.990  -2.640  26.237  0.00  0.00    +0.208 C 
ATOM      2  C   UNL     1       1.066  -3.680  25.607  0.00  0.00    +0.179 C 
ATOM      3  C   UNL     1       1.333  -5.072  26.146  0.00  0.00    +0.177 C 
ATOM      4  C   UNL     1       2.826  -5.459  26.075  0.00  0.00    +0.178 C 
ATOM      5  O   UNL     1       3.766  -4.432  26.382  0.00  0.00    -0.341 OA
ATOM      6  C   UNL     1       3.491  -3.061  26.046  0.00  0.00    +0.283 C 
ENDROOT
BRANCH   3   7
ATOM      7  O   UNL     1       0.444  -5.969  25.460  0.00  0.00    -0.386 OA
ATOM      8  H   UNL     1      -0.175  -6.346  26.124  0.00  0.00    +0.210 HD
ENDBRANCH   3   7
BRANCH   2   9
ATOM      9  O   UNL     1       1.205  -3.682  24.180  0.00  0.00    -0.386 OA
ATOM     10  H   UNL     1       2.024  -4.192  24.007  0.00  0.00    +0.210 HD
ENDBRANCH   2   9
BRANCH   6  11
ATOM     11  O   UNL     1       4.140  -2.638  24.797  0.00  0.00    -0.337 OA
BRANCH  11  12
ATOM     12  C   UNL     1       5.583  -2.452  24.903  0.00  0.00    +0.221 C 
ATOM     13  C   UNL     1       6.280  -1.368  24.028  0.00  0.00    +0.340 C 
ATOM     14  O   UNL     1       6.331  -1.740  22.628  0.00  0.00    -0.331 OA
ATOM     15  C   UNL     1       7.091  -2.969  22.382  0.00  0.00    +0.179 C 
ATOM     16  C   UNL     1       6.451  -4.134  23.167  0.00  0.00    +0.177 C 
ATOM     17  C   UNL     1       6.430  -3.727  24.629  0.00  0.00    +0.180 C 
BRANCH  16  18
ATOM     18  O   UNL     1       7.202  -5.358  23.075  0.00  0.00    -0.386 OA
ATOM     19  H   UNL     1       7.886  -5.210  22.392  0.00  0.00    +0.210 HD
ENDBRANCH  16  18
BRANCH  17  20
ATOM     20  O   UNL     1       6.123  -4.845  25.460  0.00  0.00    -0.386 OA
ATOM     21  H   UNL     1       5.147  -4.892  25.509  0.00  0.00    +0.210 HD
ENDBRANCH  17  20
BRANCH  13  22
ATOM     22  O   UNL     1       5.815  -0.028  24.311  0.00  0.00    -0.453 OA
BRANCH  22  23
ATOM     23  C   UNL     1       6.666   1.092  24.133  0.00  0.00    +0.214 A 
ATOM     24  C   UNL     1       8.193   0.995  24.238  0.00  0.00    +0.238 A 
ATOM     25  O   UNL     1       8.775  -0.048  24.513  0.00  0.00    -0.283 OA
ATOM     26  C   UNL     1       9.015   2.197  23.977  0.00  0.00    +0.109 A 
ATOM     27  C   UNL     1       8.357   3.340  23.585  0.00  0.00    +0.147 A 
ATOM     28  C   UNL     1       9.062   4.503  23.237  0.00  0.00    +0.092 A 
ATOM     29  C   UNL     1      10.449   4.507  23.291  0.00  0.00    +0.124 A 
ATOM     30  C   UNL     1      11.138   3.382  23.717  0.00  0.00    +0.091 A 
ATOM     31  O   UNL     1       7.004   3.414  23.511  0.00  0.00    -0.451 OA
ATOM     32  C   UNL     1      10.421   2.230  24.065  0.00  0.00    +0.135 A 
ATOM     33  C   UNL     1       6.181   2.326  23.807  0.00  0.00    +0.181 A 
BRANCH  33  34
ATOM     34  C   UNL     1       4.745   2.795  23.714  0.00  0.00    +0.025 A 
ATOM     35  C   UNL     1       4.421   3.784  22.738  0.00  0.00    +0.015 A 
ATOM     36  C   UNL     1       3.149   4.349  22.616  0.00  0.00    +0.050 A 
ATOM     37  C   UNL     1       2.157   3.919  23.465  0.00  0.00    +0.158 A 
ATOM     38  C   UNL     1       2.415   2.915  24.393  0.00  0.00    +0.159 A 
ATOM     39  C   UNL     1       3.692   2.353  24.525  0.00  0.00    +0.060 A 
BRANCH  37  40
ATOM     40  O   UNL     1       0.921   4.492  23.378  0.00  0.00    -0.503 OA
ATOM     41  H   UNL     1       0.872   4.835  22.465  0.00  0.00    +0.292 HD
ENDBRANCH  37  40
BRANCH  38  42
ATOM     42  O   UNL     1       1.362   2.501  25.166  0.00  0.00    -0.503 OA
ATOM     43  H   UNL     1       0.838   1.878  24.632  0.00  0.00    +0.292 HD
ENDBRANCH  38  42
ENDBRANCH  33  34
BRANCH  32  44
ATOM     44  O   UNL     1      11.133   1.145  24.493  0.00  0.00    -0.506 OA
ATOM     45  H   UNL     1      11.522   1.317  25.365  0.00  0.00    +0.292 HD
ENDBRANCH  32  44
BRANCH  29  46
ATOM     46  O   UNL     1      11.179   5.605  22.946  0.00  0.00    -0.507 OA
ATOM     47  H   UNL     1      11.196   5.692  21.978  0.00  0.00    +0.292 HD
ENDBRANCH  29  46
ENDBRANCH  22  23
ENDBRANCH  13  22
BRANCH  15  48
ATOM     48  C   UNL     1       8.632  -2.851  22.640  0.00  0.00    +0.190 C 
BRANCH  48  49
ATOM     49  O   UNL     1       9.208  -1.677  22.064  0.00  0.00    -0.392 OA
ATOM     50  H   UNL     1       9.140  -1.763  21.089  0.00  0.00    +0.210 HD
ENDBRANCH  48  49
ENDBRANCH  15  48
ENDBRANCH  11  12
ENDBRANCH   6  11
BRANCH   4  51
ATOM     51  C   UNL     1       3.284  -6.243  24.841  0.00  0.00    +0.190 C 
BRANCH  51  52
ATOM     52  O   UNL     1       3.534  -5.355  23.747  0.00  0.00    -0.392 OA
ATOM     53  H   UNL     1       4.488  -5.154  23.757  0.00  0.00    +0.210 HD
ENDBRANCH  51  52
ENDBRANCH   4  51
BRANCH   1  54
ATOM     54  O   UNL     1       1.572  -2.423  27.618  0.00  0.00    -0.338 OA
BRANCH  54  57
ATOM     55  C   UNL     1       2.763   1.053  27.876  0.00  0.00    +0.190 C 
ATOM     56  O   UNL     1       2.340  -0.212  27.314  0.00  0.00    -0.339 OA
ATOM     57  C   UNL     1       2.068  -1.238  28.285  0.00  0.00    +0.282 C 
ATOM     58  C   UNL     1       3.383  -1.467  29.090  0.00  0.00    +0.201 C 
ATOM     59  C   UNL     1       3.841  -0.176  29.776  0.00  0.00    +0.179 C 
ATOM     60  C   UNL     1       4.024   0.918  28.741  0.00  0.00    +0.178 C 
BRANCH  58  61
ATOM     61  O   UNL     1       3.242  -2.385  30.155  0.00  0.00    -0.384 OA
ATOM     62  H   UNL     1       4.039  -2.928  30.013  0.00  0.00    +0.210 HD
ENDBRANCH  58  61
BRANCH  59  63
ATOM     63  O   UNL     1       5.075  -0.389  30.483  0.00  0.00    -0.386 OA
ATOM     64  H   UNL     1       5.485  -1.203  30.132  0.00  0.00    +0.210 HD
ENDBRANCH  59  63
BRANCH  60  65
ATOM     65  O   UNL     1       4.319   2.153  29.398  0.00  0.00    -0.386 OA
ATOM     66  H   UNL     1       3.475   2.539  29.689  0.00  0.00    +0.210 HD
ENDBRANCH  60  65
BRANCH  55  67
ATOM     67  C   UNL     1       1.625   1.801  28.602  0.00  0.00    +0.266 C 
BRANCH  67  68
ATOM     68  O   UNL     1       1.512   3.111  28.026  0.00  0.00    -0.459 OA
BRANCH  68  69
ATOM     69  C   UNL     1       1.803   4.151  28.841  0.00  0.00    +0.332 C 
ATOM     70  O   UNL     1       1.317   4.378  29.936  0.00  0.00    -0.246 OA
BRANCH  69  72
ATOM     71  C   UNL     1       3.641   4.448  27.262  0.00  0.00    +0.015 C 
ATOM     72  C   UNL     1       2.807   4.993  28.149  0.00  0.00    +0.092 C 
BRANCH  71  74
ATOM     73  C   UNL     1       4.470   6.156  25.598  0.00  0.00    +0.012 A 
ATOM     74  C   UNL     1       4.717   5.182  26.572  0.00  0.00    -0.021 A 
ATOM     75  C   UNL     1       6.040   4.858  26.895  0.00  0.00    +0.057 A 
ATOM     76  C   UNL     1       7.083   5.516  26.260  0.00  0.00    +0.159 A 
ATOM     77  C   UNL     1       6.829   6.493  25.302  0.00  0.00    +0.158 A 
ATOM     78  C   UNL     1       5.515   6.830  24.966  0.00  0.00    +0.050 A 
BRANCH  77  79
ATOM     79  O   UNL     1       7.896   7.106  24.709  0.00  0.00    -0.503 OA
ATOM     80  H   UNL     1       8.194   7.827  25.288  0.00  0.00    +0.292 HD
ENDBRANCH  77  79
BRANCH  76  81
ATOM     81  O   UNL     1       8.368   5.195  26.598  0.00  0.00    -0.503 OA
ATOM     82  H   UNL     1       8.384   5.244  27.562  0.00  0.00    +0.292 HD
ENDBRANCH  76  81
ENDBRANCH  71  74
ENDBRANCH  69  72
ENDBRANCH  68  69
ENDBRANCH  67  68
ENDBRANCH  55  67
ENDBRANCH  54  57
ENDBRANCH   1  54
TORSDOF 29
ENDMDL
MODEL 9
REMARK VINA RESULT:      -4.2      1.813      5.710
REMARK  Name = 
REMARK  29 active torsions:
REMARK  status: ('A' for Active; 'I' for Inactive)
REMARK    1  A    between atoms: C_3  and  O_75
REMARK    2  A    between atoms: C_4  and  O_74
REMARK    3  A    between atoms: C_6  and  C_7
REMARK    4  A    between atoms: C_8  and  C_9
REMARK    5  A    between atoms: C_9  and  O_11
REMARK    6  A    between atoms: O_11  and  C_12
REMARK    7  A    between atoms: C_12  and  C_13
REMARK    8  A    between atoms: C_14  and  O_73
REMARK    9  A    between atoms: C_16  and  O_72
REMARK   10  A    between atoms: C_17  and  O_71
REMARK   11  A    between atoms: C_19  and  O_22
REMARK   12  A    between atoms: O_22  and  C_23
REMARK   13  A    between atoms: C_24  and  O_35
REMARK   14  A    between atoms: C_27  and  C_33
REMARK   15  A    between atoms: C_28  and  O_32
REMARK   16  A    between atoms: C_30  and  O_31
REMARK   17  A    between atoms: C_33  and  O_34
REMARK   18  A    between atoms: O_35  and  C_36
REMARK   19  A    between atoms: C_37  and  O_70
REMARK   20  A    between atoms: C_39  and  O_69
REMARK   21  A    between atoms: C_41  and  C_67
REMARK   22  A    between atoms: C_43  and  O_45
REMARK   23  A    between atoms: O_45  and  C_46
REMARK   24  A    between atoms: C_47  and  C_59
REMARK   25  A    between atoms: C_51  and  O_58
REMARK   26  A    between atoms: C_53  and  O_57
REMARK   27  A    between atoms: C_61  and  O_66
REMARK   28  A    between atoms: C_62  and  O_65
REMARK   29  A    between atoms: C_67  and  O_68
REMARK                            x       y       z     vdW  Elec       q    Type
REMARK                         _______ _______ _______ _____ _____    ______ ____
ROOT
ATOM      1  C   UNL     1       2.960  -2.242  27.301  0.00  0.00    +0.208 C 
ATOM      2  C   UNL     1       2.692  -2.745  28.717  0.00  0.00    +0.179 C 
ATOM      3  C   UNL     1       1.250  -2.527  29.131  0.00  0.00    +0.177 C 
ATOM      4  C   UNL     1       0.782  -1.075  28.901  0.00  0.00    +0.178 C 
ATOM      5  O   UNL     1       1.238  -0.438  27.710  0.00  0.00    -0.341 OA
ATOM      6  C   UNL     1       2.537  -0.735  27.172  0.00  0.00    +0.283 C 
ENDROOT
BRANCH   3   7
ATOM      7  O   UNL     1       1.124  -2.995  30.485  0.00  0.00    -0.386 OA
ATOM      8  H   UNL     1       1.978  -2.829  30.941  0.00  0.00    +0.210 HD
ENDBRANCH   3   7
BRANCH   2   9
ATOM      9  O   UNL     1       3.565  -2.101  29.655  0.00  0.00    -0.386 OA
ATOM     10  H   UNL     1       4.283  -1.717  29.109  0.00  0.00    +0.210 HD
ENDBRANCH   2   9
BRANCH   6  11
ATOM     11  O   UNL     1       3.550   0.266  27.539  0.00  0.00    -0.337 OA
BRANCH  11  12
ATOM     12  C   UNL     1       3.760   1.304  26.536  0.00  0.00    +0.221 C 
ATOM     13  C   UNL     1       5.084   2.123  26.550  0.00  0.00    +0.340 C 
ATOM     14  O   UNL     1       5.149   3.047  27.663  0.00  0.00    -0.331 OA
ATOM     15  C   UNL     1       4.084   4.054  27.643  0.00  0.00    +0.179 C 
ATOM     16  C   UNL     1       2.711   3.350  27.680  0.00  0.00    +0.177 C 
ATOM     17  C   UNL     1       2.663   2.406  26.494  0.00  0.00    +0.180 C 
BRANCH  16  18
ATOM     18  O   UNL     1       1.604   4.260  27.548  0.00  0.00    -0.386 OA
ATOM     19  H   UNL     1       1.012   3.875  26.870  0.00  0.00    +0.210 HD
ENDBRANCH  16  18
BRANCH  17  20
ATOM     20  O   UNL     1       1.336   1.927  26.282  0.00  0.00    -0.386 OA
ATOM     21  H   UNL     1       0.740   2.553  26.741  0.00  0.00    +0.210 HD
ENDBRANCH  17  20
BRANCH  13  22
ATOM     22  O   UNL     1       6.258   1.303  26.338  0.00  0.00    -0.453 OA
BRANCH  22  23
ATOM     23  C   UNL     1       6.365   0.464  25.200  0.00  0.00    +0.214 A 
ATOM     24  C   UNL     1       5.899  -0.998  25.204  0.00  0.00    +0.238 A 
ATOM     25  O   UNL     1       5.433  -1.544  26.197  0.00  0.00    -0.283 OA
ATOM     26  C   UNL     1       5.988  -1.790  23.958  0.00  0.00    +0.109 A 
ATOM     27  C   UNL     1       6.432  -1.142  22.827  0.00  0.00    +0.147 A 
ATOM     28  C   UNL     1       6.469  -1.792  21.584  0.00  0.00    +0.092 A 
ATOM     29  C   UNL     1       6.056  -3.114  21.487  0.00  0.00    +0.124 A 
ATOM     30  C   UNL     1       5.639  -3.803  22.615  0.00  0.00    +0.091 A 
ATOM     31  O   UNL     1       6.854   0.147  22.844  0.00  0.00    -0.451 OA
ATOM     32  C   UNL     1       5.611  -3.143  23.850  0.00  0.00    +0.135 A 
ATOM     33  C   UNL     1       6.849   0.918  24.007  0.00  0.00    +0.181 A 
BRANCH  33  34
ATOM     34  C   UNL     1       7.471   2.258  23.676  0.00  0.00    +0.025 A 
ATOM     35  C   UNL     1       8.607   2.678  24.431  0.00  0.00    +0.015 A 
ATOM     36  C   UNL     1       9.213   3.926  24.269  0.00  0.00    +0.050 A 
ATOM     37  C   UNL     1       8.701   4.786  23.326  0.00  0.00    +0.158 A 
ATOM     38  C   UNL     1       7.630   4.393  22.528  0.00  0.00    +0.159 A 
ATOM     39  C   UNL     1       7.013   3.146  22.695  0.00  0.00    +0.060 A 
BRANCH  37  40
ATOM     40  O   UNL     1       9.262   6.022  23.186  0.00  0.00    -0.503 OA
ATOM     41  H   UNL     1       9.472   6.302  24.098  0.00  0.00    +0.292 HD
ENDBRANCH  37  40
BRANCH  38  42
ATOM     42  O   UNL     1       7.210   5.282  21.574  0.00  0.00    -0.503 OA
ATOM     43  H   UNL     1       6.245   5.372  21.666  0.00  0.00    +0.292 HD
ENDBRANCH  38  42
ENDBRANCH  33  34
BRANCH  32  44
ATOM     44  O   UNL     1       5.205  -3.858  24.942  0.00  0.00    -0.506 OA
ATOM     45  H   UNL     1       5.938  -3.961  25.570  0.00  0.00    +0.292 HD
ENDBRANCH  32  44
BRANCH  29  46
ATOM     46  O   UNL     1       6.057  -3.782  20.299  0.00  0.00    -0.507 OA
ATOM     47  H   UNL     1       5.510  -4.582  20.376  0.00  0.00    +0.292 HD
ENDBRANCH  29  46
ENDBRANCH  22  23
ENDBRANCH  13  22
BRANCH  15  48
ATOM     48  C   UNL     1       4.188   5.097  26.478  0.00  0.00    +0.190 C 
BRANCH  48  49
ATOM     49  O   UNL     1       5.319   5.961  26.600  0.00  0.00    -0.392 OA
ATOM     50  H   UNL     1       5.628   5.914  27.530  0.00  0.00    +0.210 HD
ENDBRANCH  48  49
ENDBRANCH  15  48
ENDBRANCH  11  12
ENDBRANCH   6  11
BRANCH   4  51
ATOM     51  C   UNL     1       0.887  -0.112  30.089  0.00  0.00    +0.190 C 
BRANCH  51  52
ATOM     52  O   UNL     1       2.200   0.452  30.161  0.00  0.00    -0.392 OA
ATOM     53  H   UNL     1       2.779  -0.103  29.604  0.00  0.00    +0.210 HD
ENDBRANCH  51  52
ENDBRANCH   4  51
BRANCH   1  54
ATOM     54  O   UNL     1       2.321  -3.153  26.355  0.00  0.00    -0.338 OA
BRANCH  54  57
ATOM     55  C   UNL     1       3.809  -6.417  25.518  0.00  0.00    +0.190 C 
ATOM     56  O   UNL     1       3.408  -5.030  25.423  0.00  0.00    -0.339 OA
ATOM     57  C   UNL     1       2.587  -4.567  26.511  0.00  0.00    +0.282 C 
ATOM     58  C   UNL     1       1.307  -5.456  26.529  0.00  0.00    +0.201 C 
ATOM     59  C   UNL     1       1.664  -6.935  26.707  0.00  0.00    +0.179 C 
ATOM     60  C   UNL     1       2.610  -7.371  25.604  0.00  0.00    +0.178 C 
BRANCH  58  61
ATOM     61  O   UNL     1       0.443  -5.183  27.614  0.00  0.00    -0.384 OA
ATOM     62  H   UNL     1       0.846  -5.754  28.294  0.00  0.00    +0.210 HD
ENDBRANCH  58  61
BRANCH  59  63
ATOM     63  O   UNL     1       0.479  -7.748  26.683  0.00  0.00    -0.386 OA
ATOM     64  H   UNL     1       0.726  -8.647  26.972  0.00  0.00    +0.210 HD
ENDBRANCH  59  63
BRANCH  60  65
ATOM     65  O   UNL     1       3.047  -8.709  25.851  0.00  0.00    -0.386 OA
ATOM     66  H   UNL     1       3.715  -8.928  25.179  0.00  0.00    +0.210 HD
ENDBRANCH  60  65
BRANCH  55  67
ATOM     67  C   UNL     1       4.845  -6.668  26.634  0.00  0.00    +0.266 C 
BRANCH  67  68
ATOM     68  O   UNL     1       6.113  -6.159  26.191  0.00  0.00    -0.459 OA
BRANCH  68  69
ATOM     69  C   UNL     1       6.935  -5.679  27.152  0.00  0.00    +0.332 C 
ATOM     70  O   UNL     1       7.197  -6.208  28.220  0.00  0.00    -0.246 OA
BRANCH  69  72
ATOM     71  C   UNL     1       8.359  -4.312  25.715  0.00  0.00    +0.015 C 
ATOM     72  C   UNL     1       7.447  -4.369  26.686  0.00  0.00    +0.092 C 
BRANCH  71  74
ATOM     73  C   UNL     1       9.080  -1.911  26.010  0.00  0.00    +0.012 A 
ATOM     74  C   UNL     1       8.980  -3.067  25.228  0.00  0.00    -0.021 A 
ATOM     75  C   UNL     1       9.460  -3.048  23.914  0.00  0.00    +0.057 A 
ATOM     76  C   UNL     1      10.041  -1.893  23.412  0.00  0.00    +0.159 A 
ATOM     77  C   UNL     1      10.149  -0.751  24.200  0.00  0.00    +0.158 A 
ATOM     78  C   UNL     1       9.675  -0.751  25.515  0.00  0.00    +0.050 A 
BRANCH  77  79
ATOM     79  O   UNL     1      10.729   0.358  23.651  0.00  0.00    -0.503 OA
ATOM     80  H   UNL     1      11.582   0.096  23.266  0.00  0.00    +0.292 HD
ENDBRANCH  77  79
BRANCH  76  81
ATOM     81  O   UNL     1      10.516  -1.897  22.130  0.00  0.00    -0.503 OA
ATOM     82  H   UNL     1      10.116  -2.678  21.727  0.00  0.00    +0.292 HD
ENDBRANCH  76  81
ENDBRANCH  71  74
ENDBRANCH  69  72
ENDBRANCH  68  69
ENDBRANCH  67  68
ENDBRANCH  55  67
ENDBRANCH  54  57
ENDBRANCH   1  54
TORSDOF 29
ENDMDL
