MODEL 1
REMARK VINA RESULT:      -6.8      0.000      0.000
REMARK  Name = 
REMARK  24 active torsions:
REMARK  status: ('A' for Active; 'I' for Inactive)
REMARK    1  A    between atoms: C_3  and  O_63
REMARK    2  A    between atoms: C_4  and  O_62
REMARK    3  A    between atoms: C_6  and  C_7
REMARK    4  A    between atoms: C_8  and  O_34
REMARK    5  A    between atoms: C_12  and  O_33
REMARK    6  A    between atoms: C_14  and  O_18
REMARK    7  A    between atoms: O_18  and  C_19
REMARK    8  A    between atoms: C_21  and  O_32
REMARK    9  A    between atoms: C_22  and  O_31
REMARK   10  A    between atoms: C_24  and  O_30
REMARK   11  A    between atoms: C_26  and  C_28
REMARK   12  A    between atoms: C_28  and  O_29
REMARK   13  A    between atoms: O_34  and  C_35
REMARK   14  A    between atoms: C_37  and  O_61
REMARK   15  A    between atoms: C_38  and  O_60
REMARK   16  A    between atoms: C_39  and  O_59
REMARK   17  A    between atoms: C_41  and  C_43
REMARK   18  A    between atoms: C_43  and  O_44
REMARK   19  A    between atoms: O_44  and  C_45
REMARK   20  A    between atoms: C_47  and  O_58
REMARK   21  A    between atoms: C_48  and  O_57
REMARK   22  A    between atoms: C_50  and  O_56
REMARK   23  A    between atoms: C_52  and  C_54
REMARK   24  A    between atoms: C_54  and  O_55
REMARK                            x       y       z     vdW  Elec       q    Type
REMARK                         _______ _______ _______ _____ _____    ______ ____
ROOT
ATOM      1  C   UNL     1       5.600  -0.920  25.468  0.00  0.00    +0.181 A 
ATOM      2  O   UNL     1       5.274   0.420  25.299  0.00  0.00    -0.451 OA
ATOM      3  C   UNL     1       5.795   1.096  24.233  0.00  0.00    +0.147 A 
ATOM      4  C   UNL     1       6.850   0.616  23.481  0.00  0.00    +0.109 A 
ATOM      5  C   UNL     1       7.349   1.386  22.425  0.00  0.00    +0.135 A 
ATOM      6  C   UNL     1       6.717   2.586  22.063  0.00  0.00    +0.092 A 
ATOM      7  C   UNL     1       5.602   3.029  22.771  0.00  0.00    +0.131 A 
ATOM      8  C   UNL     1       7.332  -0.733  23.789  0.00  0.00    +0.238 A 
ATOM      9  O   UNL     1       8.384  -1.136  23.296  0.00  0.00    -0.283 OA
ATOM     10  C   UNL     1       5.187   2.302  23.898  0.00  0.00    +0.093 A 
ATOM     11  C   UNL     1       6.487  -1.573  24.692  0.00  0.00    +0.214 A 
ENDROOT
BRANCH   1  13
ATOM     12  C   UNL     1       3.578  -2.088  26.223  0.00  0.00    +0.015 A 
ATOM     13  C   UNL     1       4.791  -1.478  26.596  0.00  0.00    +0.025 A 
ATOM     14  C   UNL     1       4.979  -1.156  27.958  0.00  0.00    +0.060 A 
ATOM     15  C   UNL     1       3.929  -1.363  28.872  0.00  0.00    +0.159 A 
ATOM     16  C   UNL     1       2.698  -1.854  28.445  0.00  0.00    +0.158 A 
ATOM     17  C   UNL     1       2.525  -2.254  27.131  0.00  0.00    +0.050 A 
BRANCH  16  18
ATOM     18  O   UNL     1       1.665  -1.856  29.344  0.00  0.00    -0.503 OA
ATOM     19  H   UNL     1       2.040  -1.995  30.234  0.00  0.00    +0.292 HD
ENDBRANCH  16  18
BRANCH  15  20
ATOM     20  O   UNL     1       4.050  -1.013  30.194  0.00  0.00    -0.503 OA
ATOM     21  H   UNL     1       4.805  -1.539  30.538  0.00  0.00    +0.292 HD
ENDBRANCH  15  20
ENDBRANCH   1  13
BRANCH   5  22
ATOM     22  O   UNL     1       8.421   0.991  21.670  0.00  0.00    -0.506 OA
ATOM     23  H   UNL     1       8.228   1.193  20.726  0.00  0.00    +0.292 HD
ENDBRANCH   5  22
BRANCH  11  24
ATOM     24  O   UNL     1       6.975  -2.783  25.015  0.00  0.00    -0.453 OA
BRANCH  24  25
ATOM     25  C   UNL     1       6.634  -4.123  24.675  0.00  0.00    +0.340 C 
ATOM     26  O   UNL     1       5.531  -4.595  25.426  0.00  0.00    -0.331 OA
ATOM     27  C   UNL     1       5.750  -5.023  26.786  0.00  0.00    +0.179 C 
ATOM     28  C   UNL     1       7.157  -4.944  27.448  0.00  0.00    +0.177 C 
ATOM     29  C   UNL     1       8.197  -4.325  26.540  0.00  0.00    +0.180 C 
ATOM     30  C   UNL     1       7.909  -4.876  25.106  0.00  0.00    +0.214 C 
BRANCH  30  31
ATOM     31  O   UNL     1       9.004  -4.670  24.217  0.00  0.00    -0.383 OA
ATOM     32  H   UNL     1       9.254  -5.531  23.831  0.00  0.00    +0.210 HD
ENDBRANCH  30  31
BRANCH  29  33
ATOM     33  O   UNL     1       9.505  -4.586  27.048  0.00  0.00    -0.386 OA
ATOM     34  H   UNL     1       9.518  -5.523  27.300  0.00  0.00    +0.210 HD
ENDBRANCH  29  33
BRANCH  28  35
ATOM     35  O   UNL     1       7.673  -6.237  27.816  0.00  0.00    -0.386 OA
ATOM     36  H   UNL     1       8.629  -6.092  27.970  0.00  0.00    +0.210 HD
ENDBRANCH  28  35
BRANCH  27  37
ATOM     37  C   UNL     1       5.197  -6.454  26.923  0.00  0.00    +0.197 C 
BRANCH  37  38
ATOM     38  O   UNL     1       3.882  -6.630  26.380  0.00  0.00    -0.346 OA
BRANCH  38  39
ATOM     39  C   UNL     1       3.758  -7.693  25.425  0.00  0.00    +0.282 C 
ATOM     40  O   UNL     1       4.438  -7.329  24.220  0.00  0.00    -0.341 OA
ATOM     41  C   UNL     1       3.860  -6.219  23.516  0.00  0.00    +0.178 C 
ATOM     42  C   UNL     1       2.359  -6.448  23.231  0.00  0.00    +0.177 C 
ATOM     43  C   UNL     1       1.609  -6.824  24.511  0.00  0.00    +0.179 C 
ATOM     44  C   UNL     1       2.284  -8.047  25.142  0.00  0.00    +0.201 C 
BRANCH  44  45
ATOM     45  O   UNL     1       1.545  -8.482  26.287  0.00  0.00    -0.384 OA
ATOM     46  H   UNL     1       1.797  -7.897  27.028  0.00  0.00    +0.210 HD
ENDBRANCH  44  45
BRANCH  43  47
ATOM     47  O   UNL     1       1.540  -5.727  25.439  0.00  0.00    -0.386 OA
ATOM     48  H   UNL     1       2.372  -5.219  25.377  0.00  0.00    +0.210 HD
ENDBRANCH  43  47
BRANCH  42  49
ATOM     49  O   UNL     1       2.198  -7.508  22.278  0.00  0.00    -0.386 OA
ATOM     50  H   UNL     1       2.791  -7.340  21.523  0.00  0.00    +0.210 HD
ENDBRANCH  42  49
BRANCH  41  51
ATOM     51  C   UNL     1       4.643  -6.027  22.204  0.00  0.00    +0.190 C 
BRANCH  51  52
ATOM     52  O   UNL     1       5.887  -6.732  22.190  0.00  0.00    -0.392 OA
ATOM     53  H   UNL     1       6.608  -6.084  22.116  0.00  0.00    +0.210 HD
ENDBRANCH  51  52
ENDBRANCH  41  51
ENDBRANCH  38  39
ENDBRANCH  37  38
ENDBRANCH  27  37
ENDBRANCH  24  25
ENDBRANCH  11  24
BRANCH   7  54
ATOM     54  O   UNL     1       4.952   4.147  22.269  0.00  0.00    -0.461 OA
BRANCH  54  55
ATOM     55  C   UNL     1       3.627   4.332  22.798  0.00  0.00    +0.339 C 
ATOM     56  O   UNL     1       2.675   3.548  22.060  0.00  0.00    -0.331 OA
ATOM     57  C   UNL     1       2.431   4.082  20.743  0.00  0.00    +0.179 C 
ATOM     58  C   UNL     1       1.651   5.390  20.911  0.00  0.00    +0.177 C 
ATOM     59  C   UNL     1       2.547   6.403  21.647  0.00  0.00    +0.180 C 
ATOM     60  C   UNL     1       3.153   5.806  22.923  0.00  0.00    +0.214 C 
BRANCH  60  61
ATOM     61  O   UNL     1       4.152   6.661  23.481  0.00  0.00    -0.383 OA
ATOM     62  H   UNL     1       3.696   7.367  23.980  0.00  0.00    +0.210 HD
ENDBRANCH  60  61
BRANCH  59  63
ATOM     63  O   UNL     1       3.570   6.915  20.777  0.00  0.00    -0.386 OA
ATOM     64  H   UNL     1       3.918   6.189  20.222  0.00  0.00    +0.210 HD
ENDBRANCH  59  63
BRANCH  58  65
ATOM     65  O   UNL     1       1.224   5.925  19.662  0.00  0.00    -0.386 OA
ATOM     66  H   UNL     1       1.990   6.377  19.257  0.00  0.00    +0.210 HD
ENDBRANCH  58  65
BRANCH  57  67
ATOM     67  C   UNL     1       1.686   3.017  19.936  0.00  0.00    +0.190 C 
BRANCH  67  68
ATOM     68  O   UNL     1       1.864   3.221  18.537  0.00  0.00    -0.392 OA
ATOM     69  H   UNL     1       2.827   3.317  18.412  0.00  0.00    +0.210 HD
ENDBRANCH  67  68
ENDBRANCH  57  67
ENDBRANCH  54  55
ENDBRANCH   7  54
TORSDOF 24
ENDMDL
MODEL 2
REMARK VINA RESULT:      -6.8      2.139      2.971
REMARK  Name = 
REMARK  24 active torsions:
REMARK  status: ('A' for Active; 'I' for Inactive)
REMARK    1  A    between atoms: C_3  and  O_63
REMARK    2  A    between atoms: C_4  and  O_62
REMARK    3  A    between atoms: C_6  and  C_7
REMARK    4  A    between atoms: C_8  and  O_34
REMARK    5  A    between atoms: C_12  and  O_33
REMARK    6  A    between atoms: C_14  and  O_18
REMARK    7  A    between atoms: O_18  and  C_19
REMARK    8  A    between atoms: C_21  and  O_32
REMARK    9  A    between atoms: C_22  and  O_31
REMARK   10  A    between atoms: C_24  and  O_30
REMARK   11  A    between atoms: C_26  and  C_28
REMARK   12  A    between atoms: C_28  and  O_29
REMARK   13  A    between atoms: O_34  and  C_35
REMARK   14  A    between atoms: C_37  and  O_61
REMARK   15  A    between atoms: C_38  and  O_60
REMARK   16  A    between atoms: C_39  and  O_59
REMARK   17  A    between atoms: C_41  and  C_43
REMARK   18  A    between atoms: C_43  and  O_44
REMARK   19  A    between atoms: O_44  and  C_45
REMARK   20  A    between atoms: C_47  and  O_58
REMARK   21  A    between atoms: C_48  and  O_57
REMARK   22  A    between atoms: C_50  and  O_56
REMARK   23  A    between atoms: C_52  and  C_54
REMARK   24  A    between atoms: C_54  and  O_55
REMARK                            x       y       z     vdW  Elec       q    Type
REMARK                         _______ _______ _______ _____ _____    ______ ____
ROOT
ATOM      1  C   UNL     1       5.732  -0.599  26.914  0.00  0.00    +0.181 A 
ATOM      2  O   UNL     1       6.195   0.704  26.785  0.00  0.00    -0.451 OA
ATOM      3  C   UNL     1       7.299   0.938  26.017  0.00  0.00    +0.147 A 
ATOM      4  C   UNL     1       8.151  -0.065  25.598  0.00  0.00    +0.109 A 
ATOM      5  C   UNL     1       9.282   0.263  24.842  0.00  0.00    +0.135 A 
ATOM      6  C   UNL     1       9.493   1.585  24.419  0.00  0.00    +0.092 A 
ATOM      7  C   UNL     1       8.589   2.583  24.774  0.00  0.00    +0.131 A 
ATOM      8  C   UNL     1       7.764  -1.444  25.907  0.00  0.00    +0.238 A 
ATOM      9  O   UNL     1       8.567  -2.360  25.740  0.00  0.00    -0.283 OA
ATOM     10  C   UNL     1       7.524   2.256  25.628  0.00  0.00    +0.093 A 
ATOM     11  C   UNL     1       6.371  -1.669  26.402  0.00  0.00    +0.214 A 
ENDROOT
BRANCH   1  13
ATOM     12  C   UNL     1       4.549  -0.593  29.064  0.00  0.00    +0.015 A 
ATOM     13  C   UNL     1       4.436  -0.582  27.661  0.00  0.00    +0.025 A 
ATOM     14  C   UNL     1       3.178  -0.883  27.096  0.00  0.00    +0.060 A 
ATOM     15  C   UNL     1       2.115  -1.271  27.933  0.00  0.00    +0.159 A 
ATOM     16  C   UNL     1       2.298  -1.391  29.308  0.00  0.00    +0.158 A 
ATOM     17  C   UNL     1       3.499  -1.019  29.887  0.00  0.00    +0.050 A 
BRANCH  16  18
ATOM     18  O   UNL     1       1.285  -1.950  30.040  0.00  0.00    -0.503 OA
ATOM     19  H   UNL     1       1.608  -2.792  30.410  0.00  0.00    +0.292 HD
ENDBRANCH  16  18
BRANCH  15  20
ATOM     20  O   UNL     1       0.892  -1.625  27.422  0.00  0.00    -0.503 OA
ATOM     21  H   UNL     1       0.257  -1.529  28.165  0.00  0.00    +0.292 HD
ENDBRANCH  15  20
ENDBRANCH   1  13
BRANCH   5  22
ATOM     22  O   UNL     1      10.191  -0.677  24.434  0.00  0.00    -0.506 OA
ATOM     23  H   UNL     1      10.284  -1.349  25.148  0.00  0.00    +0.292 HD
ENDBRANCH   5  22
BRANCH  11  24
ATOM     24  O   UNL     1       6.052  -2.931  26.740  0.00  0.00    -0.453 OA
BRANCH  24  25
ATOM     25  C   UNL     1       5.202  -3.930  26.188  0.00  0.00    +0.340 C 
ATOM     26  O   UNL     1       4.168  -4.298  27.083  0.00  0.00    -0.331 OA
ATOM     27  C   UNL     1       4.477  -5.196  28.169  0.00  0.00    +0.179 C 
ATOM     28  C   UNL     1       5.920  -5.736  28.393  0.00  0.00    +0.177 C 
ATOM     29  C   UNL     1       6.918  -5.167  27.408  0.00  0.00    +0.180 C 
ATOM     30  C   UNL     1       6.186  -5.107  26.029  0.00  0.00    +0.214 C 
BRANCH  30  31
ATOM     31  O   UNL     1       7.092  -4.931  24.942  0.00  0.00    -0.383 OA
ATOM     32  H   UNL     1       7.617  -4.124  25.106  0.00  0.00    +0.210 HD
ENDBRANCH  30  31
BRANCH  29  33
ATOM     33  O   UNL     1       8.120  -5.935  27.433  0.00  0.00    -0.386 OA
ATOM     34  H   UNL     1       8.228  -6.302  26.541  0.00  0.00    +0.210 HD
ENDBRANCH  29  33
BRANCH  28  35
ATOM     35  O   UNL     1       6.006  -7.168  28.258  0.00  0.00    -0.386 OA
ATOM     36  H   UNL     1       5.597  -7.364  27.391  0.00  0.00    +0.210 HD
ENDBRANCH  28  35
BRANCH  27  37
ATOM     37  C   UNL     1       3.492  -6.378  28.096  0.00  0.00    +0.197 C 
BRANCH  37  38
ATOM     38  O   UNL     1       2.744  -6.444  26.874  0.00  0.00    -0.346 OA
BRANCH  38  39
ATOM     39  C   UNL     1       3.137  -7.494  25.979  0.00  0.00    +0.282 C 
ATOM     40  O   UNL     1       3.906  -6.940  24.906  0.00  0.00    -0.341 OA
ATOM     41  C   UNL     1       3.176  -6.058  24.039  0.00  0.00    +0.178 C 
ATOM     42  C   UNL     1       1.901  -6.734  23.486  0.00  0.00    +0.177 C 
ATOM     43  C   UNL     1       1.056  -7.321  24.619  0.00  0.00    +0.179 C 
ATOM     44  C   UNL     1       1.925  -8.280  25.441  0.00  0.00    +0.201 C 
BRANCH  44  45
ATOM     45  O   UNL     1       1.135  -8.920  26.448  0.00  0.00    -0.384 OA
ATOM     46  H   UNL     1       1.758  -9.314  27.090  0.00  0.00    +0.210 HD
ENDBRANCH  44  45
BRANCH  43  47
ATOM     47  O   UNL     1       0.479  -6.297  25.449  0.00  0.00    -0.386 OA
ATOM     48  H   UNL     1       0.773  -5.428  25.116  0.00  0.00    +0.210 HD
ENDBRANCH  43  47
BRANCH  42  49
ATOM     49  O   UNL     1       2.259  -7.793  22.587  0.00  0.00    -0.386 OA
ATOM     50  H   UNL     1       2.614  -8.536  23.107  0.00  0.00    +0.210 HD
ENDBRANCH  42  49
BRANCH  41  51
ATOM     51  C   UNL     1       4.113  -5.636  22.892  0.00  0.00    +0.190 C 
BRANCH  51  52
ATOM     52  O   UNL     1       5.231  -6.514  22.734  0.00  0.00    -0.392 OA
ATOM     53  H   UNL     1       4.964  -7.253  22.162  0.00  0.00    +0.210 HD
ENDBRANCH  51  52
ENDBRANCH  41  51
ENDBRANCH  38  39
ENDBRANCH  37  38
ENDBRANCH  27  37
ENDBRANCH  24  25
ENDBRANCH  11  24
BRANCH   7  54
ATOM     54  O   UNL     1       8.790   3.832  24.204  0.00  0.00    -0.461 OA
BRANCH  54  55
ATOM     55  C   UNL     1       8.011   4.877  24.813  0.00  0.00    +0.339 C 
ATOM     56  O   UNL     1       6.607   4.604  24.680  0.00  0.00    -0.331 OA
ATOM     57  C   UNL     1       6.141   4.782  23.326  0.00  0.00    +0.179 C 
ATOM     58  C   UNL     1       6.167   6.283  23.023  0.00  0.00    +0.177 C 
ATOM     59  C   UNL     1       7.628   6.766  23.062  0.00  0.00    +0.180 C 
ATOM     60  C   UNL     1       8.341   6.322  24.345  0.00  0.00    +0.214 C 
BRANCH  60  61
ATOM     61  O   UNL     1       9.746   6.573  24.281  0.00  0.00    -0.383 OA
ATOM     62  H   UNL     1      10.045   6.362  23.375  0.00  0.00    +0.210 HD
ENDBRANCH  60  61
BRANCH  59  63
ATOM     63  O   UNL     1       8.345   6.334  21.893  0.00  0.00    -0.386 OA
ATOM     64  H   UNL     1       9.303   6.480  22.027  0.00  0.00    +0.210 HD
ENDBRANCH  59  63
BRANCH  58  65
ATOM     65  O   UNL     1       5.580   6.586  21.760  0.00  0.00    -0.386 OA
ATOM     66  H   UNL     1       6.254   6.414  21.074  0.00  0.00    +0.210 HD
ENDBRANCH  58  65
BRANCH  57  67
ATOM     67  C   UNL     1       4.750   4.153  23.223  0.00  0.00    +0.190 C 
BRANCH  67  68
ATOM     68  O   UNL     1       4.431   3.845  21.869  0.00  0.00    -0.392 OA
ATOM     69  H   UNL     1       4.015   4.652  21.513  0.00  0.00    +0.210 HD
ENDBRANCH  67  68
ENDBRANCH  57  67
ENDBRANCH  54  55
ENDBRANCH   7  54
TORSDOF 24
ENDMDL
MODEL 3
REMARK VINA RESULT:      -6.8      2.809      4.250
REMARK  Name = 
REMARK  24 active torsions:
REMARK  status: ('A' for Active; 'I' for Inactive)
REMARK    1  A    between atoms: C_3  and  O_63
REMARK    2  A    between atoms: C_4  and  O_62
REMARK    3  A    between atoms: C_6  and  C_7
REMARK    4  A    between atoms: C_8  and  O_34
REMARK    5  A    between atoms: C_12  and  O_33
REMARK    6  A    between atoms: C_14  and  O_18
REMARK    7  A    between atoms: O_18  and  C_19
REMARK    8  A    between atoms: C_21  and  O_32
REMARK    9  A    between atoms: C_22  and  O_31
REMARK   10  A    between atoms: C_24  and  O_30
REMARK   11  A    between atoms: C_26  and  C_28
REMARK   12  A    between atoms: C_28  and  O_29
REMARK   13  A    between atoms: O_34  and  C_35
REMARK   14  A    between atoms: C_37  and  O_61
REMARK   15  A    between atoms: C_38  and  O_60
REMARK   16  A    between atoms: C_39  and  O_59
REMARK   17  A    between atoms: C_41  and  C_43
REMARK   18  A    between atoms: C_43  and  O_44
REMARK   19  A    between atoms: O_44  and  C_45
REMARK   20  A    between atoms: C_47  and  O_58
REMARK   21  A    between atoms: C_48  and  O_57
REMARK   22  A    between atoms: C_50  and  O_56
REMARK   23  A    between atoms: C_52  and  C_54
REMARK   24  A    between atoms: C_54  and  O_55
REMARK                            x       y       z     vdW  Elec       q    Type
REMARK                         _______ _______ _______ _____ _____    ______ ____
ROOT
ATOM      1  C   UNL     1       6.490  -1.734  25.055  0.00  0.00    +0.181 A 
ATOM      2  O   UNL     1       7.252  -0.679  25.542  0.00  0.00    -0.451 OA
ATOM      3  C   UNL     1       8.097  -0.028  24.690  0.00  0.00    +0.147 A 
ATOM      4  C   UNL     1       8.456  -0.532  23.455  0.00  0.00    +0.109 A 
ATOM      5  C   UNL     1       9.356   0.181  22.656  0.00  0.00    +0.135 A 
ATOM      6  C   UNL     1       9.808   1.449  23.055  0.00  0.00    +0.092 A 
ATOM      7  C   UNL     1       9.380   1.993  24.264  0.00  0.00    +0.131 A 
ATOM      8  C   UNL     1       7.794  -1.764  23.017  0.00  0.00    +0.238 A 
ATOM      9  O   UNL     1       8.209  -2.366  22.028  0.00  0.00    -0.283 OA
ATOM     10  C   UNL     1       8.570   1.214  25.105  0.00  0.00    +0.093 A 
ATOM     11  C   UNL     1       6.608  -2.221  23.804  0.00  0.00    +0.214 A 
ENDROOT
BRANCH   1  13
ATOM     12  C   UNL     1       4.694  -1.170  26.630  0.00  0.00    +0.015 A 
ATOM     13  C   UNL     1       5.536  -2.176  26.119  0.00  0.00    +0.025 A 
ATOM     14  C   UNL     1       5.644  -3.381  26.847  0.00  0.00    +0.060 A 
ATOM     15  C   UNL     1       4.995  -3.503  28.089  0.00  0.00    +0.159 A 
ATOM     16  C   UNL     1       4.271  -2.440  28.623  0.00  0.00    +0.158 A 
ATOM     17  C   UNL     1       4.084  -1.284  27.885  0.00  0.00    +0.050 A 
BRANCH  16  18
ATOM     18  O   UNL     1       3.823  -2.557  29.912  0.00  0.00    -0.503 OA
ATOM     19  H   UNL     1       4.553  -2.906  30.455  0.00  0.00    +0.292 HD
ENDBRANCH  16  18
BRANCH  15  20
ATOM     20  O   UNL     1       5.119  -4.635  28.855  0.00  0.00    -0.503 OA
ATOM     21  H   UNL     1       6.078  -4.717  29.053  0.00  0.00    +0.292 HD
ENDBRANCH  15  20
ENDBRANCH   1  13
BRANCH   5  22
ATOM     22  O   UNL     1       9.790  -0.284  21.443  0.00  0.00    -0.506 OA
ATOM     23  H   UNL     1       9.006  -0.412  20.861  0.00  0.00    +0.292 HD
ENDBRANCH   5  22
BRANCH  11  24
ATOM     24  O   UNL     1       6.051  -3.384  23.426  0.00  0.00    -0.453 OA
BRANCH  24  25
ATOM     25  C   UNL     1       4.788  -3.762  22.888  0.00  0.00    +0.340 C 
ATOM     26  O   UNL     1       3.848  -4.058  23.903  0.00  0.00    -0.331 OA
ATOM     27  C   UNL     1       3.920  -5.339  24.564  0.00  0.00    +0.179 C 
ATOM     28  C   UNL     1       5.024  -6.377  24.208  0.00  0.00    +0.177 C 
ATOM     29  C   UNL     1       6.002  -5.861  23.176  0.00  0.00    +0.180 C 
ATOM     30  C   UNL     1       5.158  -5.057  22.136  0.00  0.00    +0.214 C 
BRANCH  30  31
ATOM     31  O   UNL     1       5.874  -4.812  20.928  0.00  0.00    -0.383 OA
ATOM     32  H   UNL     1       5.250  -4.883  20.179  0.00  0.00    +0.210 HD
ENDBRANCH  30  31
BRANCH  29  33
ATOM     33  O   UNL     1       6.766  -6.942  22.643  0.00  0.00    -0.386 OA
ATOM     34  H   UNL     1       6.356  -7.756  22.977  0.00  0.00    +0.210 HD
ENDBRANCH  29  33
BRANCH  28  35
ATOM     35  O   UNL     1       4.486  -7.599  23.666  0.00  0.00    -0.386 OA
ATOM     36  H   UNL     1       4.250  -7.381  22.741  0.00  0.00    +0.210 HD
ENDBRANCH  28  35
BRANCH  27  37
ATOM     37  C   UNL     1       2.535  -6.003  24.453  0.00  0.00    +0.197 C 
BRANCH  37  38
ATOM     38  O   UNL     1       2.267  -6.975  25.472  0.00  0.00    -0.346 OA
BRANCH  38  39
ATOM     39  C   UNL     1       1.008  -6.819  26.143  0.00  0.00    +0.282 C 
ATOM     40  O   UNL     1       0.683  -5.428  26.223  0.00  0.00    -0.341 OA
ATOM     41  C   UNL     1       1.565  -4.651  27.048  0.00  0.00    +0.178 C 
ATOM     42  C   UNL     1       1.688  -5.251  28.467  0.00  0.00    +0.177 C 
ATOM     43  C   UNL     1       2.050  -6.736  28.405  0.00  0.00    +0.179 C 
ATOM     44  C   UNL     1       1.013  -7.466  27.543  0.00  0.00    +0.201 C 
BRANCH  44  45
ATOM     45  O   UNL     1       1.271  -8.873  27.548  0.00  0.00    -0.384 OA
ATOM     46  H   UNL     1       2.183  -8.995  27.877  0.00  0.00    +0.210 HD
ENDBRANCH  44  45
BRANCH  43  47
ATOM     47  O   UNL     1       3.384  -6.947  27.909  0.00  0.00    -0.386 OA
ATOM     48  H   UNL     1       3.512  -6.386  27.120  0.00  0.00    +0.210 HD
ENDBRANCH  43  47
BRANCH  42  49
ATOM     49  O   UNL     1       0.443  -5.113  29.166  0.00  0.00    -0.386 OA
ATOM     50  H   UNL     1       0.220  -5.968  29.576  0.00  0.00    +0.210 HD
ENDBRANCH  42  49
BRANCH  41  51
ATOM     51  C   UNL     1       1.019  -3.213  27.107  0.00  0.00    +0.190 C 
BRANCH  51  52
ATOM     52  O   UNL     1       1.400  -2.426  25.976  0.00  0.00    -0.392 OA
ATOM     53  H   UNL     1       1.279  -2.961  25.174  0.00  0.00    +0.210 HD
ENDBRANCH  51  52
ENDBRANCH  41  51
ENDBRANCH  38  39
ENDBRANCH  37  38
ENDBRANCH  27  37
ENDBRANCH  24  25
ENDBRANCH  11  24
BRANCH   7  54
ATOM     54  O   UNL     1       9.758   3.302  24.523  0.00  0.00    -0.461 OA
BRANCH  54  55
ATOM     55  C   UNL     1       8.663   4.157  24.896  0.00  0.00    +0.339 C 
ATOM     56  O   UNL     1       7.490   3.838  24.129  0.00  0.00    -0.331 OA
ATOM     57  C   UNL     1       7.602   4.261  22.755  0.00  0.00    +0.179 C 
ATOM     58  C   UNL     1       7.545   5.792  22.737  0.00  0.00    +0.177 C 
ATOM     59  C   UNL     1       8.779   6.337  23.477  0.00  0.00    +0.180 C 
ATOM     60  C   UNL     1       8.954   5.682  24.853  0.00  0.00    +0.214 C 
BRANCH  60  61
ATOM     61  O   UNL     1      10.212   6.020  25.441  0.00  0.00    -0.383 OA
ATOM     62  H   UNL     1      10.079   6.096  26.406  0.00  0.00    +0.210 HD
ENDBRANCH  60  61
BRANCH  59  63
ATOM     63  O   UNL     1       9.965   6.193  22.679  0.00  0.00    -0.386 OA
ATOM     64  H   UNL     1      10.141   7.029  22.203  0.00  0.00    +0.210 HD
ENDBRANCH  59  63
BRANCH  58  65
ATOM     65  O   UNL     1       7.495   6.311  21.411  0.00  0.00    -0.386 OA
ATOM     66  H   UNL     1       7.682   5.574  20.799  0.00  0.00    +0.210 HD
ENDBRANCH  58  65
BRANCH  57  67
ATOM     67  C   UNL     1       6.478   3.589  21.965  0.00  0.00    +0.190 C 
BRANCH  67  68
ATOM     68  O   UNL     1       6.665   2.177  21.916  0.00  0.00    -0.392 OA
ATOM     69  H   UNL     1       7.227   1.966  22.684  0.00  0.00    +0.210 HD
ENDBRANCH  67  68
ENDBRANCH  57  67
ENDBRANCH  54  55
ENDBRANCH   7  54
TORSDOF 24
ENDMDL
MODEL 4
REMARK VINA RESULT:      -6.7      3.608      5.574
REMARK  Name = 
REMARK  24 active torsions:
REMARK  status: ('A' for Active; 'I' for Inactive)
REMARK    1  A    between atoms: C_3  and  O_63
REMARK    2  A    between atoms: C_4  and  O_62
REMARK    3  A    between atoms: C_6  and  C_7
REMARK    4  A    between atoms: C_8  and  O_34
REMARK    5  A    between atoms: C_12  and  O_33
REMARK    6  A    between atoms: C_14  and  O_18
REMARK    7  A    between atoms: O_18  and  C_19
REMARK    8  A    between atoms: C_21  and  O_32
REMARK    9  A    between atoms: C_22  and  O_31
REMARK   10  A    between atoms: C_24  and  O_30
REMARK   11  A    between atoms: C_26  and  C_28
REMARK   12  A    between atoms: C_28  and  O_29
REMARK   13  A    between atoms: O_34  and  C_35
REMARK   14  A    between atoms: C_37  and  O_61
REMARK   15  A    between atoms: C_38  and  O_60
REMARK   16  A    between atoms: C_39  and  O_59
REMARK   17  A    between atoms: C_41  and  C_43
REMARK   18  A    between atoms: C_43  and  O_44
REMARK   19  A    between atoms: O_44  and  C_45
REMARK   20  A    between atoms: C_47  and  O_58
REMARK   21  A    between atoms: C_48  and  O_57
REMARK   22  A    between atoms: C_50  and  O_56
REMARK   23  A    between atoms: C_52  and  C_54
REMARK   24  A    between atoms: C_54  and  O_55
REMARK                            x       y       z     vdW  Elec       q    Type
REMARK                         _______ _______ _______ _____ _____    ______ ____
ROOT
ATOM      1  C   UNL     1       7.922  -2.230  24.708  0.00  0.00    +0.181 A 
ATOM      2  O   UNL     1       8.856  -1.261  25.053  0.00  0.00    -0.451 OA
ATOM      3  C   UNL     1       9.127  -0.261  24.164  0.00  0.00    +0.147 A 
ATOM      4  C   UNL     1       8.750  -0.313  22.836  0.00  0.00    +0.109 A 
ATOM      5  C   UNL     1       9.098   0.739  21.981  0.00  0.00    +0.135 A 
ATOM      6  C   UNL     1       9.728   1.887  22.488  0.00  0.00    +0.092 A 
ATOM      7  C   UNL     1      10.035   1.972  23.844  0.00  0.00    +0.131 A 
ATOM      8  C   UNL     1       7.922  -1.447  22.419  0.00  0.00    +0.238 A 
ATOM      9  O   UNL     1       7.723  -1.655  21.223  0.00  0.00    -0.283 OA
ATOM     10  C   UNL     1       9.782   0.861  24.664  0.00  0.00    +0.093 A 
ATOM     11  C   UNL     1       7.334  -2.299  23.497  0.00  0.00    +0.214 A 
ENDROOT
BRANCH   1  13
ATOM     12  C   UNL     1       8.481  -4.270  25.953  0.00  0.00    +0.015 A 
ATOM     13  C   UNL     1       7.679  -3.114  25.891  0.00  0.00    +0.025 A 
ATOM     14  C   UNL     1       6.539  -3.054  26.721  0.00  0.00    +0.060 A 
ATOM     15  C   UNL     1       6.188  -4.171  27.501  0.00  0.00    +0.159 A 
ATOM     16  C   UNL     1       6.936  -5.344  27.444  0.00  0.00    +0.158 A 
ATOM     17  C   UNL     1       8.104  -5.391  26.702  0.00  0.00    +0.050 A 
BRANCH  16  18
ATOM     18  O   UNL     1       6.438  -6.450  28.081  0.00  0.00    -0.503 OA
ATOM     19  H   UNL     1       6.483  -7.201  27.461  0.00  0.00    +0.292 HD
ENDBRANCH  16  18
BRANCH  15  20
ATOM     20  O   UNL     1       5.058  -4.175  28.280  0.00  0.00    -0.503 OA
ATOM     21  H   UNL     1       4.820  -3.230  28.406  0.00  0.00    +0.292 HD
ENDBRANCH  15  20
ENDBRANCH   1  13
BRANCH   5  22
ATOM     22  O   UNL     1       8.797   0.730  20.645  0.00  0.00    -0.506 OA
ATOM     23  H   UNL     1       7.837   0.541  20.544  0.00  0.00    +0.292 HD
ENDBRANCH   5  22
BRANCH  11  24
ATOM     24  O   UNL     1       6.629  -3.371  23.097  0.00  0.00    -0.453 OA
BRANCH  24  25
ATOM     25  C   UNL     1       5.275  -3.596  22.721  0.00  0.00    +0.340 C 
ATOM     26  O   UNL     1       4.435  -3.766  23.848  0.00  0.00    -0.331 OA
ATOM     27  C   UNL     1       4.432  -5.040  24.525  0.00  0.00    +0.179 C 
ATOM     28  C   UNL     1       5.352  -6.209  24.064  0.00  0.00    +0.177 C 
ATOM     29  C   UNL     1       6.253  -5.825  22.911  0.00  0.00    +0.180 C 
ATOM     30  C   UNL     1       5.392  -4.933  21.961  0.00  0.00    +0.214 C 
BRANCH  30  31
ATOM     31  O   UNL     1       5.982  -4.788  20.671  0.00  0.00    -0.383 OA
ATOM     32  H   UNL     1       5.917  -3.850  20.405  0.00  0.00    +0.210 HD
ENDBRANCH  30  31
BRANCH  29  33
ATOM     33  O   UNL     1       6.811  -6.996  22.316  0.00  0.00    -0.386 OA
ATOM     34  H   UNL     1       7.608  -6.709  21.842  0.00  0.00    +0.210 HD
ENDBRANCH  29  33
BRANCH  28  35
ATOM     35  O   UNL     1       4.609  -7.360  23.617  0.00  0.00    -0.386 OA
ATOM     36  H   UNL     1       4.713  -8.019  24.334  0.00  0.00    +0.210 HD
ENDBRANCH  28  35
BRANCH  27  37
ATOM     37  C   UNL     1       2.974  -5.531  24.595  0.00  0.00    +0.197 C 
BRANCH  37  38
ATOM     38  O   UNL     1       2.729  -6.502  25.620  0.00  0.00    -0.346 OA
BRANCH  38  39
ATOM     39  C   UNL     1       1.421  -6.450  26.206  0.00  0.00    +0.282 C 
ATOM     40  O   UNL     1       1.141  -5.109  26.621  0.00  0.00    -0.341 OA
ATOM     41  C   UNL     1       1.970  -4.626  27.688  0.00  0.00    +0.178 C 
ATOM     42  C   UNL     1       1.940  -5.577  28.906  0.00  0.00    +0.177 C 
ATOM     43  C   UNL     1       2.252  -7.015  28.486  0.00  0.00    +0.179 C 
ATOM     44  C   UNL     1       1.273  -7.435  27.383  0.00  0.00    +0.201 C 
BRANCH  44  45
ATOM     45  O   UNL     1       1.477  -8.809  27.040  0.00  0.00    -0.384 OA
ATOM     46  H   UNL     1       1.948  -8.821  26.183  0.00  0.00    +0.210 HD
ENDBRANCH  44  45
BRANCH  43  47
ATOM     47  O   UNL     1       3.618  -7.169  28.060  0.00  0.00    -0.386 OA
ATOM     48  H   UNL     1       3.937  -8.042  28.360  0.00  0.00    +0.210 HD
ENDBRANCH  43  47
BRANCH  42  49
ATOM     49  O   UNL     1       0.642  -5.550  29.515  0.00  0.00    -0.386 OA
ATOM     50  H   UNL     1       0.449  -6.434  29.876  0.00  0.00    +0.210 HD
ENDBRANCH  42  49
BRANCH  41  51
ATOM     51  C   UNL     1       1.474  -3.221  28.079  0.00  0.00    +0.190 C 
BRANCH  51  52
ATOM     52  O   UNL     1       2.398  -2.516  28.912  0.00  0.00    -0.392 OA
ATOM     53  H   UNL     1       1.955  -2.305  29.751  0.00  0.00    +0.210 HD
ENDBRANCH  51  52
ENDBRANCH  41  51
ENDBRANCH  38  39
ENDBRANCH  37  38
ENDBRANCH  27  37
ENDBRANCH  24  25
ENDBRANCH  11  24
BRANCH   7  54
ATOM     54  O   UNL     1      10.528   3.189  24.293  0.00  0.00    -0.461 OA
BRANCH  54  55
ATOM     55  C   UNL     1       9.860   4.328  23.724  0.00  0.00    +0.339 C 
ATOM     56  O   UNL     1      10.647   5.517  23.907  0.00  0.00    -0.331 OA
ATOM     57  C   UNL     1      10.654   5.964  25.278  0.00  0.00    +0.179 C 
ATOM     58  C   UNL     1       9.255   6.499  25.597  0.00  0.00    +0.177 C 
ATOM     59  C   UNL     1       8.253   5.334  25.510  0.00  0.00    +0.180 C 
ATOM     60  C   UNL     1       8.397   4.555  24.197  0.00  0.00    +0.214 C 
BRANCH  60  61
ATOM     61  O   UNL     1       7.630   3.350  24.211  0.00  0.00    -0.383 OA
ATOM     62  H   UNL     1       7.224   3.267  25.096  0.00  0.00    +0.210 HD
ENDBRANCH  60  61
BRANCH  59  63
ATOM     63  O   UNL     1       8.375   4.462  26.646  0.00  0.00    -0.386 OA
ATOM     64  H   UNL     1       9.172   3.906  26.545  0.00  0.00    +0.210 HD
ENDBRANCH  59  63
BRANCH  58  65
ATOM     65  O   UNL     1       9.194   7.108  26.884  0.00  0.00    -0.386 OA
ATOM     66  H   UNL     1       8.254   7.293  27.078  0.00  0.00    +0.210 HD
ENDBRANCH  58  65
BRANCH  57  67
ATOM     67  C   UNL     1      11.765   7.006  25.425  0.00  0.00    +0.190 C 
BRANCH  67  68
ATOM     68  O   UNL     1      12.900   6.653  24.639  0.00  0.00    -0.392 OA
ATOM     69  H   UNL     1      13.421   7.473  24.558  0.00  0.00    +0.210 HD
ENDBRANCH  67  68
ENDBRANCH  57  67
ENDBRANCH  54  55
ENDBRANCH   7  54
TORSDOF 24
ENDMDL
MODEL 5
REMARK VINA RESULT:      -6.4      2.056      2.875
REMARK  Name = 
REMARK  24 active torsions:
REMARK  status: ('A' for Active; 'I' for Inactive)
REMARK    1  A    between atoms: C_3  and  O_63
REMARK    2  A    between atoms: C_4  and  O_62
REMARK    3  A    between atoms: C_6  and  C_7
REMARK    4  A    between atoms: C_8  and  O_34
REMARK    5  A    between atoms: C_12  and  O_33
REMARK    6  A    between atoms: C_14  and  O_18
REMARK    7  A    between atoms: O_18  and  C_19
REMARK    8  A    between atoms: C_21  and  O_32
REMARK    9  A    between atoms: C_22  and  O_31
REMARK   10  A    between atoms: C_24  and  O_30
REMARK   11  A    between atoms: C_26  and  C_28
REMARK   12  A    between atoms: C_28  and  O_29
REMARK   13  A    between atoms: O_34  and  C_35
REMARK   14  A    between atoms: C_37  and  O_61
REMARK   15  A    between atoms: C_38  and  O_60
REMARK   16  A    between atoms: C_39  and  O_59
REMARK   17  A    between atoms: C_41  and  C_43
REMARK   18  A    between atoms: C_43  and  O_44
REMARK   19  A    between atoms: O_44  and  C_45
REMARK   20  A    between atoms: C_47  and  O_58
REMARK   21  A    between atoms: C_48  and  O_57
REMARK   22  A    between atoms: C_50  and  O_56
REMARK   23  A    between atoms: C_52  and  C_54
REMARK   24  A    between atoms: C_54  and  O_55
REMARK                            x       y       z     vdW  Elec       q    Type
REMARK                         _______ _______ _______ _____ _____    ______ ____
ROOT
ATOM      1  C   UNL     1       5.995  -0.636  25.466  0.00  0.00    +0.181 A 
ATOM      2  O   UNL     1       5.996   0.725  25.186  0.00  0.00    -0.451 OA
ATOM      3  C   UNL     1       6.866   1.203  24.249  0.00  0.00    +0.147 A 
ATOM      4  C   UNL     1       7.939   0.472  23.776  0.00  0.00    +0.109 A 
ATOM      5  C   UNL     1       8.806   1.049  22.840  0.00  0.00    +0.135 A 
ATOM      6  C   UNL     1       8.529   2.317  22.305  0.00  0.00    +0.092 A 
ATOM      7  C   UNL     1       7.402   3.020  22.724  0.00  0.00    +0.131 A 
ATOM      8  C   UNL     1       8.054  -0.917  24.228  0.00  0.00    +0.238 A 
ATOM      9  O   UNL     1       9.083  -1.552  24.004  0.00  0.00    -0.283 OA
ATOM     10  C   UNL     1       6.609   2.475  23.746  0.00  0.00    +0.093 A 
ATOM     11  C   UNL     1       6.877  -1.506  24.936  0.00  0.00    +0.214 A 
ENDROOT
BRANCH   1  13
ATOM     12  C   UNL     1       5.054  -0.544  27.731  0.00  0.00    +0.015 A 
ATOM     13  C   UNL     1       4.860  -0.939  26.394  0.00  0.00    +0.025 A 
ATOM     14  C   UNL     1       3.813  -1.844  26.116  0.00  0.00    +0.060 A 
ATOM     15  C   UNL     1       3.067  -2.390  27.177  0.00  0.00    +0.159 A 
ATOM     16  C   UNL     1       3.367  -2.072  28.499  0.00  0.00    +0.158 A 
ATOM     17  C   UNL     1       4.333  -1.122  28.784  0.00  0.00    +0.050 A 
BRANCH  16  18
ATOM     18  O   UNL     1       2.731  -2.776  29.485  0.00  0.00    -0.503 OA
ATOM     19  H   UNL     1       2.481  -2.149  30.190  0.00  0.00    +0.292 HD
ENDBRANCH  16  18
BRANCH  15  20
ATOM     20  O   UNL     1       2.077  -3.315  26.956  0.00  0.00    -0.503 OA
ATOM     21  H   UNL     1       1.231  -2.827  27.064  0.00  0.00    +0.292 HD
ENDBRANCH  15  20
ENDBRANCH   1  13
BRANCH   5  22
ATOM     22  O   UNL     1       9.913   0.397  22.366  0.00  0.00    -0.506 OA
ATOM     23  H   UNL     1      10.489   1.054  21.912  0.00  0.00    +0.292 HD
ENDBRANCH   5  22
BRANCH  11  24
ATOM     24  O   UNL     1       7.022  -2.759  25.399  0.00  0.00    -0.453 OA
BRANCH  24  25
ATOM     25  C   UNL     1       6.609  -4.046  24.952  0.00  0.00    +0.340 C 
ATOM     26  O   UNL     1       5.515  -4.540  25.701  0.00  0.00    -0.331 OA
ATOM     27  C   UNL     1       5.764  -5.102  27.006  0.00  0.00    +0.179 C 
ATOM     28  C   UNL     1       7.197  -5.144  27.614  0.00  0.00    +0.177 C 
ATOM     29  C   UNL     1       8.229  -4.486  26.725  0.00  0.00    +0.180 C 
ATOM     30  C   UNL     1       7.865  -4.888  25.260  0.00  0.00    +0.214 C 
BRANCH  30  31
ATOM     31  O   UNL     1       8.934  -4.645  24.349  0.00  0.00    -0.383 OA
ATOM     32  H   UNL     1       8.689  -3.889  23.781  0.00  0.00    +0.210 HD
ENDBRANCH  30  31
BRANCH  29  33
ATOM     33  O   UNL     1       9.542  -4.847  27.153  0.00  0.00    -0.386 OA
ATOM     34  H   UNL     1      10.026  -4.015  27.278  0.00  0.00    +0.210 HD
ENDBRANCH  29  33
BRANCH  28  35
ATOM     35  O   UNL     1       7.668  -6.486  27.840  0.00  0.00    -0.386 OA
ATOM     36  H   UNL     1       6.895  -6.965  28.204  0.00  0.00    +0.210 HD
ENDBRANCH  28  35
BRANCH  27  37
ATOM     37  C   UNL     1       5.153  -6.516  27.033  0.00  0.00    +0.197 C 
BRANCH  37  38
ATOM     38  O   UNL     1       3.852  -6.605  26.438  0.00  0.00    -0.346 OA
BRANCH  38  39
ATOM     39  C   UNL     1       3.700  -7.648  25.465  0.00  0.00    +0.282 C 
ATOM     40  O   UNL     1       4.426  -7.301  24.282  0.00  0.00    -0.341 OA
ATOM     41  C   UNL     1       3.920  -6.155  23.581  0.00  0.00    +0.178 C 
ATOM     42  C   UNL     1       2.416  -6.307  23.256  0.00  0.00    +0.177 C 
ATOM     43  C   UNL     1       1.618  -6.664  24.512  0.00  0.00    +0.179 C 
ATOM     44  C   UNL     1       2.218  -7.926  25.141  0.00  0.00    +0.201 C 
BRANCH  44  45
ATOM     45  O   UNL     1       1.431  -8.340  26.262  0.00  0.00    -0.384 OA
ATOM     46  H   UNL     1       0.851  -9.064  25.951  0.00  0.00    +0.210 HD
ENDBRANCH  44  45
BRANCH  43  47
ATOM     47  O   UNL     1       1.580  -5.577  25.454  0.00  0.00    -0.386 OA
ATOM     48  H   UNL     1       0.840  -4.987  25.214  0.00  0.00    +0.210 HD
ENDBRANCH  43  47
BRANCH  42  49
ATOM     49  O   UNL     1       2.229  -7.346  22.285  0.00  0.00    -0.386 OA
ATOM     50  H   UNL     1       1.354  -7.231  21.872  0.00  0.00    +0.210 HD
ENDBRANCH  42  49
BRANCH  41  51
ATOM     51  C   UNL     1       4.743  -5.983  22.291  0.00  0.00    +0.190 C 
BRANCH  51  52
ATOM     52  O   UNL     1       5.992  -6.680  22.330  0.00  0.00    -0.392 OA
ATOM     53  H   UNL     1       6.082  -7.195  21.512  0.00  0.00    +0.210 HD
ENDBRANCH  51  52
ENDBRANCH  41  51
ENDBRANCH  38  39
ENDBRANCH  37  38
ENDBRANCH  27  37
ENDBRANCH  24  25
ENDBRANCH  11  24
BRANCH   7  54
ATOM     54  O   UNL     1       7.122   4.200  22.051  0.00  0.00    -0.461 OA
BRANCH  54  55
ATOM     55  C   UNL     1       7.720   5.363  22.649  0.00  0.00    +0.339 C 
ATOM     56  O   UNL     1       7.813   5.206  24.075  0.00  0.00    -0.331 OA
ATOM     57  C   UNL     1       6.527   5.298  24.721  0.00  0.00    +0.179 C 
ATOM     58  C   UNL     1       6.067   6.756  24.627  0.00  0.00    +0.177 C 
ATOM     59  C   UNL     1       5.850   7.107  23.144  0.00  0.00    +0.180 C 
ATOM     60  C   UNL     1       7.060   6.722  22.285  0.00  0.00    +0.214 C 
BRANCH  60  61
ATOM     61  O   UNL     1       6.775   6.839  20.890  0.00  0.00    -0.383 OA
ATOM     62  H   UNL     1       6.155   7.586  20.774  0.00  0.00    +0.210 HD
ENDBRANCH  60  61
BRANCH  59  63
ATOM     63  O   UNL     1       4.645   6.505  22.642  0.00  0.00    -0.386 OA
ATOM     64  H   UNL     1       3.975   7.200  22.488  0.00  0.00    +0.210 HD
ENDBRANCH  59  63
BRANCH  58  65
ATOM     65  O   UNL     1       4.874   6.991  25.369  0.00  0.00    -0.386 OA
ATOM     66  H   UNL     1       4.475   7.817  25.032  0.00  0.00    +0.210 HD
ENDBRANCH  58  65
BRANCH  57  67
ATOM     67  C   UNL     1       6.687   4.790  26.155  0.00  0.00    +0.190 C 
BRANCH  67  68
ATOM     68  O   UNL     1       7.997   4.272  26.368  0.00  0.00    -0.392 OA
ATOM     69  H   UNL     1       8.084   4.181  27.335  0.00  0.00    +0.210 HD
ENDBRANCH  67  68
ENDBRANCH  57  67
ENDBRANCH  54  55
ENDBRANCH   7  54
TORSDOF 24
ENDMDL
MODEL 6
REMARK VINA RESULT:      -6.4      2.224     10.044
REMARK  Name = 
REMARK  24 active torsions:
REMARK  status: ('A' for Active; 'I' for Inactive)
REMARK    1  A    between atoms: C_3  and  O_63
REMARK    2  A    between atoms: C_4  and  O_62
REMARK    3  A    between atoms: C_6  and  C_7
REMARK    4  A    between atoms: C_8  and  O_34
REMARK    5  A    between atoms: C_12  and  O_33
REMARK    6  A    between atoms: C_14  and  O_18
REMARK    7  A    between atoms: O_18  and  C_19
REMARK    8  A    between atoms: C_21  and  O_32
REMARK    9  A    between atoms: C_22  and  O_31
REMARK   10  A    between atoms: C_24  and  O_30
REMARK   11  A    between atoms: C_26  and  C_28
REMARK   12  A    between atoms: C_28  and  O_29
REMARK   13  A    between atoms: O_34  and  C_35
REMARK   14  A    between atoms: C_37  and  O_61
REMARK   15  A    between atoms: C_38  and  O_60
REMARK   16  A    between atoms: C_39  and  O_59
REMARK   17  A    between atoms: C_41  and  C_43
REMARK   18  A    between atoms: C_43  and  O_44
REMARK   19  A    between atoms: O_44  and  C_45
REMARK   20  A    between atoms: C_47  and  O_58
REMARK   21  A    between atoms: C_48  and  O_57
REMARK   22  A    between atoms: C_50  and  O_56
REMARK   23  A    between atoms: C_52  and  C_54
REMARK   24  A    between atoms: C_54  and  O_55
REMARK                            x       y       z     vdW  Elec       q    Type
REMARK                         _______ _______ _______ _____ _____    ______ ____
ROOT
ATOM      1  C   UNL     1       7.307   0.471  25.408  0.00  0.00    +0.181 A 
ATOM      2  O   UNL     1       7.175  -0.891  25.649  0.00  0.00    -0.451 OA
ATOM      3  C   UNL     1       6.208  -1.317  26.514  0.00  0.00    +0.147 A 
ATOM      4  C   UNL     1       5.549  -0.469  27.382  0.00  0.00    +0.109 A 
ATOM      5  C   UNL     1       4.595  -0.991  28.263  0.00  0.00    +0.135 A 
ATOM      6  C   UNL     1       4.231  -2.345  28.192  0.00  0.00    +0.092 A 
ATOM      7  C   UNL     1       4.839  -3.183  27.261  0.00  0.00    +0.131 A 
ATOM      8  C   UNL     1       5.835   0.964  27.264  0.00  0.00    +0.238 A 
ATOM      9  O   UNL     1       5.436   1.743  28.129  0.00  0.00    -0.283 OA
ATOM     10  C   UNL     1       5.875  -2.667  26.465  0.00  0.00    +0.093 A 
ATOM     11  C   UNL     1       6.596   1.413  26.059  0.00  0.00    +0.214 A 
ENDROOT
BRANCH   1  13
ATOM     12  C   UNL     1       9.577   1.123  24.742  0.00  0.00    +0.015 A 
ATOM     13  C   UNL     1       8.311   0.677  24.318  0.00  0.00    +0.025 A 
ATOM     14  C   UNL     1       7.999   0.777  22.945  0.00  0.00    +0.060 A 
ATOM     15  C   UNL     1       8.909   1.398  22.070  0.00  0.00    +0.159 A 
ATOM     16  C   UNL     1      10.100   1.941  22.546  0.00  0.00    +0.158 A 
ATOM     17  C   UNL     1      10.460   1.775  23.872  0.00  0.00    +0.050 A 
BRANCH  16  18
ATOM     18  O   UNL     1      10.850   2.691  21.681  0.00  0.00    -0.503 OA
ATOM     19  H   UNL     1      11.056   2.140  20.903  0.00  0.00    +0.292 HD
ENDBRANCH  16  18
BRANCH  15  20
ATOM     20  O   UNL     1       8.622   1.567  20.738  0.00  0.00    -0.503 OA
ATOM     21  H   UNL     1       9.464   1.855  20.321  0.00  0.00    +0.292 HD
ENDBRANCH  15  20
ENDBRANCH   1  13
BRANCH   5  22
ATOM     22  O   UNL     1       3.939  -0.213  29.180  0.00  0.00    -0.506 OA
ATOM     23  H   UNL     1       2.990  -0.476  29.187  0.00  0.00    +0.292 HD
ENDBRANCH   5  22
BRANCH  11  24
ATOM     24  O   UNL     1       6.904   2.720  25.997  0.00  0.00    -0.453 OA
BRANCH  24  25
ATOM     25  C   UNL     1       6.155   3.929  26.048  0.00  0.00    +0.340 C 
ATOM     26  O   UNL     1       5.182   3.992  25.021  0.00  0.00    -0.331 OA
ATOM     27  C   UNL     1       5.604   4.339  23.686  0.00  0.00    +0.179 C 
ATOM     28  C   UNL     1       7.100   4.611  23.350  0.00  0.00    +0.177 C 
ATOM     29  C   UNL     1       8.014   4.405  24.538  0.00  0.00    +0.180 C 
ATOM     30  C   UNL     1       7.255   4.976  25.778  0.00  0.00    +0.214 C 
BRANCH  30  31
ATOM     31  O   UNL     1       8.116   5.177  26.897  0.00  0.00    -0.383 OA
ATOM     32  H   UNL     1       7.565   5.372  27.679  0.00  0.00    +0.210 HD
ENDBRANCH  30  31
BRANCH  29  33
ATOM     33  O   UNL     1       9.291   4.985  24.278  0.00  0.00    -0.386 OA
ATOM     34  H   UNL     1       9.336   5.796  24.810  0.00  0.00    +0.210 HD
ENDBRANCH  29  33
BRANCH  28  35
ATOM     35  O   UNL     1       7.335   5.960  22.901  0.00  0.00    -0.386 OA
ATOM     36  H   UNL     1       6.891   6.526  23.565  0.00  0.00    +0.210 HD
ENDBRANCH  28  35
BRANCH  27  37
ATOM     37  C   UNL     1       4.748   5.531  23.218  0.00  0.00    +0.197 C 
BRANCH  37  38
ATOM     38  O   UNL     1       3.413   5.179  22.831  0.00  0.00    -0.346 OA
BRANCH  38  39
ATOM     39  C   UNL     1       3.292   3.926  22.144  0.00  0.00    +0.282 C 
ATOM     40  O   UNL     1       3.027   4.170  20.758  0.00  0.00    -0.341 OA
ATOM     41  C   UNL     1       1.760   4.788  20.489  0.00  0.00    +0.178 C 
ATOM     42  C   UNL     1       0.595   3.993  21.122  0.00  0.00    +0.177 C 
ATOM     43  C   UNL     1       0.851   3.735  22.608  0.00  0.00    +0.179 C 
ATOM     44  C   UNL     1       2.203   3.028  22.764  0.00  0.00    +0.201 C 
BRANCH  44  45
ATOM     45  O   UNL     1       2.423   2.685  24.136  0.00  0.00    -0.384 OA
ATOM     46  H   UNL     1       1.935   1.854  24.303  0.00  0.00    +0.210 HD
ENDBRANCH  44  45
BRANCH  43  47
ATOM     47  O   UNL     1       0.801   4.946  23.383  0.00  0.00    -0.386 OA
ATOM     48  H   UNL     1       1.550   5.512  23.120  0.00  0.00    +0.210 HD
ENDBRANCH  43  47
BRANCH  42  49
ATOM     49  O   UNL     1       0.447   2.731  20.456  0.00  0.00    -0.386 OA
ATOM     50  H   UNL     1      -0.026   2.120  21.050  0.00  0.00    +0.210 HD
ENDBRANCH  42  49
BRANCH  41  51
ATOM     51  C   UNL     1       1.591   4.884  18.962  0.00  0.00    +0.190 C 
BRANCH  51  52
ATOM     52  O   UNL     1       2.341   3.892  18.255  0.00  0.00    -0.392 OA
ATOM     53  H   UNL     1       3.284   4.025  18.447  0.00  0.00    +0.210 HD
ENDBRANCH  51  52
ENDBRANCH  41  51
ENDBRANCH  38  39
ENDBRANCH  37  38
ENDBRANCH  27  37
ENDBRANCH  24  25
ENDBRANCH  11  24
BRANCH   7  54
ATOM     54  O   UNL     1       4.330  -4.469  27.158  0.00  0.00    -0.461 OA
BRANCH  54  55
ATOM     55  C   UNL     1       5.246  -5.408  26.568  0.00  0.00    +0.339 C 
ATOM     56  O   UNL     1       5.357  -5.183  25.153  0.00  0.00    -0.331 OA
ATOM     57  C   UNL     1       4.173  -5.595  24.439  0.00  0.00    +0.179 C 
ATOM     58  C   UNL     1       4.119  -7.125  24.478  0.00  0.00    +0.177 C 
ATOM     59  C   UNL     1       3.938  -7.571  25.940  0.00  0.00    +0.180 C 
ATOM     60  C   UNL     1       4.961  -6.906  26.869  0.00  0.00    +0.214 C 
BRANCH  60  61
ATOM     61  O   UNL     1       4.655  -7.142  28.245  0.00  0.00    -0.383 OA
ATOM     62  H   UNL     1       5.436  -7.561  28.656  0.00  0.00    +0.210 HD
ENDBRANCH  60  61
BRANCH  59  63
ATOM     63  O   UNL     1       2.595  -7.332  26.391  0.00  0.00    -0.386 OA
ATOM     64  H   UNL     1       2.573  -7.341  27.368  0.00  0.00    +0.210 HD
ENDBRANCH  59  63
BRANCH  58  65
ATOM     65  O   UNL     1       3.067  -7.646  23.670  0.00  0.00    -0.386 OA
ATOM     66  H   UNL     1       3.474  -8.216  22.989  0.00  0.00    +0.210 HD
ENDBRANCH  58  65
BRANCH  57  67
ATOM     67  C   UNL     1       4.254  -5.014  23.026  0.00  0.00    +0.190 C 
BRANCH  67  68
ATOM     68  O   UNL     1       4.720  -5.993  22.100  0.00  0.00    -0.392 OA
ATOM     69  H   UNL     1       5.419  -6.481  22.574  0.00  0.00    +0.210 HD
ENDBRANCH  67  68
ENDBRANCH  57  67
ENDBRANCH  54  55
ENDBRANCH   7  54
TORSDOF 24
ENDMDL
MODEL 7
REMARK VINA RESULT:      -6.4      2.559     10.753
REMARK  Name = 
REMARK  24 active torsions:
REMARK  status: ('A' for Active; 'I' for Inactive)
REMARK    1  A    between atoms: C_3  and  O_63
REMARK    2  A    between atoms: C_4  and  O_62
REMARK    3  A    between atoms: C_6  and  C_7
REMARK    4  A    between atoms: C_8  and  O_34
REMARK    5  A    between atoms: C_12  and  O_33
REMARK    6  A    between atoms: C_14  and  O_18
REMARK    7  A    between atoms: O_18  and  C_19
REMARK    8  A    between atoms: C_21  and  O_32
REMARK    9  A    between atoms: C_22  and  O_31
REMARK   10  A    between atoms: C_24  and  O_30
REMARK   11  A    between atoms: C_26  and  C_28
REMARK   12  A    between atoms: C_28  and  O_29
REMARK   13  A    between atoms: O_34  and  C_35
REMARK   14  A    between atoms: C_37  and  O_61
REMARK   15  A    between atoms: C_38  and  O_60
REMARK   16  A    between atoms: C_39  and  O_59
REMARK   17  A    between atoms: C_41  and  C_43
REMARK   18  A    between atoms: C_43  and  O_44
REMARK   19  A    between atoms: O_44  and  C_45
REMARK   20  A    between atoms: C_47  and  O_58
REMARK   21  A    between atoms: C_48  and  O_57
REMARK   22  A    between atoms: C_50  and  O_56
REMARK   23  A    between atoms: C_52  and  C_54
REMARK   24  A    between atoms: C_54  and  O_55
REMARK                            x       y       z     vdW  Elec       q    Type
REMARK                         _______ _______ _______ _____ _____    ______ ____
ROOT
ATOM      1  C   UNL     1       6.315  -1.201  24.703  0.00  0.00    +0.181 A 
ATOM      2  O   UNL     1       6.132  -2.570  24.551  0.00  0.00    -0.451 OA
ATOM      3  C   UNL     1       5.089  -3.171  25.195  0.00  0.00    +0.147 A 
ATOM      4  C   UNL     1       4.383  -2.561  26.214  0.00  0.00    +0.109 A 
ATOM      5  C   UNL     1       3.349  -3.260  26.848  0.00  0.00    +0.135 A 
ATOM      6  C   UNL     1       2.960  -4.526  26.383  0.00  0.00    +0.092 A 
ATOM      7  C   UNL     1       3.620  -5.106  25.302  0.00  0.00    +0.131 A 
ATOM      8  C   UNL     1       4.712  -1.165  26.515  0.00  0.00    +0.238 A 
ATOM      9  O   UNL     1       4.264  -0.634  27.529  0.00  0.00    -0.283 OA
ATOM     10  C   UNL     1       4.728  -4.440  24.754  0.00  0.00    +0.093 A 
ATOM     11  C   UNL     1       5.578  -0.440  25.536  0.00  0.00    +0.214 A 
ENDROOT
BRANCH   1  13
ATOM     12  C   UNL     1       8.716  -0.906  24.284  0.00  0.00    +0.015 A 
ATOM     13  C   UNL     1       7.408  -0.752  23.785  0.00  0.00    +0.025 A 
ATOM     14  C   UNL     1       7.223   0.080  22.660  0.00  0.00    +0.060 A 
ATOM     15  C   UNL     1       8.317   0.795  22.138  0.00  0.00    +0.159 A 
ATOM     16  C   UNL     1       9.572   0.715  22.734  0.00  0.00    +0.158 A 
ATOM     17  C   UNL     1       9.790  -0.161  23.784  0.00  0.00    +0.050 A 
BRANCH  16  18
ATOM     18  O   UNL     1      10.544   1.574  22.295  0.00  0.00    -0.503 OA
ATOM     19  H   UNL     1      11.208   1.054  21.806  0.00  0.00    +0.292 HD
ENDBRANCH  16  18
BRANCH  15  20
ATOM     20  O   UNL     1       8.170   1.658  21.080  0.00  0.00    -0.503 OA
ATOM     21  H   UNL     1       8.633   2.483  21.346  0.00  0.00    +0.292 HD
ENDBRANCH  15  20
ENDBRANCH   1  13
BRANCH   5  22
ATOM     22  O   UNL     1       2.640  -2.732  27.895  0.00  0.00    -0.506 OA
ATOM     23  H   UNL     1       2.186  -3.468  28.364  0.00  0.00    +0.292 HD
ENDBRANCH   5  22
BRANCH  11  24
ATOM     24  O   UNL     1       5.921   0.819  25.857  0.00  0.00    -0.453 OA
BRANCH  24  25
ATOM     25  C   UNL     1       6.515   1.906  25.155  0.00  0.00    +0.340 C 
ATOM     26  O   UNL     1       7.406   2.640  25.973  0.00  0.00    -0.331 OA
ATOM     27  C   UNL     1       6.863   3.583  26.920  0.00  0.00    +0.179 C 
ATOM     28  C   UNL     1       5.326   3.781  27.081  0.00  0.00    +0.177 C 
ATOM     29  C   UNL     1       4.521   2.849  26.203  0.00  0.00    +0.180 C 
ATOM     30  C   UNL     1       5.277   2.771  24.838  0.00  0.00    +0.214 C 
BRANCH  30  31
ATOM     31  O   UNL     1       4.468   2.223  23.800  0.00  0.00    -0.383 OA
ATOM     32  H   UNL     1       3.987   2.954  23.365  0.00  0.00    +0.210 HD
ENDBRANCH  30  31
BRANCH  29  33
ATOM     33  O   UNL     1       3.167   3.294  26.131  0.00  0.00    -0.386 OA
ATOM     34  H   UNL     1       2.626   2.586  26.516  0.00  0.00    +0.210 HD
ENDBRANCH  29  33
BRANCH  28  35
ATOM     35  O   UNL     1       4.897   5.113  26.741  0.00  0.00    -0.386 OA
ATOM     36  H   UNL     1       4.282   4.994  25.988  0.00  0.00    +0.210 HD
ENDBRANCH  28  35
BRANCH  27  37
ATOM     37  C   UNL     1       7.532   4.946  26.663  0.00  0.00    +0.197 C 
BRANCH  37  38
ATOM     38  O   UNL     1       8.127   5.072  25.365  0.00  0.00    -0.346 OA
BRANCH  38  39
ATOM     39  C   UNL     1       7.947   6.349  24.736  0.00  0.00    +0.282 C 
ATOM     40  O   UNL     1       6.570   6.515  24.387  0.00  0.00    -0.341 OA
ATOM     41  C   UNL     1       6.092   5.611  23.380  0.00  0.00    +0.178 C 
ATOM     42  C   UNL     1       6.972   5.660  22.110  0.00  0.00    +0.177 C 
ATOM     43  C   UNL     1       8.450   5.469  22.460  0.00  0.00    +0.179 C 
ATOM     44  C   UNL     1       8.855   6.519  23.501  0.00  0.00    +0.201 C 
BRANCH  44  45
ATOM     45  O   UNL     1      10.256   6.428  23.773  0.00  0.00    -0.384 OA
ATOM     46  H   UNL     1      10.650   7.289  23.531  0.00  0.00    +0.210 HD
ENDBRANCH  44  45
BRANCH  43  47
ATOM     47  O   UNL     1       8.727   4.136  22.925  0.00  0.00    -0.386 OA
ATOM     48  H   UNL     1       9.333   4.196  23.688  0.00  0.00    +0.210 HD
ENDBRANCH  43  47
BRANCH  42  49
ATOM     49  O   UNL     1       6.817   6.928  21.457  0.00  0.00    -0.386 OA
ATOM     50  H   UNL     1       7.697   7.252  21.193  0.00  0.00    +0.210 HD
ENDBRANCH  42  49
BRANCH  41  51
ATOM     51  C   UNL     1       4.636   5.989  23.051  0.00  0.00    +0.190 C 
BRANCH  51  52
ATOM     52  O   UNL     1       4.208   5.500  21.777  0.00  0.00    -0.392 OA
ATOM     53  H   UNL     1       4.988   5.405  21.206  0.00  0.00    +0.210 HD
ENDBRANCH  51  52
ENDBRANCH  41  51
ENDBRANCH  38  39
ENDBRANCH  37  38
ENDBRANCH  27  37
ENDBRANCH  24  25
ENDBRANCH  11  24
BRANCH   7  54
ATOM     54  O   UNL     1       3.090  -6.291  24.815  0.00  0.00    -0.461 OA
BRANCH  54  55
ATOM     55  C   UNL     1       1.652  -6.328  24.823  0.00  0.00    +0.339 C 
ATOM     56  O   UNL     1       1.181  -7.502  25.505  0.00  0.00    -0.331 OA
ATOM     57  C   UNL     1       1.400  -8.704  24.740  0.00  0.00    +0.179 C 
ATOM     58  C   UNL     1       0.443  -8.670  23.543  0.00  0.00    +0.177 C 
ATOM     59  C   UNL     1       0.831  -7.486  22.640  0.00  0.00    +0.180 C 
ATOM     60  C   UNL     1       0.968  -6.182  23.436  0.00  0.00    +0.214 C 
BRANCH  60  61
ATOM     61  O   UNL     1       1.541  -5.140  22.645  0.00  0.00    -0.383 OA
ATOM     62  H   UNL     1       1.672  -4.364  23.225  0.00  0.00    +0.210 HD
ENDBRANCH  60  61
BRANCH  59  63
ATOM     63  O   UNL     1       2.032  -7.772  21.902  0.00  0.00    -0.386 OA
ATOM     64  H   UNL     1       2.770  -7.916  22.526  0.00  0.00    +0.210 HD
ENDBRANCH  59  63
BRANCH  58  65
ATOM     65  O   UNL     1       0.468  -9.886  22.802  0.00  0.00    -0.386 OA
ATOM     66  H   UNL     1       0.259 -10.613  23.420  0.00  0.00    +0.210 HD
ENDBRANCH  58  65
BRANCH  57  67
ATOM     67  C   UNL     1       1.183  -9.898  25.671  0.00  0.00    +0.190 C 
BRANCH  67  68
ATOM     68  O   UNL     1       2.248 -10.838  25.549  0.00  0.00    -0.392 OA
ATOM     69  H   UNL     1       1.928 -11.509  24.917  0.00  0.00    +0.210 HD
ENDBRANCH  67  68
ENDBRANCH  57  67
ENDBRANCH  54  55
ENDBRANCH   7  54
TORSDOF 24
ENDMDL
MODEL 8
REMARK VINA RESULT:      -6.4      2.852      7.311
REMARK  Name = 
REMARK  24 active torsions:
REMARK  status: ('A' for Active; 'I' for Inactive)
REMARK    1  A    between atoms: C_3  and  O_63
REMARK    2  A    between atoms: C_4  and  O_62
REMARK    3  A    between atoms: C_6  and  C_7
REMARK    4  A    between atoms: C_8  and  O_34
REMARK    5  A    between atoms: C_12  and  O_33
REMARK    6  A    between atoms: C_14  and  O_18
REMARK    7  A    between atoms: O_18  and  C_19
REMARK    8  A    between atoms: C_21  and  O_32
REMARK    9  A    between atoms: C_22  and  O_31
REMARK   10  A    between atoms: C_24  and  O_30
REMARK   11  A    between atoms: C_26  and  C_28
REMARK   12  A    between atoms: C_28  and  O_29
REMARK   13  A    between atoms: O_34  and  C_35
REMARK   14  A    between atoms: C_37  and  O_61
REMARK   15  A    between atoms: C_38  and  O_60
REMARK   16  A    between atoms: C_39  and  O_59
REMARK   17  A    between atoms: C_41  and  C_43
REMARK   18  A    between atoms: C_43  and  O_44
REMARK   19  A    between atoms: O_44  and  C_45
REMARK   20  A    between atoms: C_47  and  O_58
REMARK   21  A    between atoms: C_48  and  O_57
REMARK   22  A    between atoms: C_50  and  O_56
REMARK   23  A    between atoms: C_52  and  C_54
REMARK   24  A    between atoms: C_54  and  O_55
REMARK                            x       y       z     vdW  Elec       q    Type
REMARK                         _______ _______ _______ _____ _____    ______ ____
ROOT
ATOM      1  C   UNL     1       5.453  -2.492  26.180  0.00  0.00    +0.181 A 
ATOM      2  O   UNL     1       4.425  -1.709  26.692  0.00  0.00    -0.451 OA
ATOM      3  C   UNL     1       4.701  -0.427  27.072  0.00  0.00    +0.147 A 
ATOM      4  C   UNL     1       5.987   0.044  27.251  0.00  0.00    +0.109 A 
ATOM      5  C   UNL     1       6.183   1.363  27.677  0.00  0.00    +0.135 A 
ATOM      6  C   UNL     1       5.090   2.233  27.818  0.00  0.00    +0.092 A 
ATOM      7  C   UNL     1       3.799   1.778  27.558  0.00  0.00    +0.131 A 
ATOM      8  C   UNL     1       7.086  -0.857  26.896  0.00  0.00    +0.238 A 
ATOM      9  O   UNL     1       8.240  -0.575  27.215  0.00  0.00    -0.283 OA
ATOM     10  C   UNL     1       3.612   0.423  27.244  0.00  0.00    +0.093 A 
ATOM     11  C   UNL     1       6.738  -2.091  26.127  0.00  0.00    +0.214 A 
ENDROOT
BRANCH   1  13
ATOM     12  C   UNL     1       5.387  -4.942  26.311  0.00  0.00    +0.015 A 
ATOM     13  C   UNL     1       4.880  -3.784  25.689  0.00  0.00    +0.025 A 
ATOM     14  C   UNL     1       4.161  -3.941  24.485  0.00  0.00    +0.060 A 
ATOM     15  C   UNL     1       4.055  -5.216  23.899  0.00  0.00    +0.159 A 
ATOM     16  C   UNL     1       4.676  -6.320  24.478  0.00  0.00    +0.158 A 
ATOM     17  C   UNL     1       5.312  -6.201  25.702  0.00  0.00    +0.050 A 
BRANCH  16  18
ATOM     18  O   UNL     1       4.693  -7.489  23.765  0.00  0.00    -0.503 OA
ATOM     19  H   UNL     1       3.939  -8.033  24.059  0.00  0.00    +0.292 HD
ENDBRANCH  16  18
BRANCH  15  20
ATOM     20  O   UNL     1       3.413  -5.404  22.701  0.00  0.00    -0.503 OA
ATOM     21  H   UNL     1       3.307  -6.377  22.608  0.00  0.00    +0.292 HD
ENDBRANCH  15  20
ENDBRANCH   1  13
BRANCH   5  22
ATOM     22  O   UNL     1       7.429   1.879  27.919  0.00  0.00    -0.506 OA
ATOM     23  H   UNL     1       7.588   2.615  27.285  0.00  0.00    +0.292 HD
ENDBRANCH   5  22
BRANCH  11  24
ATOM     24  O   UNL     1       7.748  -2.937  25.863  0.00  0.00    -0.453 OA
BRANCH  24  25
ATOM     25  C   UNL     1       9.066  -2.794  25.344  0.00  0.00    +0.340 C 
ATOM     26  O   UNL     1       9.321  -1.471  24.908  0.00  0.00    -0.331 OA
ATOM     27  C   UNL     1       8.799  -1.048  23.632  0.00  0.00    +0.179 C 
ATOM     28  C   UNL     1       7.940  -2.000  22.748  0.00  0.00    +0.177 C 
ATOM     29  C   UNL     1       7.682  -3.337  23.407  0.00  0.00    +0.180 C 
ATOM     30  C   UNL     1       9.012  -3.736  24.124  0.00  0.00    +0.214 C 
BRANCH  30  31
ATOM     31  O   UNL     1       9.041  -5.115  24.484  0.00  0.00    -0.383 OA
ATOM     32  H   UNL     1       8.837  -5.645  23.690  0.00  0.00    +0.210 HD
ENDBRANCH  30  31
BRANCH  29  33
ATOM     33  O   UNL     1       7.200  -4.271  22.442  0.00  0.00    -0.386 OA
ATOM     34  H   UNL     1       7.968  -4.794  22.160  0.00  0.00    +0.210 HD
ENDBRANCH  29  33
BRANCH  28  35
ATOM     35  O   UNL     1       8.561  -2.297  21.482  0.00  0.00    -0.386 OA
ATOM     36  H   UNL     1       7.915  -1.999  20.810  0.00  0.00    +0.210 HD
ENDBRANCH  28  35
BRANCH  27  37
ATOM     37  C   UNL     1       9.976  -0.500  22.803  0.00  0.00    +0.197 C 
BRANCH  37  38
ATOM     38  O   UNL     1      10.404   0.813  23.188  0.00  0.00    -0.346 OA
BRANCH  38  39
ATOM     39  C   UNL     1      10.075   1.855  22.259  0.00  0.00    +0.282 C 
ATOM     40  O   UNL     1      11.096   2.858  22.290  0.00  0.00    -0.341 OA
ATOM     41  C   UNL     1      11.194   3.576  23.529  0.00  0.00    +0.178 C 
ATOM     42  C   UNL     1       9.835   4.187  23.940  0.00  0.00    +0.177 C 
ATOM     43  C   UNL     1       8.731   3.128  23.927  0.00  0.00    +0.179 C 
ATOM     44  C   UNL     1       8.690   2.469  22.543  0.00  0.00    +0.201 C 
BRANCH  44  45
ATOM     45  O   UNL     1       7.601   1.543  22.471  0.00  0.00    -0.384 OA
ATOM     46  H   UNL     1       6.777   2.068  22.514  0.00  0.00    +0.210 HD
ENDBRANCH  44  45
BRANCH  43  47
ATOM     47  O   UNL     1       8.909   2.150  24.967  0.00  0.00    -0.386 OA
ATOM     48  H   UNL     1       8.037   1.954  25.358  0.00  0.00    +0.210 HD
ENDBRANCH  43  47
BRANCH  42  49
ATOM     49  O   UNL     1       9.475   5.234  23.027  0.00  0.00    -0.386 OA
ATOM     50  H   UNL     1      10.197   5.346  22.382  0.00  0.00    +0.210 HD
ENDBRANCH  42  49
BRANCH  41  51
ATOM     51  C   UNL     1      12.260   4.674  23.360  0.00  0.00    +0.190 C 
BRANCH  51  52
ATOM     52  O   UNL     1      12.107   5.417  22.148  0.00  0.00    -0.392 OA
ATOM     53  H   UNL     1      12.602   6.248  22.231  0.00  0.00    +0.210 HD
ENDBRANCH  51  52
ENDBRANCH  41  51
ENDBRANCH  38  39
ENDBRANCH  37  38
ENDBRANCH  27  37
ENDBRANCH  24  25
ENDBRANCH  11  24
BRANCH   7  54
ATOM     54  O   UNL     1       2.790   2.730  27.583  0.00  0.00    -0.461 OA
BRANCH  54  55
ATOM     55  C   UNL     1       1.953   2.716  26.414  0.00  0.00    +0.339 C 
ATOM     56  O   UNL     1       2.728   2.417  25.242  0.00  0.00    -0.331 OA
ATOM     57  C   UNL     1       3.580   3.514  24.854  0.00  0.00    +0.179 C 
ATOM     58  C   UNL     1       2.679   4.631  24.320  0.00  0.00    +0.177 C 
ATOM     59  C   UNL     1       1.791   5.138  25.470  0.00  0.00    +0.180 C 
ATOM     60  C   UNL     1       1.084   3.985  26.194  0.00  0.00    +0.214 C 
BRANCH  60  61
ATOM     61  O   UNL     1       0.443   4.429  27.391  0.00  0.00    -0.383 OA
ATOM     62  H   UNL     1      -0.455   4.044  27.409  0.00  0.00    +0.210 HD
ENDBRANCH  60  61
BRANCH  59  63
ATOM     63  O   UNL     1       2.548   5.941  26.391  0.00  0.00    -0.386 OA
ATOM     64  H   UNL     1       2.465   5.570  27.291  0.00  0.00    +0.210 HD
ENDBRANCH  59  63
BRANCH  58  65
ATOM     65  O   UNL     1       3.430   5.708  23.766  0.00  0.00    -0.386 OA
ATOM     66  H   UNL     1       3.900   6.148  24.500  0.00  0.00    +0.210 HD
ENDBRANCH  58  65
BRANCH  57  67
ATOM     67  C   UNL     1       4.586   2.986  23.829  0.00  0.00    +0.190 C 
BRANCH  67  68
ATOM     68  O   UNL     1       4.939   1.634  24.114  0.00  0.00    -0.392 OA
ATOM     69  H   UNL     1       4.574   1.113  23.375  0.00  0.00    +0.210 HD
ENDBRANCH  67  68
ENDBRANCH  57  67
ENDBRANCH  54  55
ENDBRANCH   7  54
TORSDOF 24
ENDMDL
MODEL 9
REMARK VINA RESULT:      -6.2      2.215     10.061
REMARK  Name = 
REMARK  24 active torsions:
REMARK  status: ('A' for Active; 'I' for Inactive)
REMARK    1  A    between atoms: C_3  and  O_63
REMARK    2  A    between atoms: C_4  and  O_62
REMARK    3  A    between atoms: C_6  and  C_7
REMARK    4  A    between atoms: C_8  and  O_34
REMARK    5  A    between atoms: C_12  and  O_33
REMARK    6  A    between atoms: C_14  and  O_18
REMARK    7  A    between atoms: O_18  and  C_19
REMARK    8  A    between atoms: C_21  and  O_32
REMARK    9  A    between atoms: C_22  and  O_31
REMARK   10  A    between atoms: C_24  and  O_30
REMARK   11  A    between atoms: C_26  and  C_28
REMARK   12  A    between atoms: C_28  and  O_29
REMARK   13  A    between atoms: O_34  and  C_35
REMARK   14  A    between atoms: C_37  and  O_61
REMARK   15  A    between atoms: C_38  and  O_60
REMARK   16  A    between atoms: C_39  and  O_59
REMARK   17  A    between atoms: C_41  and  C_43
REMARK   18  A    between atoms: C_43  and  O_44
REMARK   19  A    between atoms: O_44  and  C_45
REMARK   20  A    between atoms: C_47  and  O_58
REMARK   21  A    between atoms: C_48  and  O_57
REMARK   22  A    between atoms: C_50  and  O_56
REMARK   23  A    between atoms: C_52  and  C_54
REMARK   24  A    between atoms: C_54  and  O_55
REMARK                            x       y       z     vdW  Elec       q    Type
REMARK                         _______ _______ _______ _____ _____    ______ ____
ROOT
ATOM      1  C   UNL     1       6.903   0.134  25.270  0.00  0.00    +0.181 A 
ATOM      2  O   UNL     1       6.771  -1.249  25.270  0.00  0.00    -0.451 OA
ATOM      3  C   UNL     1       5.737  -1.813  25.961  0.00  0.00    +0.147 A 
ATOM      4  C   UNL     1       4.990  -1.120  26.893  0.00  0.00    +0.109 A 
ATOM      5  C   UNL     1       3.968  -1.781  27.585  0.00  0.00    +0.135 A 
ATOM      6  C   UNL     1       3.634  -3.105  27.260  0.00  0.00    +0.092 A 
ATOM      7  C   UNL     1       4.337  -3.777  26.263  0.00  0.00    +0.131 A 
ATOM      8  C   UNL     1       5.262   0.312  27.039  0.00  0.00    +0.238 A 
ATOM      9  O   UNL     1       4.775   0.937  27.980  0.00  0.00    -0.283 OA
ATOM     10  C   UNL     1       5.431  -3.137  25.661  0.00  0.00    +0.093 A 
ATOM     11  C   UNL     1       6.122   0.955  25.999  0.00  0.00    +0.214 A 
ENDROOT
BRANCH   1  13
ATOM     12  C   UNL     1       9.252   0.751  24.920  0.00  0.00    +0.015 A 
ATOM     13  C   UNL     1       7.997   0.518  24.325  0.00  0.00    +0.025 A 
ATOM     14  C   UNL     1       7.798   0.969  23.002  0.00  0.00    +0.060 A 
ATOM     15  C   UNL     1       8.807   1.710  22.361  0.00  0.00    +0.159 A 
ATOM     16  C   UNL     1       9.989   2.029  23.025  0.00  0.00    +0.158 A 
ATOM     17  C   UNL     1      10.236   1.523  24.290  0.00  0.00    +0.050 A 
BRANCH  16  18
ATOM     18  O   UNL     1      10.847   2.906  22.417  0.00  0.00    -0.503 OA
ATOM     19  H   UNL     1      11.310   3.408  23.113  0.00  0.00    +0.292 HD
ENDBRANCH  16  18
BRANCH  15  20
ATOM     20  O   UNL     1       8.634   2.215  21.097  0.00  0.00    -0.503 OA
ATOM     21  H   UNL     1       9.495   2.087  20.641  0.00  0.00    +0.292 HD
ENDBRANCH  15  20
ENDBRANCH   1  13
BRANCH   5  22
ATOM     22  O   UNL     1       3.220  -1.167  28.554  0.00  0.00    -0.506 OA
ATOM     23  H   UNL     1       2.547  -1.807  28.879  0.00  0.00    +0.292 HD
ENDBRANCH   5  22
BRANCH  11  24
ATOM     24  O   UNL     1       6.413   2.255  26.182  0.00  0.00    -0.453 OA
BRANCH  24  25
ATOM     25  C   UNL     1       5.644   3.444  26.322  0.00  0.00    +0.340 C 
ATOM     26  O   UNL     1       4.790   3.655  25.213  0.00  0.00    -0.331 OA
ATOM     27  C   UNL     1       5.352   4.193  23.998  0.00  0.00    +0.179 C 
ATOM     28  C   UNL     1       6.871   4.510  23.874  0.00  0.00    +0.177 C 
ATOM     29  C   UNL     1       7.651   4.133  25.115  0.00  0.00    +0.180 C 
ATOM     30  C   UNL     1       6.750   4.518  26.332  0.00  0.00    +0.214 C 
BRANCH  30  31
ATOM     31  O   UNL     1       7.479   4.554  27.557  0.00  0.00    -0.383 OA
ATOM     32  H   UNL     1       7.660   5.488  27.780  0.00  0.00    +0.210 HD
ENDBRANCH  30  31
BRANCH  29  33
ATOM     33  O   UNL     1       8.939   4.745  25.086  0.00  0.00    -0.386 OA
ATOM     34  H   UNL     1       8.911   5.408  24.377  0.00  0.00    +0.210 HD
ENDBRANCH  29  33
BRANCH  28  35
ATOM     35  O   UNL     1       7.133   5.910  23.654  0.00  0.00    -0.386 OA
ATOM     36  H   UNL     1       7.346   6.268  24.540  0.00  0.00    +0.210 HD
ENDBRANCH  28  35
BRANCH  27  37
ATOM     37  C   UNL     1       4.534   5.440  23.614  0.00  0.00    +0.197 C 
BRANCH  37  38
ATOM     38  O   UNL     1       3.243   5.149  23.062  0.00  0.00    -0.346 OA
BRANCH  38  39
ATOM     39  C   UNL     1       3.161   3.919  22.330  0.00  0.00    +0.282 C 
ATOM     40  O   UNL     1       3.063   4.205  20.931  0.00  0.00    -0.341 OA
ATOM     41  C   UNL     1       1.854   4.874  20.539  0.00  0.00    +0.178 C 
ATOM     42  C   UNL     1       0.600   4.104  21.013  0.00  0.00    +0.177 C 
ATOM     43  C   UNL     1       0.678   3.800  22.511  0.00  0.00    +0.179 C 
ATOM     44  C   UNL     1       1.980   3.044  22.798  0.00  0.00    +0.201 C 
BRANCH  44  45
ATOM     45  O   UNL     1       2.033   2.659  24.175  0.00  0.00    -0.384 OA
ATOM     46  H   UNL     1       2.737   1.986  24.256  0.00  0.00    +0.210 HD
ENDBRANCH  44  45
BRANCH  43  47
ATOM     47  O   UNL     1       0.579   4.993  23.310  0.00  0.00    -0.386 OA
ATOM     48  H   UNL     1       0.300   4.738  24.210  0.00  0.00    +0.210 HD
ENDBRANCH  43  47
BRANCH  42  49
ATOM     49  O   UNL     1       0.489   2.865  20.300  0.00  0.00    -0.386 OA
ATOM     50  H   UNL     1      -0.396   2.817  19.895  0.00  0.00    +0.210 HD
ENDBRANCH  42  49
BRANCH  41  51
ATOM     51  C   UNL     1       1.863   5.013  19.005  0.00  0.00    +0.190 C 
BRANCH  51  52
ATOM     52  O   UNL     1       2.456   3.890  18.347  0.00  0.00    -0.392 OA
ATOM     53  H   UNL     1       3.379   3.813  18.642  0.00  0.00    +0.210 HD
ENDBRANCH  51  52
ENDBRANCH  41  51
ENDBRANCH  38  39
ENDBRANCH  37  38
ENDBRANCH  27  37
ENDBRANCH  24  25
ENDBRANCH  11  24
BRANCH   7  54
ATOM     54  O   UNL     1       3.859  -5.029  25.904  0.00  0.00    -0.461 OA
BRANCH  54  55
ATOM     55  C   UNL     1       2.589  -4.992  25.230  0.00  0.00    +0.339 C 
ATOM     56  O   UNL     1       1.584  -5.661  26.010  0.00  0.00    -0.331 OA
ATOM     57  C   UNL     1       1.757  -7.093  26.014  0.00  0.00    +0.179 C 
ATOM     58  C   UNL     1       1.413  -7.604  24.611  0.00  0.00    +0.177 C 
ATOM     59  C   UNL     1       2.437  -7.031  23.616  0.00  0.00    +0.180 C 
ATOM     60  C   UNL     1       2.589  -5.512  23.766  0.00  0.00    +0.214 C 
BRANCH  60  61
ATOM     61  O   UNL     1       3.692  -5.015  23.005  0.00  0.00    -0.383 OA
ATOM     62  H   UNL     1       4.500  -5.130  23.542  0.00  0.00    +0.210 HD
ENDBRANCH  60  61
BRANCH  59  63
ATOM     63  O   UNL     1       3.707  -7.694  23.742  0.00  0.00    -0.386 OA
ATOM     64  H   UNL     1       3.785  -8.379  23.050  0.00  0.00    +0.210 HD
ENDBRANCH  59  63
BRANCH  58  65
ATOM     65  O   UNL     1       1.404  -9.027  24.546  0.00  0.00    -0.386 OA
ATOM     66  H   UNL     1       2.059  -9.295  23.872  0.00  0.00    +0.210 HD
ENDBRANCH  58  65
BRANCH  57  67
ATOM     67  C   UNL     1       0.869  -7.669  27.118  0.00  0.00    +0.190 C 
BRANCH  67  68
ATOM     68  O   UNL     1       1.243  -9.011  27.423  0.00  0.00    -0.392 OA
ATOM     69  H   UNL     1       0.709  -9.256  28.201  0.00  0.00    +0.210 HD
ENDBRANCH  67  68
ENDBRANCH  57  67
ENDBRANCH  54  55
ENDBRANCH   7  54
TORSDOF 24
ENDMDL
