MODEL 1
REMARK VINA RESULT:      -8.1      0.000      0.000
REMARK  Name = 
REMARK  17 active torsions:
REMARK  status: ('A' for Active; 'I' for Inactive)
REMARK    1  A    between atoms: C_1  and  C_2
REMARK    2  A    between atoms: C_3  and  O_49
REMARK    3  A    between atoms: C_5  and  O_48
REMARK    4  A    between atoms: C_7  and  O_47
REMARK    5  A    between atoms: C_8  and  O_11
REMARK    6  A    between atoms: O_11  and  C_12
REMARK    7  A    between atoms: C_12  and  C_13
REMARK    8  A    between atoms: C_14  and  O_46
REMARK    9  A    between atoms: C_16  and  O_45
REMARK   10  A    between atoms: C_18  and  O_44
REMARK   11  A    between atoms: C_19  and  O_22
REMARK   12  A    between atoms: O_22  and  C_23
REMARK   13  A    between atoms: C_25  and  O_43
REMARK   14  A    between atoms: C_30  and  C_35
REMARK   15  A    between atoms: C_31  and  O_34
REMARK   16  A    between atoms: C_37  and  O_42
REMARK   17  A    between atoms: C_38  and  O_41
REMARK                            x       y       z     vdW  Elec       q    Type
REMARK                         _______ _______ _______ _____ _____    ______ ____
ROOT
ATOM      1  C   UNL     1       3.419  -5.428  26.652  0.00  0.00    +0.179 C 
ATOM      2  O   UNL     1       4.367  -4.403  27.002  0.00  0.00    -0.331 OA
ATOM      3  C   UNL     1       5.637  -4.887  27.489  0.00  0.00    +0.339 C 
ATOM      4  C   UNL     1       5.391  -5.697  28.786  0.00  0.00    +0.214 C 
ATOM      5  C   UNL     1       4.422  -6.853  28.470  0.00  0.00    +0.180 C 
ATOM      6  C   UNL     1       3.116  -6.310  27.877  0.00  0.00    +0.177 C 
ENDROOT
BRANCH   6   7
ATOM      7  O   UNL     1       2.251  -7.413  27.594  0.00  0.00    -0.386 OA
ATOM      8  H   UNL     1       2.550  -7.813  26.757  0.00  0.00    +0.210 HD
ENDBRANCH   6   7
BRANCH   5   9
ATOM      9  O   UNL     1       4.129  -7.644  29.626  0.00  0.00    -0.386 OA
ATOM     10  H   UNL     1       3.236  -8.020  29.475  0.00  0.00    +0.210 HD
ENDBRANCH   5   9
BRANCH   4  11
ATOM     11  O   UNL     1       4.823  -4.850  29.805  0.00  0.00    -0.383 OA
ATOM     12  H   UNL     1       4.506  -5.425  30.526  0.00  0.00    +0.210 HD
ENDBRANCH   4  11
BRANCH   3  13
ATOM     13  O   UNL     1       6.538  -3.793  27.768  0.00  0.00    -0.461 OA
BRANCH  13  14
ATOM     14  C   UNL     1       7.374  -3.377  26.759  0.00  0.00    +0.131 A 
ATOM     15  C   UNL     1       7.122  -2.105  26.218  0.00  0.00    +0.093 A 
ATOM     16  C   UNL     1       7.895  -1.608  25.153  0.00  0.00    +0.147 A 
ATOM     17  O   UNL     1       7.579  -0.361  24.663  0.00  0.00    -0.451 OA
ATOM     18  C   UNL     1       8.367   0.192  23.653  0.00  0.00    +0.181 A 
ATOM     19  C   UNL     1       9.425  -0.442  23.099  0.00  0.00    +0.208 A 
ATOM     20  C   UNL     1       9.715  -1.845  23.506  0.00  0.00    +0.238 A 
ATOM     21  O   UNL     1      10.576  -2.491  22.921  0.00  0.00    -0.283 OA
ATOM     22  C   UNL     1       8.931  -2.383  24.629  0.00  0.00    +0.109 A 
ATOM     23  C   UNL     1       9.188  -3.647  25.175  0.00  0.00    +0.135 A 
ATOM     24  C   UNL     1       8.423  -4.130  26.235  0.00  0.00    +0.092 A 
BRANCH  18  25
ATOM     25  C   UNL     1       7.933   1.560  23.232  0.00  0.00    +0.025 A 
ATOM     26  C   UNL     1       6.679   1.778  22.614  0.00  0.00    +0.015 A 
ATOM     27  C   UNL     1       6.295   3.044  22.160  0.00  0.00    +0.050 A 
ATOM     28  C   UNL     1       7.134   4.121  22.380  0.00  0.00    +0.158 A 
ATOM     29  C   UNL     1       8.343   3.948  23.050  0.00  0.00    +0.159 A 
ATOM     30  C   UNL     1       8.755   2.676  23.461  0.00  0.00    +0.060 A 
BRANCH  29  31
ATOM     31  O   UNL     1       9.105   5.063  23.261  0.00  0.00    -0.503 OA
ATOM     32  H   UNL     1       8.508   5.816  23.421  0.00  0.00    +0.292 HD
ENDBRANCH  29  31
BRANCH  28  33
ATOM     33  O   UNL     1       6.755   5.359  21.949  0.00  0.00    -0.503 OA
ATOM     34  H   UNL     1       7.023   5.389  21.009  0.00  0.00    +0.292 HD
ENDBRANCH  28  33
ENDBRANCH  18  25
BRANCH  23  35
ATOM     35  O   UNL     1      10.195  -4.432  24.700  0.00  0.00    -0.506 OA
ATOM     36  H   UNL     1      10.009  -5.371  24.855  0.00  0.00    +0.292 HD
ENDBRANCH  23  35
BRANCH  19  37
ATOM     37  O   UNL     1      10.288   0.108  22.166  0.00  0.00    -0.501 OA
ATOM     38  H   UNL     1      11.186   0.108  22.529  0.00  0.00    +0.292 HD
ENDBRANCH  19  37
ENDBRANCH  13  14
ENDBRANCH   3  13
BRANCH   1  39
ATOM     39  C   UNL     1       3.852  -6.194  25.384  0.00  0.00    +0.197 C 
BRANCH  39  40
ATOM     40  O   UNL     1       3.575  -5.450  24.198  0.00  0.00    -0.346 OA
BRANCH  40  44
ATOM     41  C   UNL     1       5.949  -2.317  22.362  0.00  0.00    +0.041 C 
ATOM     42  C   UNL     1       5.606  -3.667  21.732  0.00  0.00    +0.149 C 
ATOM     43  O   UNL     1       4.486  -4.260  22.409  0.00  0.00    -0.343 OA
ATOM     44  C   UNL     1       4.761  -4.798  23.703  0.00  0.00    +0.282 C 
ATOM     45  C   UNL     1       5.876  -5.859  23.628  0.00  0.00    +0.201 C 
ATOM     46  C   UNL     1       7.135  -5.204  23.039  0.00  0.00    +0.179 C 
ATOM     47  C   UNL     1       6.823  -4.609  21.656  0.00  0.00    +0.174 C 
BRANCH  47  48
ATOM     48  O   UNL     1       6.570  -5.660  20.714  0.00  0.00    -0.387 OA
ATOM     49  H   UNL     1       7.013  -5.403  19.872  0.00  0.00    +0.210 HD
ENDBRANCH  47  48
BRANCH  46  50
ATOM     50  O   UNL     1       8.221  -6.133  22.985  0.00  0.00    -0.386 OA
ATOM     51  H   UNL     1       8.797  -5.966  23.754  0.00  0.00    +0.210 HD
ENDBRANCH  46  50
BRANCH  45  52
ATOM     52  O   UNL     1       5.428  -6.939  22.773  0.00  0.00    -0.384 OA
ATOM     53  H   UNL     1       5.782  -7.751  23.188  0.00  0.00    +0.210 HD
ENDBRANCH  45  52
ENDBRANCH  40  44
ENDBRANCH  39  40
ENDBRANCH   1  39
TORSDOF 16
ENDMDL
MODEL 2
REMARK VINA RESULT:      -8.1      2.732      5.529
REMARK  Name = 
REMARK  17 active torsions:
REMARK  status: ('A' for Active; 'I' for Inactive)
REMARK    1  A    between atoms: C_1  and  C_2
REMARK    2  A    between atoms: C_3  and  O_49
REMARK    3  A    between atoms: C_5  and  O_48
REMARK    4  A    between atoms: C_7  and  O_47
REMARK    5  A    between atoms: C_8  and  O_11
REMARK    6  A    between atoms: O_11  and  C_12
REMARK    7  A    between atoms: C_12  and  C_13
REMARK    8  A    between atoms: C_14  and  O_46
REMARK    9  A    between atoms: C_16  and  O_45
REMARK   10  A    between atoms: C_18  and  O_44
REMARK   11  A    between atoms: C_19  and  O_22
REMARK   12  A    between atoms: O_22  and  C_23
REMARK   13  A    between atoms: C_25  and  O_43
REMARK   14  A    between atoms: C_30  and  C_35
REMARK   15  A    between atoms: C_31  and  O_34
REMARK   16  A    between atoms: C_37  and  O_42
REMARK   17  A    between atoms: C_38  and  O_41
REMARK                            x       y       z     vdW  Elec       q    Type
REMARK                         _______ _______ _______ _____ _____    ______ ____
ROOT
ATOM      1  C   UNL     1       8.258  -4.368  24.507  0.00  0.00    +0.179 C 
ATOM      2  O   UNL     1       6.890  -3.925  24.445  0.00  0.00    -0.331 OA
ATOM      3  C   UNL     1       6.340  -3.464  25.698  0.00  0.00    +0.339 C 
ATOM      4  C   UNL     1       6.360  -4.639  26.707  0.00  0.00    +0.214 C 
ATOM      5  C   UNL     1       7.812  -5.129  26.866  0.00  0.00    +0.180 C 
ATOM      6  C   UNL     1       8.394  -5.533  25.505  0.00  0.00    +0.177 C 
ENDROOT
BRANCH   6   7
ATOM      7  O   UNL     1       9.740  -5.973  25.697  0.00  0.00    -0.386 OA
ATOM      8  H   UNL     1       9.741  -6.947  25.643  0.00  0.00    +0.210 HD
ENDBRANCH   6   7
BRANCH   5   9
ATOM      9  O   UNL     1       7.915  -6.230  27.774  0.00  0.00    -0.386 OA
ATOM     10  H   UNL     1       8.141  -7.011  27.226  0.00  0.00    +0.210 HD
ENDBRANCH   5   9
BRANCH   4  11
ATOM     11  O   UNL     1       5.531  -5.720  26.234  0.00  0.00    -0.383 OA
ATOM     12  H   UNL     1       6.117  -6.396  25.846  0.00  0.00    +0.210 HD
ENDBRANCH   4  11
BRANCH   3  13
ATOM     13  O   UNL     1       4.983  -2.997  25.530  0.00  0.00    -0.461 OA
BRANCH  13  14
ATOM     14  C   UNL     1       4.698  -1.706  25.909  0.00  0.00    +0.131 A 
ATOM     15  C   UNL     1       5.520  -0.699  25.377  0.00  0.00    +0.093 A 
ATOM     16  C   UNL     1       5.336   0.648  25.739  0.00  0.00    +0.147 A 
ATOM     17  O   UNL     1       6.191   1.578  25.191  0.00  0.00    -0.451 OA
ATOM     18  C   UNL     1       5.995   2.930  25.474  0.00  0.00    +0.181 A 
ATOM     19  C   UNL     1       5.016   3.389  26.285  0.00  0.00    +0.208 A 
ATOM     20  C   UNL     1       4.158   2.407  27.002  0.00  0.00    +0.238 A 
ATOM     21  O   UNL     1       3.359   2.789  27.850  0.00  0.00    -0.283 OA
ATOM     22  C   UNL     1       4.320   0.992  26.631  0.00  0.00    +0.109 A 
ATOM     23  C   UNL     1       3.494  -0.011  27.153  0.00  0.00    +0.135 A 
ATOM     24  C   UNL     1       3.678  -1.343  26.784  0.00  0.00    +0.092 A 
BRANCH  18  25
ATOM     25  C   UNL     1       6.974   3.835  24.795  0.00  0.00    +0.025 A 
ATOM     26  C   UNL     1       8.176   4.228  25.428  0.00  0.00    +0.015 A 
ATOM     27  C   UNL     1       9.065   5.125  24.824  0.00  0.00    +0.050 A 
ATOM     28  C   UNL     1       8.792   5.587  23.550  0.00  0.00    +0.158 A 
ATOM     29  C   UNL     1       7.651   5.160  22.874  0.00  0.00    +0.159 A 
ATOM     30  C   UNL     1       6.734   4.303  23.492  0.00  0.00    +0.060 A 
BRANCH  29  31
ATOM     31  O   UNL     1       7.465   5.632  21.605  0.00  0.00    -0.503 OA
ATOM     32  H   UNL     1       7.821   6.536  21.559  0.00  0.00    +0.292 HD
ENDBRANCH  29  31
BRANCH  28  33
ATOM     33  O   UNL     1       9.664   6.451  22.955  0.00  0.00    -0.503 OA
ATOM     34  H   UNL     1       9.535   7.299  23.426  0.00  0.00    +0.292 HD
ENDBRANCH  28  33
ENDBRANCH  18  25
BRANCH  23  35
ATOM     35  O   UNL     1       2.484   0.282  28.019  0.00  0.00    -0.506 OA
ATOM     36  H   UNL     1       1.702   0.609  27.546  0.00  0.00    +0.292 HD
ENDBRANCH  23  35
BRANCH  19  37
ATOM     37  O   UNL     1       4.728   4.725  26.514  0.00  0.00    -0.501 OA
ATOM     38  H   UNL     1       3.781   4.817  26.695  0.00  0.00    +0.292 HD
ENDBRANCH  19  37
ENDBRANCH  13  14
ENDBRANCH   3  13
BRANCH   1  39
ATOM     39  C   UNL     1       9.227  -3.189  24.739  0.00  0.00    +0.197 C 
BRANCH  39  40
ATOM     40  O   UNL     1      10.025  -2.926  23.586  0.00  0.00    -0.346 OA
BRANCH  40  44
ATOM     41  C   UNL     1      10.736   1.261  24.465  0.00  0.00    +0.041 C 
ATOM     42  C   UNL     1       9.372   0.617  24.214  0.00  0.00    +0.149 C 
ATOM     43  O   UNL     1       9.458  -0.807  24.379  0.00  0.00    -0.343 OA
ATOM     44  C   UNL     1      10.120  -1.513  23.329  0.00  0.00    +0.282 C 
ATOM     45  C   UNL     1       9.436  -1.241  21.974  0.00  0.00    +0.201 C 
ATOM     46  C   UNL     1       9.465   0.272  21.707  0.00  0.00    +0.179 C 
ATOM     47  C   UNL     1       8.770   1.023  22.855  0.00  0.00    +0.174 C 
BRANCH  47  48
ATOM     48  O   UNL     1       7.363   0.749  22.842  0.00  0.00    -0.387 OA
ATOM     49  H   UNL     1       7.081   0.647  23.780  0.00  0.00    +0.210 HD
ENDBRANCH  47  48
BRANCH  46  50
ATOM     50  O   UNL     1       8.881   0.582  20.439  0.00  0.00    -0.386 OA
ATOM     51  H   UNL     1       8.458   1.458  20.510  0.00  0.00    +0.210 HD
ENDBRANCH  46  50
BRANCH  45  52
ATOM     52  O   UNL     1       8.068  -1.710  22.046  0.00  0.00    -0.384 OA
ATOM     53  H   UNL     1       8.038  -2.485  21.447  0.00  0.00    +0.210 HD
ENDBRANCH  45  52
ENDBRANCH  40  44
ENDBRANCH  39  40
ENDBRANCH   1  39
TORSDOF 16
ENDMDL
MODEL 3
REMARK VINA RESULT:      -7.3      2.615      4.262
REMARK  Name = 
REMARK  17 active torsions:
REMARK  status: ('A' for Active; 'I' for Inactive)
REMARK    1  A    between atoms: C_1  and  C_2
REMARK    2  A    between atoms: C_3  and  O_49
REMARK    3  A    between atoms: C_5  and  O_48
REMARK    4  A    between atoms: C_7  and  O_47
REMARK    5  A    between atoms: C_8  and  O_11
REMARK    6  A    between atoms: O_11  and  C_12
REMARK    7  A    between atoms: C_12  and  C_13
REMARK    8  A    between atoms: C_14  and  O_46
REMARK    9  A    between atoms: C_16  and  O_45
REMARK   10  A    between atoms: C_18  and  O_44
REMARK   11  A    between atoms: C_19  and  O_22
REMARK   12  A    between atoms: O_22  and  C_23
REMARK   13  A    between atoms: C_25  and  O_43
REMARK   14  A    between atoms: C_30  and  C_35
REMARK   15  A    between atoms: C_31  and  O_34
REMARK   16  A    between atoms: C_37  and  O_42
REMARK   17  A    between atoms: C_38  and  O_41
REMARK                            x       y       z     vdW  Elec       q    Type
REMARK                         _______ _______ _______ _____ _____    ______ ____
ROOT
ATOM      1  C   UNL     1       3.226  -5.284  24.076  0.00  0.00    +0.179 C 
ATOM      2  O   UNL     1       2.640  -4.372  25.023  0.00  0.00    -0.331 OA
ATOM      3  C   UNL     1       3.509  -3.975  26.106  0.00  0.00    +0.339 C 
ATOM      4  C   UNL     1       3.893  -5.238  26.917  0.00  0.00    +0.214 C 
ATOM      5  C   UNL     1       4.581  -6.241  25.971  0.00  0.00    +0.180 C 
ATOM      6  C   UNL     1       3.665  -6.578  24.788  0.00  0.00    +0.177 C 
ENDROOT
BRANCH   6   7
ATOM      7  O   UNL     1       4.342  -7.503  23.934  0.00  0.00    -0.386 OA
ATOM      8  H   UNL     1       5.290  -7.276  23.948  0.00  0.00    +0.210 HD
ENDBRANCH   6   7
BRANCH   5   9
ATOM      9  O   UNL     1       4.955  -7.448  26.643  0.00  0.00    -0.386 OA
ATOM     10  H   UNL     1       5.923  -7.385  26.789  0.00  0.00    +0.210 HD
ENDBRANCH   5   9
BRANCH   4  11
ATOM     11  O   UNL     1       2.717  -5.841  27.494  0.00  0.00    -0.383 OA
ATOM     12  H   UNL     1       2.758  -6.799  27.317  0.00  0.00    +0.210 HD
ENDBRANCH   4  11
BRANCH   3  13
ATOM     13  O   UNL     1       2.854  -3.026  26.976  0.00  0.00    -0.461 OA
BRANCH  13  14
ATOM     14  C   UNL     1       3.556  -1.901  27.341  0.00  0.00    +0.131 A 
ATOM     15  C   UNL     1       4.502  -1.424  26.419  0.00  0.00    +0.093 A 
ATOM     16  C   UNL     1       5.300  -0.306  26.718  0.00  0.00    +0.147 A 
ATOM     17  O   UNL     1       6.219   0.094  25.774  0.00  0.00    -0.451 OA
ATOM     18  C   UNL     1       6.980   1.240  26.008  0.00  0.00    +0.181 A 
ATOM     19  C   UNL     1       6.887   1.981  27.134  0.00  0.00    +0.208 A 
ATOM     20  C   UNL     1       6.005   1.506  28.236  0.00  0.00    +0.238 A 
ATOM     21  O   UNL     1       6.009   2.078  29.320  0.00  0.00    -0.283 OA
ATOM     22  C   UNL     1       5.148   0.346  27.943  0.00  0.00    +0.109 A 
ATOM     23  C   UNL     1       4.197  -0.124  28.858  0.00  0.00    +0.135 A 
ATOM     24  C   UNL     1       3.404  -1.228  28.551  0.00  0.00    +0.092 A 
BRANCH  18  25
ATOM     25  C   UNL     1       7.917   1.578  24.892  0.00  0.00    +0.025 A 
ATOM     26  C   UNL     1       9.218   1.027  24.830  0.00  0.00    +0.015 A 
ATOM     27  C   UNL     1      10.122   1.389  23.825  0.00  0.00    +0.050 A 
ATOM     28  C   UNL     1       9.709   2.257  22.830  0.00  0.00    +0.158 A 
ATOM     29  C   UNL     1       8.410   2.759  22.827  0.00  0.00    +0.159 A 
ATOM     30  C   UNL     1       7.519   2.440  23.856  0.00  0.00    +0.060 A 
BRANCH  29  31
ATOM     31  O   UNL     1       8.063   3.585  21.794  0.00  0.00    -0.503 OA
ATOM     32  H   UNL     1       8.358   3.175  20.962  0.00  0.00    +0.292 HD
ENDBRANCH  29  31
BRANCH  28  33
ATOM     33  O   UNL     1      10.585   2.600  21.842  0.00  0.00    -0.503 OA
ATOM     34  H   UNL     1      11.359   2.017  21.981  0.00  0.00    +0.292 HD
ENDBRANCH  28  33
ENDBRANCH  18  25
BRANCH  23  35
ATOM     35  O   UNL     1       4.008   0.489  30.060  0.00  0.00    -0.506 OA
ATOM     36  H   UNL     1       3.387  -0.011  30.613  0.00  0.00    +0.292 HD
ENDBRANCH  23  35
BRANCH  19  37
ATOM     37  O   UNL     1       7.551   3.174  27.363  0.00  0.00    -0.501 OA
ATOM     38  H   UNL     1       8.504   3.025  27.280  0.00  0.00    +0.292 HD
ENDBRANCH  19  37
ENDBRANCH  13  14
ENDBRANCH   3  13
BRANCH   1  39
ATOM     39  C   UNL     1       4.319  -4.599  23.229  0.00  0.00    +0.197 C 
BRANCH  39  40
ATOM     40  O   UNL     1       5.629  -4.974  23.655  0.00  0.00    -0.346 OA
BRANCH  40  44
ATOM     41  C   UNL     1       7.869  -1.472  22.416  0.00  0.00    +0.041 C 
ATOM     42  C   UNL     1       8.466  -2.812  22.845  0.00  0.00    +0.149 C 
ATOM     43  O   UNL     1       7.470  -3.845  22.773  0.00  0.00    -0.343 OA
ATOM     44  C   UNL     1       6.479  -3.821  23.801  0.00  0.00    +0.282 C 
ATOM     45  C   UNL     1       7.135  -3.901  25.193  0.00  0.00    +0.201 C 
ATOM     46  C   UNL     1       8.101  -2.716  25.348  0.00  0.00    +0.179 C 
ATOM     47  C   UNL     1       9.149  -2.739  24.224  0.00  0.00    +0.174 C 
BRANCH  47  48
ATOM     48  O   UNL     1      10.029  -3.859  24.394  0.00  0.00    -0.387 OA
ATOM     49  H   UNL     1      10.606  -3.894  23.597  0.00  0.00    +0.210 HD
ENDBRANCH  47  48
BRANCH  46  50
ATOM     50  O   UNL     1       8.709  -2.714  26.642  0.00  0.00    -0.386 OA
ATOM     51  H   UNL     1       8.892  -3.640  26.889  0.00  0.00    +0.210 HD
ENDBRANCH  46  50
BRANCH  45  52
ATOM     52  O   UNL     1       7.859  -5.152  25.289  0.00  0.00    -0.384 OA
ATOM     53  H   UNL     1       8.733  -4.908  25.658  0.00  0.00    +0.210 HD
ENDBRANCH  45  52
ENDBRANCH  40  44
ENDBRANCH  39  40
ENDBRANCH   1  39
TORSDOF 16
ENDMDL
MODEL 4
REMARK VINA RESULT:      -7.3      2.566      8.885
REMARK  Name = 
REMARK  17 active torsions:
REMARK  status: ('A' for Active; 'I' for Inactive)
REMARK    1  A    between atoms: C_1  and  C_2
REMARK    2  A    between atoms: C_3  and  O_49
REMARK    3  A    between atoms: C_5  and  O_48
REMARK    4  A    between atoms: C_7  and  O_47
REMARK    5  A    between atoms: C_8  and  O_11
REMARK    6  A    between atoms: O_11  and  C_12
REMARK    7  A    between atoms: C_12  and  C_13
REMARK    8  A    between atoms: C_14  and  O_46
REMARK    9  A    between atoms: C_16  and  O_45
REMARK   10  A    between atoms: C_18  and  O_44
REMARK   11  A    between atoms: C_19  and  O_22
REMARK   12  A    between atoms: O_22  and  C_23
REMARK   13  A    between atoms: C_25  and  O_43
REMARK   14  A    between atoms: C_30  and  C_35
REMARK   15  A    between atoms: C_31  and  O_34
REMARK   16  A    between atoms: C_37  and  O_42
REMARK   17  A    between atoms: C_38  and  O_41
REMARK                            x       y       z     vdW  Elec       q    Type
REMARK                         _______ _______ _______ _____ _____    ______ ____
ROOT
ATOM      1  C   UNL     1       7.911   4.588  23.282  0.00  0.00    +0.179 C 
ATOM      2  O   UNL     1       7.408   4.356  24.610  0.00  0.00    -0.331 OA
ATOM      3  C   UNL     1       6.002   4.034  24.683  0.00  0.00    +0.339 C 
ATOM      4  C   UNL     1       5.193   5.233  24.128  0.00  0.00    +0.214 C 
ATOM      5  C   UNL     1       5.643   5.504  22.679  0.00  0.00    +0.180 C 
ATOM      6  C   UNL     1       7.155   5.759  22.626  0.00  0.00    +0.177 C 
ENDROOT
BRANCH   6   7
ATOM      7  O   UNL     1       7.529   5.998  21.267  0.00  0.00    -0.386 OA
ATOM      8  H   UNL     1       8.500   5.921  21.212  0.00  0.00    +0.210 HD
ENDBRANCH   6   7
BRANCH   5   9
ATOM      9  O   UNL     1       4.951   6.613  22.097  0.00  0.00    -0.386 OA
ATOM     10  H   UNL     1       4.003   6.362  22.087  0.00  0.00    +0.210 HD
ENDBRANCH   5   9
BRANCH   4  11
ATOM     11  O   UNL     1       5.419   6.407  24.935  0.00  0.00    -0.383 OA
ATOM     12  H   UNL     1       6.165   6.216  25.534  0.00  0.00    +0.210 HD
ENDBRANCH   4  11
BRANCH   3  13
ATOM     13  O   UNL     1       5.599   3.771  26.045  0.00  0.00    -0.461 OA
BRANCH  13  14
ATOM     14  C   UNL     1       5.081   2.531  26.332  0.00  0.00    +0.131 A 
ATOM     15  C   UNL     1       5.890   1.425  26.023  0.00  0.00    +0.093 A 
ATOM     16  C   UNL     1       5.431   0.113  26.239  0.00  0.00    +0.147 A 
ATOM     17  O   UNL     1       6.272  -0.921  25.896  0.00  0.00    -0.451 OA
ATOM     18  C   UNL     1       5.878  -2.234  26.159  0.00  0.00    +0.181 A 
ATOM     19  C   UNL     1       4.691  -2.559  26.718  0.00  0.00    +0.208 A 
ATOM     20  C   UNL     1       3.699  -1.479  26.978  0.00  0.00    +0.238 A 
ATOM     21  O   UNL     1       2.565  -1.759  27.350  0.00  0.00    -0.283 OA
ATOM     22  C   UNL     1       4.159  -0.096  26.774  0.00  0.00    +0.109 A 
ATOM     23  C   UNL     1       3.357   1.007  27.092  0.00  0.00    +0.135 A 
ATOM     24  C   UNL     1       3.821   2.304  26.882  0.00  0.00    +0.092 A 
BRANCH  18  25
ATOM     25  C   UNL     1       6.893  -3.259  25.763  0.00  0.00    +0.025 A 
ATOM     26  C   UNL     1       7.981  -3.583  26.607  0.00  0.00    +0.015 A 
ATOM     27  C   UNL     1       8.969  -4.493  26.215  0.00  0.00    +0.050 A 
ATOM     28  C   UNL     1       8.843  -5.140  24.999  0.00  0.00    +0.158 A 
ATOM     29  C   UNL     1       7.744  -4.893  24.180  0.00  0.00    +0.159 A 
ATOM     30  C   UNL     1       6.779  -3.948  24.544  0.00  0.00    +0.060 A 
BRANCH  29  31
ATOM     31  O   UNL     1       7.669  -5.595  23.009  0.00  0.00    -0.503 OA
ATOM     32  H   UNL     1       7.759  -4.968  22.270  0.00  0.00    +0.292 HD
ENDBRANCH  29  31
BRANCH  28  33
ATOM     33  O   UNL     1       9.798  -6.037  24.621  0.00  0.00    -0.503 OA
ATOM     34  H   UNL     1       9.966  -5.841  23.677  0.00  0.00    +0.292 HD
ENDBRANCH  28  33
ENDBRANCH  18  25
BRANCH  23  35
ATOM     35  O   UNL     1       2.114   0.848  27.625  0.00  0.00    -0.506 OA
ATOM     36  H   UNL     1       1.725  -0.000  27.360  0.00  0.00    +0.292 HD
ENDBRANCH  23  35
BRANCH  19  37
ATOM     37  O   UNL     1       4.303  -3.838  27.083  0.00  0.00    -0.501 OA
ATOM     38  H   UNL     1       3.740  -4.207  26.387  0.00  0.00    +0.292 HD
ENDBRANCH  19  37
ENDBRANCH  13  14
ENDBRANCH   3  13
BRANCH   1  39
ATOM     39  C   UNL     1       7.950   3.287  22.452  0.00  0.00    +0.197 C 
BRANCH  39  40
ATOM     40  O   UNL     1       9.188   2.595  22.614  0.00  0.00    -0.346 OA
BRANCH  40  44
ATOM     41  C   UNL     1       9.543  -0.344  25.784  0.00  0.00    +0.041 C 
ATOM     42  C   UNL     1      10.249  -0.398  24.428  0.00  0.00    +0.149 C 
ATOM     43  O   UNL     1      10.249   0.902  23.817  0.00  0.00    -0.343 OA
ATOM     44  C   UNL     1       8.997   1.335  23.284  0.00  0.00    +0.282 C 
ATOM     45  C   UNL     1       8.472   0.330  22.241  0.00  0.00    +0.201 C 
ATOM     46  C   UNL     1       8.323  -1.043  22.915  0.00  0.00    +0.179 C 
ATOM     47  C   UNL     1       9.671  -1.489  23.506  0.00  0.00    +0.174 C 
BRANCH  47  48
ATOM     48  O   UNL     1      10.599  -1.779  22.451  0.00  0.00    -0.387 OA
ATOM     49  H   UNL     1      11.400  -2.167  22.872  0.00  0.00    +0.210 HD
ENDBRANCH  47  48
BRANCH  46  50
ATOM     50  O   UNL     1       7.796  -2.010  22.004  0.00  0.00    -0.386 OA
ATOM     51  H   UNL     1       8.261  -1.903  21.152  0.00  0.00    +0.210 HD
ENDBRANCH  46  50
BRANCH  45  52
ATOM     52  O   UNL     1       9.426   0.252  21.154  0.00  0.00    -0.384 OA
ATOM     53  H   UNL     1      10.070   0.968  21.334  0.00  0.00    +0.210 HD
ENDBRANCH  45  52
ENDBRANCH  40  44
ENDBRANCH  39  40
ENDBRANCH   1  39
TORSDOF 16
ENDMDL
MODEL 5
REMARK VINA RESULT:      -7.3      2.815      5.851
REMARK  Name = 
REMARK  17 active torsions:
REMARK  status: ('A' for Active; 'I' for Inactive)
REMARK    1  A    between atoms: C_1  and  C_2
REMARK    2  A    between atoms: C_3  and  O_49
REMARK    3  A    between atoms: C_5  and  O_48
REMARK    4  A    between atoms: C_7  and  O_47
REMARK    5  A    between atoms: C_8  and  O_11
REMARK    6  A    between atoms: O_11  and  C_12
REMARK    7  A    between atoms: C_12  and  C_13
REMARK    8  A    between atoms: C_14  and  O_46
REMARK    9  A    between atoms: C_16  and  O_45
REMARK   10  A    between atoms: C_18  and  O_44
REMARK   11  A    between atoms: C_19  and  O_22
REMARK   12  A    between atoms: O_22  and  C_23
REMARK   13  A    between atoms: C_25  and  O_43
REMARK   14  A    between atoms: C_30  and  C_35
REMARK   15  A    between atoms: C_31  and  O_34
REMARK   16  A    between atoms: C_37  and  O_42
REMARK   17  A    between atoms: C_38  and  O_41
REMARK                            x       y       z     vdW  Elec       q    Type
REMARK                         _______ _______ _______ _____ _____    ______ ____
ROOT
ATOM      1  C   UNL     1       8.269  -3.834  24.129  0.00  0.00    +0.179 C 
ATOM      2  O   UNL     1       6.936  -3.325  24.317  0.00  0.00    -0.331 OA
ATOM      3  C   UNL     1       6.598  -2.985  25.679  0.00  0.00    +0.339 C 
ATOM      4  C   UNL     1       6.686  -4.268  26.543  0.00  0.00    +0.214 C 
ATOM      5  C   UNL     1       8.113  -4.839  26.433  0.00  0.00    +0.180 C 
ATOM      6  C   UNL     1       8.471  -5.111  24.967  0.00  0.00    +0.177 C 
ENDROOT
BRANCH   6   7
ATOM      7  O   UNL     1       9.802  -5.632  24.911  0.00  0.00    -0.386 OA
ATOM      8  H   UNL     1      10.220  -5.462  25.775  0.00  0.00    +0.210 HD
ENDBRANCH   6   7
BRANCH   5   9
ATOM      9  O   UNL     1       8.274  -6.040  27.194  0.00  0.00    -0.386 OA
ATOM     10  H   UNL     1       7.369  -6.387  27.344  0.00  0.00    +0.210 HD
ENDBRANCH   5   9
BRANCH   4  11
ATOM     11  O   UNL     1       5.734  -5.248  26.084  0.00  0.00    -0.383 OA
ATOM     12  H   UNL     1       5.223  -4.847  25.356  0.00  0.00    +0.210 HD
ENDBRANCH   4  11
BRANCH   3  13
ATOM     13  O   UNL     1       5.263  -2.439  25.762  0.00  0.00    -0.461 OA
BRANCH  13  14
ATOM     14  C   UNL     1       5.121  -1.166  26.260  0.00  0.00    +0.131 A 
ATOM     15  C   UNL     1       5.434  -0.111  25.386  0.00  0.00    +0.093 A 
ATOM     16  C   UNL     1       5.362   1.226  25.816  0.00  0.00    +0.147 A 
ATOM     17  O   UNL     1       5.701   2.206  24.910  0.00  0.00    -0.451 OA
ATOM     18  C   UNL     1       5.576   3.546  25.279  0.00  0.00    +0.181 A 
ATOM     19  C   UNL     1       5.158   3.948  26.500  0.00  0.00    +0.208 A 
ATOM     20  C   UNL     1       4.913   2.920  27.550  0.00  0.00    +0.238 A 
ATOM     21  O   UNL     1       4.673   3.261  28.702  0.00  0.00    -0.283 OA
ATOM     22  C   UNL     1       4.967   1.513  27.123  0.00  0.00    +0.109 A 
ATOM     23  C   UNL     1       4.645   0.462  27.990  0.00  0.00    +0.135 A 
ATOM     24  C   UNL     1       4.712  -0.861  27.556  0.00  0.00    +0.092 A 
BRANCH  18  25
ATOM     25  C   UNL     1       5.950   4.506  24.195  0.00  0.00    +0.025 A 
ATOM     26  C   UNL     1       4.965   5.172  23.428  0.00  0.00    +0.015 A 
ATOM     27  C   UNL     1       5.309   6.022  22.371  0.00  0.00    +0.050 A 
ATOM     28  C   UNL     1       6.645   6.268  22.112  0.00  0.00    +0.158 A 
ATOM     29  C   UNL     1       7.634   5.682  22.898  0.00  0.00    +0.159 A 
ATOM     30  C   UNL     1       7.298   4.793  23.924  0.00  0.00    +0.060 A 
BRANCH  29  31
ATOM     31  O   UNL     1       8.932   5.999  22.605  0.00  0.00    -0.503 OA
ATOM     32  H   UNL     1       9.244   5.397  21.907  0.00  0.00    +0.292 HD
ENDBRANCH  29  31
BRANCH  28  33
ATOM     33  O   UNL     1       6.980   7.107  21.090  0.00  0.00    -0.503 OA
ATOM     34  H   UNL     1       7.887   7.407  21.301  0.00  0.00    +0.292 HD
ENDBRANCH  28  33
ENDBRANCH  18  25
BRANCH  23  35
ATOM     35  O   UNL     1       4.246   0.698  29.271  0.00  0.00    -0.506 OA
ATOM     36  H   UNL     1       4.901   1.230  29.749  0.00  0.00    +0.292 HD
ENDBRANCH  23  35
BRANCH  19  37
ATOM     37  O   UNL     1       4.929   5.262  26.874  0.00  0.00    -0.501 OA
ATOM     38  H   UNL     1       5.051   5.834  26.103  0.00  0.00    +0.292 HD
ENDBRANCH  19  37
ENDBRANCH  13  14
ENDBRANCH   3  13
BRANCH   1  39
ATOM     39  C   UNL     1       9.332  -2.736  24.341  0.00  0.00    +0.197 C 
BRANCH  39  40
ATOM     40  O   UNL     1       9.724  -2.135  23.107  0.00  0.00    -0.346 OA
BRANCH  40  44
ATOM     41  C   UNL     1       8.403   1.484  21.116  0.00  0.00    +0.041 C 
ATOM     42  C   UNL     1       9.691   1.326  21.923  0.00  0.00    +0.149 C 
ATOM     43  O   UNL     1      10.016  -0.066  22.069  0.00  0.00    -0.343 OA
ATOM     44  C   UNL     1       9.206  -0.797  22.991  0.00  0.00    +0.282 C 
ATOM     45  C   UNL     1       9.259  -0.156  24.392  0.00  0.00    +0.201 C 
ATOM     46  C   UNL     1       8.773   1.298  24.283  0.00  0.00    +0.179 C 
ATOM     47  C   UNL     1       9.638   2.069  23.271  0.00  0.00    +0.174 C 
BRANCH  47  48
ATOM     48  O   UNL     1      10.964   2.241  23.788  0.00  0.00    -0.387 OA
ATOM     49  H   UNL     1      11.548   2.439  23.020  0.00  0.00    +0.210 HD
ENDBRANCH  47  48
BRANCH  46  50
ATOM     50  O   UNL     1       8.759   1.933  25.564  0.00  0.00    -0.386 OA
ATOM     51  H   UNL     1       8.110   1.467  26.123  0.00  0.00    +0.210 HD
ENDBRANCH  46  50
BRANCH  45  52
ATOM     52  O   UNL     1      10.628  -0.191  24.863  0.00  0.00    -0.384 OA
ATOM     53  H   UNL     1      11.144  -0.542  24.108  0.00  0.00    +0.210 HD
ENDBRANCH  45  52
ENDBRANCH  40  44
ENDBRANCH  39  40
ENDBRANCH   1  39
TORSDOF 16
ENDMDL
MODEL 6
REMARK VINA RESULT:      -7.3      2.527      8.457
REMARK  Name = 
REMARK  17 active torsions:
REMARK  status: ('A' for Active; 'I' for Inactive)
REMARK    1  A    between atoms: C_1  and  C_2
REMARK    2  A    between atoms: C_3  and  O_49
REMARK    3  A    between atoms: C_5  and  O_48
REMARK    4  A    between atoms: C_7  and  O_47
REMARK    5  A    between atoms: C_8  and  O_11
REMARK    6  A    between atoms: O_11  and  C_12
REMARK    7  A    between atoms: C_12  and  C_13
REMARK    8  A    between atoms: C_14  and  O_46
REMARK    9  A    between atoms: C_16  and  O_45
REMARK   10  A    between atoms: C_18  and  O_44
REMARK   11  A    between atoms: C_19  and  O_22
REMARK   12  A    between atoms: O_22  and  C_23
REMARK   13  A    between atoms: C_25  and  O_43
REMARK   14  A    between atoms: C_30  and  C_35
REMARK   15  A    between atoms: C_31  and  O_34
REMARK   16  A    between atoms: C_37  and  O_42
REMARK   17  A    between atoms: C_38  and  O_41
REMARK                            x       y       z     vdW  Elec       q    Type
REMARK                         _______ _______ _______ _____ _____    ______ ____
ROOT
ATOM      1  C   UNL     1      10.058   0.832  23.668  0.00  0.00    +0.179 C 
ATOM      2  O   UNL     1       9.533   0.914  25.006  0.00  0.00    -0.331 OA
ATOM      3  C   UNL     1       8.118   1.186  25.091  0.00  0.00    +0.339 C 
ATOM      4  C   UNL     1       7.842   2.566  24.444  0.00  0.00    +0.214 C 
ATOM      5  C   UNL     1       8.330   2.532  22.983  0.00  0.00    +0.180 C 
ATOM      6  C   UNL     1       9.816   2.158  22.922  0.00  0.00    +0.177 C 
ENDROOT
BRANCH   6   7
ATOM      7  O   UNL     1      10.225   2.132  21.552  0.00  0.00    -0.386 OA
ATOM      8  H   UNL     1      11.194   2.020  21.537  0.00  0.00    +0.210 HD
ENDBRANCH   6   7
BRANCH   5   9
ATOM      9  O   UNL     1       8.125   3.781  22.315  0.00  0.00    -0.386 OA
ATOM     10  H   UNL     1       7.415   4.239  22.814  0.00  0.00    +0.210 HD
ENDBRANCH   5   9
BRANCH   4  11
ATOM     11  O   UNL     1       8.535   3.605  25.164  0.00  0.00    -0.383 OA
ATOM     12  H   UNL     1       8.787   4.294  24.522  0.00  0.00    +0.210 HD
ENDBRANCH   4  11
BRANCH   3  13
ATOM     13  O   UNL     1       7.674   1.202  26.466  0.00  0.00    -0.461 OA
BRANCH  13  14
ATOM     14  C   UNL     1       6.410   0.735  26.737  0.00  0.00    +0.131 A 
ATOM     15  C   UNL     1       6.092  -0.541  26.241  0.00  0.00    +0.093 A 
ATOM     16  C   UNL     1       4.811  -1.089  26.429  0.00  0.00    +0.147 A 
ATOM     17  O   UNL     1       4.566  -2.336  25.899  0.00  0.00    -0.451 OA
ATOM     18  C   UNL     1       3.328  -2.939  26.125  0.00  0.00    +0.181 A 
ATOM     19  C   UNL     1       2.328  -2.355  26.822  0.00  0.00    +0.208 A 
ATOM     20  C   UNL     1       2.505  -0.953  27.292  0.00  0.00    +0.238 A 
ATOM     21  O   UNL     1       1.566  -0.350  27.801  0.00  0.00    -0.283 OA
ATOM     22  C   UNL     1       3.842  -0.362  27.122  0.00  0.00    +0.109 A 
ATOM     23  C   UNL     1       4.162   0.905  27.625  0.00  0.00    +0.135 A 
ATOM     24  C   UNL     1       5.437   1.438  27.442  0.00  0.00    +0.092 A 
BRANCH  18  25
ATOM     25  C   UNL     1       3.204  -4.302  25.520  0.00  0.00    +0.025 A 
ATOM     26  C   UNL     1       3.702  -5.450  26.179  0.00  0.00    +0.015 A 
ATOM     27  C   UNL     1       3.646  -6.717  25.590  0.00  0.00    +0.050 A 
ATOM     28  C   UNL     1       3.029  -6.861  24.360  0.00  0.00    +0.158 A 
ATOM     29  C   UNL     1       2.465  -5.759  23.721  0.00  0.00    +0.159 A 
ATOM     30  C   UNL     1       2.562  -4.482  24.283  0.00  0.00    +0.060 A 
BRANCH  29  31
ATOM     31  O   UNL     1       1.842  -5.983  22.525  0.00  0.00    -0.503 OA
ATOM     32  H   UNL     1       2.523  -6.045  21.832  0.00  0.00    +0.292 HD
ENDBRANCH  29  31
BRANCH  28  33
ATOM     33  O   UNL     1       2.962  -8.099  23.791  0.00  0.00    -0.503 OA
ATOM     34  H   UNL     1       2.164  -8.070  23.224  0.00  0.00    +0.292 HD
ENDBRANCH  28  33
ENDBRANCH  18  25
BRANCH  23  35
ATOM     35  O   UNL     1       3.250   1.644  28.316  0.00  0.00    -0.506 OA
ATOM     36  H   UNL     1       3.640   2.474  28.633  0.00  0.00    +0.292 HD
ENDBRANCH  23  35
BRANCH  19  37
ATOM     37  O   UNL     1       1.124  -2.956  27.149  0.00  0.00    -0.501 OA
ATOM     38  H   UNL     1       0.971  -2.856  28.100  0.00  0.00    +0.292 HD
ENDBRANCH  19  37
ENDBRANCH  13  14
ENDBRANCH   3  13
BRANCH   1  39
ATOM     39  C   UNL     1       9.556  -0.431  22.936  0.00  0.00    +0.197 C 
BRANCH  39  40
ATOM     40  O   UNL     1      10.224  -1.606  23.394  0.00  0.00    -0.346 OA
BRANCH  40  44
ATOM     41  C   UNL     1       9.054  -4.440  26.463  0.00  0.00    +0.041 C 
ATOM     42  C   UNL     1       9.126  -4.723  24.962  0.00  0.00    +0.149 C 
ATOM     43  O   UNL     1       9.937  -3.733  24.309  0.00  0.00    -0.343 OA
ATOM     44  C   UNL     1       9.338  -2.445  24.159  0.00  0.00    +0.282 C 
ATOM     45  C   UNL     1       8.011  -2.548  23.382  0.00  0.00    +0.201 C 
ATOM     46  C   UNL     1       7.070  -3.493  24.145  0.00  0.00    +0.179 C 
ATOM     47  C   UNL     1       7.733  -4.869  24.321  0.00  0.00    +0.174 C 
BRANCH  47  48
ATOM     48  O   UNL     1       7.845  -5.527  23.052  0.00  0.00    -0.387 OA
ATOM     49  H   UNL     1       8.718  -5.982  23.040  0.00  0.00    +0.210 HD
ENDBRANCH  47  48
BRANCH  46  50
ATOM     50  O   UNL     1       5.802  -3.594  23.492  0.00  0.00    -0.386 OA
ATOM     51  H   UNL     1       5.827  -3.026  22.700  0.00  0.00    +0.210 HD
ENDBRANCH  46  50
BRANCH  45  52
ATOM     52  O   UNL     1       8.289  -3.076  22.063  0.00  0.00    -0.384 OA
ATOM     53  H   UNL     1       7.667  -2.607  21.469  0.00  0.00    +0.210 HD
ENDBRANCH  45  52
ENDBRANCH  40  44
ENDBRANCH  39  40
ENDBRANCH   1  39
TORSDOF 16
ENDMDL
MODEL 7
REMARK VINA RESULT:      -7.3      2.543      8.423
REMARK  Name = 
REMARK  17 active torsions:
REMARK  status: ('A' for Active; 'I' for Inactive)
REMARK    1  A    between atoms: C_1  and  C_2
REMARK    2  A    between atoms: C_3  and  O_49
REMARK    3  A    between atoms: C_5  and  O_48
REMARK    4  A    between atoms: C_7  and  O_47
REMARK    5  A    between atoms: C_8  and  O_11
REMARK    6  A    between atoms: O_11  and  C_12
REMARK    7  A    between atoms: C_12  and  C_13
REMARK    8  A    between atoms: C_14  and  O_46
REMARK    9  A    between atoms: C_16  and  O_45
REMARK   10  A    between atoms: C_18  and  O_44
REMARK   11  A    between atoms: C_19  and  O_22
REMARK   12  A    between atoms: O_22  and  C_23
REMARK   13  A    between atoms: C_25  and  O_43
REMARK   14  A    between atoms: C_30  and  C_35
REMARK   15  A    between atoms: C_31  and  O_34
REMARK   16  A    between atoms: C_37  and  O_42
REMARK   17  A    between atoms: C_38  and  O_41
REMARK                            x       y       z     vdW  Elec       q    Type
REMARK                         _______ _______ _______ _____ _____    ______ ____
ROOT
ATOM      1  C   UNL     1      10.042   0.802  23.763  0.00  0.00    +0.179 C 
ATOM      2  O   UNL     1       9.461   0.984  25.068  0.00  0.00    -0.331 OA
ATOM      3  C   UNL     1       8.027   1.151  25.080  0.00  0.00    +0.339 C 
ATOM      4  C   UNL     1       7.673   2.428  24.277  0.00  0.00    +0.214 C 
ATOM      5  C   UNL     1       8.219   2.276  22.844  0.00  0.00    +0.180 C 
ATOM      6  C   UNL     1       9.730   2.017  22.870  0.00  0.00    +0.177 C 
ENDROOT
BRANCH   6   7
ATOM      7  O   UNL     1      10.193   1.877  21.524  0.00  0.00    -0.386 OA
ATOM      8  H   UNL     1      11.168   1.885  21.547  0.00  0.00    +0.210 HD
ENDBRANCH   6   7
BRANCH   5   9
ATOM      9  O   UNL     1       7.946   3.426  22.037  0.00  0.00    -0.386 OA
ATOM     10  H   UNL     1       8.590   3.396  21.298  0.00  0.00    +0.210 HD
ENDBRANCH   5   9
BRANCH   4  11
ATOM     11  O   UNL     1       8.257   3.589  24.899  0.00  0.00    -0.383 OA
ATOM     12  H   UNL     1       9.015   3.290  25.435  0.00  0.00    +0.210 HD
ENDBRANCH   4  11
BRANCH   3  13
ATOM     13  O   UNL     1       7.530   1.279  26.430  0.00  0.00    -0.461 OA
BRANCH  13  14
ATOM     14  C   UNL     1       6.289   0.758  26.708  0.00  0.00    +0.131 A 
ATOM     15  C   UNL     1       6.003  -0.507  26.168  0.00  0.00    +0.093 A 
ATOM     16  C   UNL     1       4.745  -1.105  26.360  0.00  0.00    +0.147 A 
ATOM     17  O   UNL     1       4.530  -2.338  25.785  0.00  0.00    -0.451 OA
ATOM     18  C   UNL     1       3.318  -2.991  26.012  0.00  0.00    +0.181 A 
ATOM     19  C   UNL     1       2.315  -2.470  26.753  0.00  0.00    +0.208 A 
ATOM     20  C   UNL     1       2.456  -1.083  27.277  0.00  0.00    +0.238 A 
ATOM     21  O   UNL     1       1.509  -0.533  27.829  0.00  0.00    -0.283 OA
ATOM     22  C   UNL     1       3.768  -0.440  27.102  0.00  0.00    +0.109 A 
ATOM     23  C   UNL     1       4.057   0.816  27.650  0.00  0.00    +0.135 A 
ATOM     24  C   UNL     1       5.309   1.399  27.462  0.00  0.00    +0.092 A 
BRANCH  18  25
ATOM     25  C   UNL     1       3.225  -4.332  25.355  0.00  0.00    +0.025 A 
ATOM     26  C   UNL     1       3.255  -4.467  23.947  0.00  0.00    +0.015 A 
ATOM     27  C   UNL     1       3.104  -5.712  23.326  0.00  0.00    +0.050 A 
ATOM     28  C   UNL     1       2.989  -6.845  24.109  0.00  0.00    +0.158 A 
ATOM     29  C   UNL     1       3.028  -6.750  25.498  0.00  0.00    +0.159 A 
ATOM     30  C   UNL     1       3.129  -5.504  26.125  0.00  0.00    +0.060 A 
BRANCH  29  31
ATOM     31  O   UNL     1       2.943  -7.916  26.206  0.00  0.00    -0.503 OA
ATOM     32  H   UNL     1       2.042  -8.270  26.105  0.00  0.00    +0.292 HD
ENDBRANCH  29  31
BRANCH  28  33
ATOM     33  O   UNL     1       2.855  -8.061  23.504  0.00  0.00    -0.503 OA
ATOM     34  H   UNL     1       1.891  -8.170  23.374  0.00  0.00    +0.292 HD
ENDBRANCH  28  33
ENDBRANCH  18  25
BRANCH  23  35
ATOM     35  O   UNL     1       3.137   1.495  28.390  0.00  0.00    -0.506 OA
ATOM     36  H   UNL     1       3.560   2.179  28.932  0.00  0.00    +0.292 HD
ENDBRANCH  23  35
BRANCH  19  37
ATOM     37  O   UNL     1       1.140  -3.124  27.081  0.00  0.00    -0.501 OA
ATOM     38  H   UNL     1       0.463  -2.467  27.299  0.00  0.00    +0.292 HD
ENDBRANCH  19  37
ENDBRANCH  13  14
ENDBRANCH   3  13
BRANCH   1  39
ATOM     39  C   UNL     1       9.666  -0.568  23.160  0.00  0.00    +0.197 C 
BRANCH  39  40
ATOM     40  O   UNL     1      10.021  -1.643  24.030  0.00  0.00    -0.346 OA
BRANCH  40  44
ATOM     41  C   UNL     1       6.938  -4.039  22.141  0.00  0.00    +0.041 C 
ATOM     42  C   UNL     1       6.897  -3.488  23.567  0.00  0.00    +0.149 C 
ATOM     43  O   UNL     1       7.844  -2.416  23.711  0.00  0.00    -0.343 OA
ATOM     44  C   UNL     1       9.216  -2.808  23.774  0.00  0.00    +0.282 C 
ATOM     45  C   UNL     1       9.448  -3.797  24.934  0.00  0.00    +0.201 C 
ATOM     46  C   UNL     1       8.548  -5.023  24.719  0.00  0.00    +0.179 C 
ATOM     47  C   UNL     1       7.076  -4.587  24.630  0.00  0.00    +0.174 C 
BRANCH  47  48
ATOM     48  O   UNL     1       6.626  -4.112  25.906  0.00  0.00    -0.387 OA
ATOM     49  H   UNL     1       7.387  -4.190  26.526  0.00  0.00    +0.210 HD
ENDBRANCH  47  48
BRANCH  46  50
ATOM     50  O   UNL     1       8.753  -5.998  25.745  0.00  0.00    -0.386 OA
ATOM     51  H   UNL     1       9.015  -5.526  26.558  0.00  0.00    +0.210 HD
ENDBRANCH  46  50
BRANCH  45  52
ATOM     52  O   UNL     1       9.107  -3.137  26.176  0.00  0.00    -0.384 OA
ATOM     53  H   UNL     1       8.570  -3.791  26.668  0.00  0.00    +0.210 HD
ENDBRANCH  45  52
ENDBRANCH  40  44
ENDBRANCH  39  40
ENDBRANCH   1  39
TORSDOF 16
ENDMDL
MODEL 8
REMARK VINA RESULT:      -7.2      2.512      9.131
REMARK  Name = 
REMARK  17 active torsions:
REMARK  status: ('A' for Active; 'I' for Inactive)
REMARK    1  A    between atoms: C_1  and  C_2
REMARK    2  A    between atoms: C_3  and  O_49
REMARK    3  A    between atoms: C_5  and  O_48
REMARK    4  A    between atoms: C_7  and  O_47
REMARK    5  A    between atoms: C_8  and  O_11
REMARK    6  A    between atoms: O_11  and  C_12
REMARK    7  A    between atoms: C_12  and  C_13
REMARK    8  A    between atoms: C_14  and  O_46
REMARK    9  A    between atoms: C_16  and  O_45
REMARK   10  A    between atoms: C_18  and  O_44
REMARK   11  A    between atoms: C_19  and  O_22
REMARK   12  A    between atoms: O_22  and  C_23
REMARK   13  A    between atoms: C_25  and  O_43
REMARK   14  A    between atoms: C_30  and  C_35
REMARK   15  A    between atoms: C_31  and  O_34
REMARK   16  A    between atoms: C_37  and  O_42
REMARK   17  A    between atoms: C_38  and  O_41
REMARK                            x       y       z     vdW  Elec       q    Type
REMARK                         _______ _______ _______ _____ _____    ______ ____
ROOT
ATOM      1  C   UNL     1       6.567   4.130  23.293  0.00  0.00    +0.179 C 
ATOM      2  O   UNL     1       6.445   2.863  22.621  0.00  0.00    -0.331 OA
ATOM      3  C   UNL     1       7.332   1.830  23.099  0.00  0.00    +0.339 C 
ATOM      4  C   UNL     1       8.793   2.290  22.869  0.00  0.00    +0.214 C 
ATOM      5  C   UNL     1       9.014   3.622  23.613  0.00  0.00    +0.180 C 
ATOM      6  C   UNL     1       8.001   4.673  23.142  0.00  0.00    +0.177 C 
ENDROOT
BRANCH   6   7
ATOM      7  O   UNL     1       8.236   5.887  23.859  0.00  0.00    -0.386 OA
ATOM      8  H   UNL     1       7.511   5.993  24.502  0.00  0.00    +0.210 HD
ENDBRANCH   6   7
BRANCH   5   9
ATOM      9  O   UNL     1      10.341   4.126  23.437  0.00  0.00    -0.386 OA
ATOM     10  H   UNL     1      10.762   3.546  22.767  0.00  0.00    +0.210 HD
ENDBRANCH   5   9
BRANCH   4  11
ATOM     11  O   UNL     1       9.046   2.471  21.462  0.00  0.00    -0.383 OA
ATOM     12  H   UNL     1       8.992   1.596  21.036  0.00  0.00    +0.210 HD
ENDBRANCH   4  11
BRANCH   3  13
ATOM     13  O   UNL     1       7.104   0.585  22.402  0.00  0.00    -0.461 OA
BRANCH  13  14
ATOM     14  C   UNL     1       7.621  -0.563  22.954  0.00  0.00    +0.131 A 
ATOM     15  C   UNL     1       6.789  -1.262  23.844  0.00  0.00    +0.093 A 
ATOM     16  C   UNL     1       7.243  -2.424  24.493  0.00  0.00    +0.147 A 
ATOM     17  O   UNL     1       6.378  -3.046  25.365  0.00  0.00    -0.451 OA
ATOM     18  C   UNL     1       6.770  -4.239  25.975  0.00  0.00    +0.181 A 
ATOM     19  C   UNL     1       7.975  -4.818  25.777  0.00  0.00    +0.208 A 
ATOM     20  C   UNL     1       8.987  -4.106  24.949  0.00  0.00    +0.238 A 
ATOM     21  O   UNL     1      10.132  -4.537  24.869  0.00  0.00    -0.283 OA
ATOM     22  C   UNL     1       8.533  -2.896  24.246  0.00  0.00    +0.109 A 
ATOM     23  C   UNL     1       9.358  -2.204  23.351  0.00  0.00    +0.135 A 
ATOM     24  C   UNL     1       8.899  -1.057  22.706  0.00  0.00    +0.092 A 
BRANCH  18  25
ATOM     25  C   UNL     1       5.729  -4.824  26.876  0.00  0.00    +0.025 A 
ATOM     26  C   UNL     1       5.510  -4.316  28.177  0.00  0.00    +0.015 A 
ATOM     27  C   UNL     1       4.583  -4.900  29.047  0.00  0.00    +0.050 A 
ATOM     28  C   UNL     1       3.815  -5.960  28.599  0.00  0.00    +0.158 A 
ATOM     29  C   UNL     1       3.958  -6.434  27.298  0.00  0.00    +0.159 A 
ATOM     30  C   UNL     1       4.919  -5.887  26.441  0.00  0.00    +0.060 A 
BRANCH  29  31
ATOM     31  O   UNL     1       3.142  -7.461  26.915  0.00  0.00    -0.503 OA
ATOM     32  H   UNL     1       2.316  -7.082  26.565  0.00  0.00    +0.292 HD
ENDBRANCH  29  31
BRANCH  28  33
ATOM     33  O   UNL     1       2.901  -6.522  29.443  0.00  0.00    -0.503 OA
ATOM     34  H   UNL     1       3.434  -7.041  30.078  0.00  0.00    +0.292 HD
ENDBRANCH  28  33
ENDBRANCH  18  25
BRANCH  23  35
ATOM     35  O   UNL     1      10.621  -2.636  23.074  0.00  0.00    -0.506 OA
ATOM     36  H   UNL     1      11.203  -2.530  23.843  0.00  0.00    +0.292 HD
ENDBRANCH  23  35
BRANCH  19  37
ATOM     37  O   UNL     1       8.364  -6.047  26.285  0.00  0.00    -0.501 OA
ATOM     38  H   UNL     1       7.731  -6.322  26.964  0.00  0.00    +0.292 HD
ENDBRANCH  19  37
ENDBRANCH  13  14
ENDBRANCH   3  13
BRANCH   1  39
ATOM     39  C   UNL     1       6.044   4.058  24.743  0.00  0.00    +0.197 C 
BRANCH  39  40
ATOM     40  O   UNL     1       7.073   3.680  25.657  0.00  0.00    -0.346 OA
BRANCH  40  44
ATOM     41  C   UNL     1       5.575   3.101  29.687  0.00  0.00    +0.041 C 
ATOM     42  C   UNL     1       6.918   2.606  29.150  0.00  0.00    +0.149 C 
ATOM     43  O   UNL     1       7.268   3.321  27.954  0.00  0.00    -0.343 OA
ATOM     44  C   UNL     1       6.533   2.963  26.783  0.00  0.00    +0.282 C 
ATOM     45  C   UNL     1       6.677   1.458  26.487  0.00  0.00    +0.201 C 
ATOM     46  C   UNL     1       6.168   0.669  27.704  0.00  0.00    +0.179 C 
ATOM     47  C   UNL     1       6.951   1.078  28.962  0.00  0.00    +0.174 C 
BRANCH  47  48
ATOM     48  O   UNL     1       8.309   0.626  28.866  0.00  0.00    -0.387 OA
ATOM     49  H   UNL     1       8.802   1.038  29.612  0.00  0.00    +0.210 HD
ENDBRANCH  47  48
BRANCH  46  50
ATOM     50  O   UNL     1       6.237  -0.740  27.469  0.00  0.00    -0.386 OA
ATOM     51  H   UNL     1       7.124  -1.045  27.737  0.00  0.00    +0.210 HD
ENDBRANCH  46  50
BRANCH  45  52
ATOM     52  O   UNL     1       8.076   1.166  26.251  0.00  0.00    -0.384 OA
ATOM     53  H   UNL     1       8.279   0.415  26.845  0.00  0.00    +0.210 HD
ENDBRANCH  45  52
ENDBRANCH  40  44
ENDBRANCH  39  40
ENDBRANCH   1  39
TORSDOF 16
ENDMDL
MODEL 9
REMARK VINA RESULT:      -7.2      2.205      4.553
REMARK  Name = 
REMARK  17 active torsions:
REMARK  status: ('A' for Active; 'I' for Inactive)
REMARK    1  A    between atoms: C_1  and  C_2
REMARK    2  A    between atoms: C_3  and  O_49
REMARK    3  A    between atoms: C_5  and  O_48
REMARK    4  A    between atoms: C_7  and  O_47
REMARK    5  A    between atoms: C_8  and  O_11
REMARK    6  A    between atoms: O_11  and  C_12
REMARK    7  A    between atoms: C_12  and  C_13
REMARK    8  A    between atoms: C_14  and  O_46
REMARK    9  A    between atoms: C_16  and  O_45
REMARK   10  A    between atoms: C_18  and  O_44
REMARK   11  A    between atoms: C_19  and  O_22
REMARK   12  A    between atoms: O_22  and  C_23
REMARK   13  A    between atoms: C_25  and  O_43
REMARK   14  A    between atoms: C_30  and  C_35
REMARK   15  A    between atoms: C_31  and  O_34
REMARK   16  A    between atoms: C_37  and  O_42
REMARK   17  A    between atoms: C_38  and  O_41
REMARK                            x       y       z     vdW  Elec       q    Type
REMARK                         _______ _______ _______ _____ _____    ______ ____
ROOT
ATOM      1  C   UNL     1       4.347  -4.776  25.523  0.00  0.00    +0.179 C 
ATOM      2  O   UNL     1       5.281  -4.384  24.500  0.00  0.00    -0.331 OA
ATOM      3  C   UNL     1       4.786  -4.492  23.148  0.00  0.00    +0.339 C 
ATOM      4  C   UNL     1       4.447  -5.977  22.865  0.00  0.00    +0.214 C 
ATOM      5  C   UNL     1       3.403  -6.450  23.895  0.00  0.00    +0.180 C 
ATOM      6  C   UNL     1       3.926  -6.244  25.322  0.00  0.00    +0.177 C 
ENDROOT
BRANCH   6   7
ATOM      7  O   UNL     1       2.927  -6.688  26.244  0.00  0.00    -0.386 OA
ATOM      8  H   UNL     1       3.174  -7.586  26.534  0.00  0.00    +0.210 HD
ENDBRANCH   6   7
BRANCH   5   9
ATOM      9  O   UNL     1       3.047  -7.824  23.712  0.00  0.00    -0.386 OA
ATOM     10  H   UNL     1       2.066  -7.849  23.708  0.00  0.00    +0.210 HD
ENDBRANCH   5   9
BRANCH   4  11
ATOM     11  O   UNL     1       5.634  -6.790  22.967  0.00  0.00    -0.383 OA
ATOM     12  H   UNL     1       6.359  -6.219  23.280  0.00  0.00    +0.210 HD
ENDBRANCH   4  11
BRANCH   3  13
ATOM     13  O   UNL     1       5.771  -4.034  22.196  0.00  0.00    -0.461 OA
BRANCH  13  14
ATOM     14  C   UNL     1       6.724  -3.147  22.636  0.00  0.00    +0.131 A 
ATOM     15  C   UNL     1       6.371  -1.787  22.625  0.00  0.00    +0.093 A 
ATOM     16  C   UNL     1       7.292  -0.799  23.016  0.00  0.00    +0.147 A 
ATOM     17  O   UNL     1       6.881   0.514  22.962  0.00  0.00    -0.451 OA
ATOM     18  C   UNL     1       7.745   1.515  23.407  0.00  0.00    +0.181 A 
ATOM     19  C   UNL     1       8.990   1.274  23.873  0.00  0.00    +0.208 A 
ATOM     20  C   UNL     1       9.521  -0.116  23.820  0.00  0.00    +0.238 A 
ATOM     21  O   UNL     1      10.692  -0.341  24.102  0.00  0.00    -0.283 OA
ATOM     22  C   UNL     1       8.572  -1.171  23.429  0.00  0.00    +0.109 A 
ATOM     23  C   UNL     1       8.921  -2.527  23.450  0.00  0.00    +0.135 A 
ATOM     24  C   UNL     1       8.000  -3.501  23.068  0.00  0.00    +0.092 A 
BRANCH  18  25
ATOM     25  C   UNL     1       7.166   2.892  23.320  0.00  0.00    +0.025 A 
ATOM     26  C   UNL     1       6.144   3.319  24.199  0.00  0.00    +0.015 A 
ATOM     27  C   UNL     1       5.554   4.582  24.081  0.00  0.00    +0.050 A 
ATOM     28  C   UNL     1       6.028   5.459  23.123  0.00  0.00    +0.158 A 
ATOM     29  C   UNL     1       7.082   5.091  22.290  0.00  0.00    +0.159 A 
ATOM     30  C   UNL     1       7.642   3.812  22.371  0.00  0.00    +0.060 A 
BRANCH  29  31
ATOM     31  O   UNL     1       7.520   6.022  21.390  0.00  0.00    -0.503 OA
ATOM     32  H   UNL     1       6.937   6.799  21.445  0.00  0.00    +0.292 HD
ENDBRANCH  29  31
BRANCH  28  33
ATOM     33  O   UNL     1       5.462   6.696  23.015  0.00  0.00    -0.503 OA
ATOM     34  H   UNL     1       4.983   6.678  22.162  0.00  0.00    +0.292 HD
ENDBRANCH  28  33
ENDBRANCH  18  25
BRANCH  23  35
ATOM     35  O   UNL     1      10.156  -2.935  23.855  0.00  0.00    -0.506 OA
ATOM     36  H   UNL     1      10.159  -3.881  24.069  0.00  0.00    +0.292 HD
ENDBRANCH  23  35
BRANCH  19  37
ATOM     37  O   UNL     1       9.840   2.226  24.412  0.00  0.00    -0.501 OA
ATOM     38  H   UNL     1      10.212   2.759  23.695  0.00  0.00    +0.292 HD
ENDBRANCH  19  37
ENDBRANCH  13  14
ENDBRANCH   3  13
BRANCH   1  39
ATOM     39  C   UNL     1       3.182  -3.771  25.645  0.00  0.00    +0.197 C 
BRANCH  39  40
ATOM     40  O   UNL     1       3.616  -2.430  25.419  0.00  0.00    -0.346 OA
BRANCH  40  44
ATOM     41  C   UNL     1       3.927  -1.342  29.606  0.00  0.00    +0.041 C 
ATOM     42  C   UNL     1       3.688  -0.377  28.445  0.00  0.00    +0.149 C 
ATOM     43  O   UNL     1       3.222  -1.095  27.291  0.00  0.00    -0.343 OA
ATOM     44  C   UNL     1       4.208  -1.867  26.604  0.00  0.00    +0.282 C 
ATOM     45  C   UNL     1       5.384  -0.977  26.157  0.00  0.00    +0.201 C 
ATOM     46  C   UNL     1       5.993  -0.310  27.400  0.00  0.00    +0.179 C 
ATOM     47  C   UNL     1       4.918   0.500  28.144  0.00  0.00    +0.174 C 
BRANCH  47  48
ATOM     48  O   UNL     1       4.530   1.637  27.361  0.00  0.00    -0.387 OA
ATOM     49  H   UNL     1       3.587   1.825  27.578  0.00  0.00    +0.210 HD
ENDBRANCH  47  48
BRANCH  46  50
ATOM     50  O   UNL     1       7.120   0.497  27.050  0.00  0.00    -0.386 OA
ATOM     51  H   UNL     1       7.192   0.507  26.078  0.00  0.00    +0.210 HD
ENDBRANCH  46  50
BRANCH  45  52
ATOM     52  O   UNL     1       4.880   0.029  25.246  0.00  0.00    -0.384 OA
ATOM     53  H   UNL     1       4.269   0.572  25.786  0.00  0.00    +0.210 HD
ENDBRANCH  45  52
ENDBRANCH  40  44
ENDBRANCH  39  40
ENDBRANCH   1  39
TORSDOF 16
ENDMDL
