MODEL 1
REMARK VINA RESULT:      -6.7      0.000      0.000
REMARK  Name = 
REMARK  14 active torsions:
REMARK  status: ('A' for Active; 'I' for Inactive)
REMARK    1  A    between atoms: C_3  and  O_40
REMARK    2  A    between atoms: C_4  and  O_35
REMARK    3  A    between atoms: C_6  and  C_7
REMARK    4  A    between atoms: C_8  and  O_20
REMARK    5  A    between atoms: C_12  and  O_19
REMARK    6  A    between atoms: C_14  and  O_18
REMARK    7  A    between atoms: O_20  and  C_21
REMARK    8  A    between atoms: C_23  and  O_34
REMARK    9  A    between atoms: C_24  and  O_33
REMARK   10  A    between atoms: C_26  and  O_32
REMARK   11  A    between atoms: C_28  and  C_30
REMARK   12  A    between atoms: C_30  and  O_31
REMARK   13  A    between atoms: O_35  and  S_36
REMARK   14  A    between atoms: S_36  and  O_39
REMARK                            x       y       z     vdW  Elec       q    Type
REMARK                         _______ _______ _______ _____ _____    ______ ____
ROOT
ATOM      1  C   UNL     1       9.776   1.748  23.766  0.00  0.00    +0.181 A 
ATOM      2  O   UNL     1      10.882   2.349  23.207  0.00  0.00    -0.451 OA
ATOM      3  C   UNL     1      11.135   3.663  23.455  0.00  0.00    +0.147 A 
ATOM      4  C   UNL     1      10.256   4.473  24.160  0.00  0.00    +0.109 A 
ATOM      5  C   UNL     1      10.600   5.828  24.305  0.00  0.00    +0.135 A 
ATOM      6  C   UNL     1      11.817   6.328  23.811  0.00  0.00    +0.091 A 
ATOM      7  C   UNL     1      12.689   5.478  23.142  0.00  0.00    +0.124 A 
ATOM      8  C   UNL     1       9.031   3.835  24.732  0.00  0.00    +0.238 A 
ATOM      9  O   UNL     1       8.201   4.516  25.328  0.00  0.00    -0.283 OA
ATOM     10  C   UNL     1      12.344   4.150  22.947  0.00  0.00    +0.092 A 
ATOM     11  C   UNL     1       8.869   2.340  24.561  0.00  0.00    +0.214 A 
ENDROOT
BRANCH   1  13
ATOM     12  C   UNL     1       9.403   0.017  22.119  0.00  0.00    +0.015 A 
ATOM     13  C   UNL     1       9.789   0.318  23.433  0.00  0.00    +0.025 A 
ATOM     14  C   UNL     1       9.854  -0.694  24.403  0.00  0.00    +0.064 A 
ATOM     15  C   UNL     1       9.423  -1.983  24.064  0.00  0.00    +0.201 A 
ATOM     16  C   UNL     1       8.900  -2.226  22.790  0.00  0.00    +0.161 A 
ATOM     17  C   UNL     1       8.933  -1.252  21.800  0.00  0.00    +0.050 A 
BRANCH  16  18
ATOM     18  O   UNL     1       8.297  -3.426  22.533  0.00  0.00    -0.503 OA
ATOM     19  H   UNL     1       8.922  -3.971  22.022  0.00  0.00    +0.292 HD
ENDBRANCH  16  18
BRANCH  15  20
ATOM     20  O   UNL     1       9.333  -3.002  24.976  0.00  0.00    -0.321 OA
BRANCH  20  21
ATOM     21  S   UNL     1       8.026  -3.130  25.934  0.00  0.00    +0.251 S 
ATOM     22  O   UNL     1       6.938  -3.687  25.159  0.00  0.00    -0.108 OA
ATOM     23  O   UNL     1       7.862  -1.915  26.703  0.00  0.00    -0.108 OA
BRANCH  21  24
ATOM     24  O   UNL     1       8.479  -4.247  27.008  0.00  0.00    -0.222 OA
ATOM     25  H   UNL     1       7.833  -4.982  26.966  0.00  0.00    +0.248 HD
ENDBRANCH  21  24
ENDBRANCH  20  21
ENDBRANCH  15  20
ENDBRANCH   1  13
BRANCH   5  26
ATOM     26  O   UNL     1       9.797   6.743  24.929  0.00  0.00    -0.506 OA
ATOM     27  H   UNL     1      10.115   6.870  25.846  0.00  0.00    +0.292 HD
ENDBRANCH   5  26
BRANCH   7  28
ATOM     28  O   UNL     1      13.884   5.886  22.654  0.00  0.00    -0.507 OA
ATOM     29  H   UNL     1      14.035   5.427  21.793  0.00  0.00    +0.292 HD
ENDBRANCH   7  28
BRANCH  11  30
ATOM     30  O   UNL     1       7.725   1.648  24.928  0.00  0.00    -0.453 OA
BRANCH  30  31
ATOM     31  C   UNL     1       6.589   1.488  24.052  0.00  0.00    +0.340 C 
ATOM     32  O   UNL     1       5.822   2.712  24.003  0.00  0.00    -0.331 OA
ATOM     33  C   UNL     1       4.874   3.020  25.067  0.00  0.00    +0.179 C 
ATOM     34  C   UNL     1       4.467   1.913  26.103  0.00  0.00    +0.177 C 
ATOM     35  C   UNL     1       5.344   0.663  26.046  0.00  0.00    +0.180 C 
ATOM     36  C   UNL     1       5.659   0.381  24.564  0.00  0.00    +0.214 C 
BRANCH  34  37
ATOM     37  O   UNL     1       3.103   1.495  25.925  0.00  0.00    -0.386 OA
ATOM     38  H   UNL     1       2.798   1.805  25.050  0.00  0.00    +0.210 HD
ENDBRANCH  34  37
BRANCH  35  39
ATOM     39  O   UNL     1       6.480   0.845  26.898  0.00  0.00    -0.386 OA
ATOM     40  H   UNL     1       7.291   0.708  26.367  0.00  0.00    +0.210 HD
ENDBRANCH  35  39
BRANCH  36  41
ATOM     41  O   UNL     1       6.129  -0.943  24.343  0.00  0.00    -0.383 OA
ATOM     42  H   UNL     1       5.751  -1.546  25.013  0.00  0.00    +0.210 HD
ENDBRANCH  36  41
BRANCH  33  43
ATOM     43  C   UNL     1       3.608   3.605  24.384  0.00  0.00    +0.190 C 
BRANCH  43  44
ATOM     44  O   UNL     1       3.092   2.743  23.368  0.00  0.00    -0.392 OA
ATOM     45  H   UNL     1       3.031   1.854  23.760  0.00  0.00    +0.210 HD
ENDBRANCH  43  44
ENDBRANCH  33  43
ENDBRANCH  30  31
ENDBRANCH  11  30
TORSDOF 14
ENDMDL
MODEL 2
REMARK VINA RESULT:      -6.5      3.730      5.889
REMARK  Name = 
REMARK  14 active torsions:
REMARK  status: ('A' for Active; 'I' for Inactive)
REMARK    1  A    between atoms: C_3  and  O_40
REMARK    2  A    between atoms: C_4  and  O_35
REMARK    3  A    between atoms: C_6  and  C_7
REMARK    4  A    between atoms: C_8  and  O_20
REMARK    5  A    between atoms: C_12  and  O_19
REMARK    6  A    between atoms: C_14  and  O_18
REMARK    7  A    between atoms: O_20  and  C_21
REMARK    8  A    between atoms: C_23  and  O_34
REMARK    9  A    between atoms: C_24  and  O_33
REMARK   10  A    between atoms: C_26  and  O_32
REMARK   11  A    between atoms: C_28  and  C_30
REMARK   12  A    between atoms: C_30  and  O_31
REMARK   13  A    between atoms: O_35  and  S_36
REMARK   14  A    between atoms: S_36  and  O_39
REMARK                            x       y       z     vdW  Elec       q    Type
REMARK                         _______ _______ _______ _____ _____    ______ ____
ROOT
ATOM      1  C   UNL     1       6.603  -1.836  23.970  0.00  0.00    +0.181 A 
ATOM      2  O   UNL     1       7.396  -1.238  23.015  0.00  0.00    -0.451 OA
ATOM      3  C   UNL     1       7.810   0.046  23.189  0.00  0.00    +0.147 A 
ATOM      4  C   UNL     1       7.370   0.838  24.240  0.00  0.00    +0.109 A 
ATOM      5  C   UNL     1       7.824   2.167  24.285  0.00  0.00    +0.135 A 
ATOM      6  C   UNL     1       8.739   2.656  23.336  0.00  0.00    +0.091 A 
ATOM      7  C   UNL     1       9.186   1.822  22.318  0.00  0.00    +0.124 A 
ATOM      8  C   UNL     1       6.473   0.207  25.257  0.00  0.00    +0.238 A 
ATOM      9  O   UNL     1       6.022   0.875  26.183  0.00  0.00    -0.283 OA
ATOM     10  C   UNL     1       8.711   0.524  22.231  0.00  0.00    +0.092 A 
ATOM     11  C   UNL     1       6.163  -1.267  25.105  0.00  0.00    +0.214 A 
ENDROOT
BRANCH   1  13
ATOM     12  C   UNL     1       7.474  -3.859  22.971  0.00  0.00    +0.015 A 
ATOM     13  C   UNL     1       6.385  -3.240  23.600  0.00  0.00    +0.025 A 
ATOM     14  C   UNL     1       5.114  -3.835  23.564  0.00  0.00    +0.064 A 
ATOM     15  C   UNL     1       4.932  -4.993  22.799  0.00  0.00    +0.201 A 
ATOM     16  C   UNL     1       5.999  -5.509  22.057  0.00  0.00    +0.161 A 
ATOM     17  C   UNL     1       7.280  -4.982  22.175  0.00  0.00    +0.050 A 
BRANCH  16  18
ATOM     18  O   UNL     1       5.765  -6.513  21.159  0.00  0.00    -0.503 OA
ATOM     19  H   UNL     1       5.153  -7.148  21.573  0.00  0.00    +0.292 HD
ENDBRANCH  16  18
BRANCH  15  20
ATOM     20  O   UNL     1       3.704  -5.572  22.604  0.00  0.00    -0.321 OA
BRANCH  20  21
ATOM     21  S   UNL     1       3.083  -6.569  23.728  0.00  0.00    +0.251 S 
ATOM     22  O   UNL     1       2.120  -5.832  24.518  0.00  0.00    -0.108 OA
ATOM     23  O   UNL     1       4.146  -7.330  24.348  0.00  0.00    -0.108 OA
BRANCH  21  24
ATOM     24  O   UNL     1       2.264  -7.640  22.840  0.00  0.00    -0.222 OA
ATOM     25  H   UNL     1       1.786  -8.235  23.454  0.00  0.00    +0.248 HD
ENDBRANCH  21  24
ENDBRANCH  20  21
ENDBRANCH  15  20
ENDBRANCH   1  13
BRANCH   5  26
ATOM     26  O   UNL     1       7.425   3.066  25.234  0.00  0.00    -0.506 OA
ATOM     27  H   UNL     1       7.514   2.653  26.118  0.00  0.00    +0.292 HD
ENDBRANCH   5  26
BRANCH   7  28
ATOM     28  O   UNL     1      10.078   2.220  21.380  0.00  0.00    -0.507 OA
ATOM     29  H   UNL     1       9.596   2.327  20.526  0.00  0.00    +0.292 HD
ENDBRANCH   7  28
BRANCH  11  30
ATOM     30  O   UNL     1       5.248  -1.942  25.899  0.00  0.00    -0.453 OA
BRANCH  30  31
ATOM     31  C   UNL     1       5.540  -2.365  27.247  0.00  0.00    +0.340 C 
ATOM     32  O   UNL     1       6.259  -3.618  27.230  0.00  0.00    -0.331 OA
ATOM     33  C   UNL     1       5.533  -4.872  27.065  0.00  0.00    +0.179 C 
ATOM     34  C   UNL     1       3.970  -4.899  27.196  0.00  0.00    +0.177 C 
ATOM     35  C   UNL     1       3.328  -3.512  27.218  0.00  0.00    +0.180 C 
ATOM     36  C   UNL     1       4.247  -2.587  28.041  0.00  0.00    +0.214 C 
BRANCH  34  37
ATOM     37  O   UNL     1       3.548  -5.589  28.385  0.00  0.00    -0.386 OA
ATOM     38  H   UNL     1       4.320  -6.056  28.759  0.00  0.00    +0.210 HD
ENDBRANCH  34  37
BRANCH  35  39
ATOM     39  O   UNL     1       3.068  -3.091  25.874  0.00  0.00    -0.386 OA
ATOM     40  H   UNL     1       2.214  -3.474  25.588  0.00  0.00    +0.210 HD
ENDBRANCH  35  39
BRANCH  36  41
ATOM     41  O   UNL     1       3.593  -1.395  28.462  0.00  0.00    -0.383 OA
ATOM     42  H   UNL     1       4.209  -0.844  28.984  0.00  0.00    +0.210 HD
ENDBRANCH  36  41
BRANCH  33  43
ATOM     43  C   UNL     1       6.170  -5.892  28.046  0.00  0.00    +0.190 C 
BRANCH  43  44
ATOM     44  O   UNL     1       7.580  -6.019  27.858  0.00  0.00    -0.392 OA
ATOM     45  H   UNL     1       7.879  -6.725  28.457  0.00  0.00    +0.210 HD
ENDBRANCH  43  44
ENDBRANCH  33  43
ENDBRANCH  30  31
ENDBRANCH  11  30
TORSDOF 14
ENDMDL
MODEL 3
REMARK VINA RESULT:      -6.4      1.279      2.213
REMARK  Name = 
REMARK  14 active torsions:
REMARK  status: ('A' for Active; 'I' for Inactive)
REMARK    1  A    between atoms: C_3  and  O_40
REMARK    2  A    between atoms: C_4  and  O_35
REMARK    3  A    between atoms: C_6  and  C_7
REMARK    4  A    between atoms: C_8  and  O_20
REMARK    5  A    between atoms: C_12  and  O_19
REMARK    6  A    between atoms: C_14  and  O_18
REMARK    7  A    between atoms: O_20  and  C_21
REMARK    8  A    between atoms: C_23  and  O_34
REMARK    9  A    between atoms: C_24  and  O_33
REMARK   10  A    between atoms: C_26  and  O_32
REMARK   11  A    between atoms: C_28  and  C_30
REMARK   12  A    between atoms: C_30  and  O_31
REMARK   13  A    between atoms: O_35  and  S_36
REMARK   14  A    between atoms: S_36  and  O_39
REMARK                            x       y       z     vdW  Elec       q    Type
REMARK                         _______ _______ _______ _____ _____    ______ ____
ROOT
ATOM      1  C   UNL     1       9.383   1.575  23.791  0.00  0.00    +0.181 A 
ATOM      2  O   UNL     1      10.465   2.249  23.269  0.00  0.00    -0.451 OA
ATOM      3  C   UNL     1      10.681   3.547  23.612  0.00  0.00    +0.147 A 
ATOM      4  C   UNL     1       9.787   4.276  24.383  0.00  0.00    +0.109 A 
ATOM      5  C   UNL     1      10.091   5.627  24.627  0.00  0.00    +0.135 A 
ATOM      6  C   UNL     1      11.288   6.199  24.161  0.00  0.00    +0.091 A 
ATOM      7  C   UNL     1      12.178   5.427  23.424  0.00  0.00    +0.124 A 
ATOM      8  C   UNL     1       8.587   3.561  24.916  0.00  0.00    +0.238 A 
ATOM      9  O   UNL     1       7.743   4.171  25.568  0.00  0.00    -0.283 OA
ATOM     10  C   UNL     1      11.870   4.108  23.133  0.00  0.00    +0.092 A 
ATOM     11  C   UNL     1       8.467   2.079  24.635  0.00  0.00    +0.214 A 
ENDROOT
BRANCH   1  13
ATOM     12  C   UNL     1       8.754  -0.091  22.155  0.00  0.00    +0.015 A 
ATOM     13  C   UNL     1       9.434   0.175  23.352  0.00  0.00    +0.025 A 
ATOM     14  C   UNL     1       9.833  -0.878  24.191  0.00  0.00    +0.064 A 
ATOM     15  C   UNL     1       9.443  -2.183  23.867  0.00  0.00    +0.201 A 
ATOM     16  C   UNL     1       8.635  -2.409  22.748  0.00  0.00    +0.161 A 
ATOM     17  C   UNL     1       8.329  -1.383  21.862  0.00  0.00    +0.050 A 
BRANCH  16  18
ATOM     18  O   UNL     1       8.093  -3.649  22.554  0.00  0.00    -0.503 OA
ATOM     19  H   UNL     1       7.864  -4.014  23.427  0.00  0.00    +0.292 HD
ENDBRANCH  16  18
BRANCH  15  20
ATOM     20  O   UNL     1       9.678  -3.256  24.689  0.00  0.00    -0.321 OA
BRANCH  20  21
ATOM     21  S   UNL     1       8.650  -3.598  25.901  0.00  0.00    +0.251 S 
ATOM     22  O   UNL     1       7.386  -4.011  25.331  0.00  0.00    -0.108 OA
ATOM     23  O   UNL     1       8.723  -2.564  26.911  0.00  0.00    -0.108 OA
BRANCH  21  24
ATOM     24  O   UNL     1       9.323  -4.897  26.583  0.00  0.00    -0.222 OA
ATOM     25  H   UNL     1       8.706  -5.649  26.469  0.00  0.00    +0.248 HD
ENDBRANCH  21  24
ENDBRANCH  20  21
ENDBRANCH  15  20
ENDBRANCH   1  13
BRANCH   5  26
ATOM     26  O   UNL     1       9.269   6.468  25.323  0.00  0.00    -0.506 OA
ATOM     27  H   UNL     1       8.404   6.028  25.455  0.00  0.00    +0.292 HD
ENDBRANCH   5  26
BRANCH   7  28
ATOM     28  O   UNL     1      13.356   5.906  22.957  0.00  0.00    -0.507 OA
ATOM     29  H   UNL     1      13.735   6.506  23.643  0.00  0.00    +0.292 HD
ENDBRANCH   7  28
BRANCH  11  30
ATOM     30  O   UNL     1       7.347   1.327  24.959  0.00  0.00    -0.453 OA
BRANCH  30  31
ATOM     31  C   UNL     1       7.298   0.445  26.100  0.00  0.00    +0.340 C 
ATOM     32  O   UNL     1       6.547  -0.746  25.777  0.00  0.00    -0.331 OA
ATOM     33  C   UNL     1       5.090  -0.722  25.816  0.00  0.00    +0.179 C 
ATOM     34  C   UNL     1       4.341   0.486  26.480  0.00  0.00    +0.177 C 
ATOM     35  C   UNL     1       5.245   1.679  26.788  0.00  0.00    +0.180 C 
ATOM     36  C   UNL     1       6.596   1.124  27.283  0.00  0.00    +0.214 C 
BRANCH  34  37
ATOM     37  O   UNL     1       3.698   0.102  27.707  0.00  0.00    -0.386 OA
ATOM     38  H   UNL     1       4.349  -0.371  28.261  0.00  0.00    +0.210 HD
ENDBRANCH  34  37
BRANCH  35  39
ATOM     39  O   UNL     1       5.308   2.532  25.639  0.00  0.00    -0.386 OA
ATOM     40  H   UNL     1       4.528   3.123  25.647  0.00  0.00    +0.210 HD
ENDBRANCH  35  39
BRANCH  36  41
ATOM     41  O   UNL     1       7.377   2.102  27.959  0.00  0.00    -0.383 OA
ATOM     42  H   UNL     1       6.796   2.687  28.485  0.00  0.00    +0.210 HD
ENDBRANCH  36  41
BRANCH  33  43
ATOM     43  C   UNL     1       4.636  -2.056  26.466  0.00  0.00    +0.190 C 
BRANCH  43  44
ATOM     44  O   UNL     1       5.577  -2.540  27.426  0.00  0.00    -0.392 OA
ATOM     45  H   UNL     1       6.387  -2.013  27.313  0.00  0.00    +0.210 HD
ENDBRANCH  43  44
ENDBRANCH  33  43
ENDBRANCH  30  31
ENDBRANCH  11  30
TORSDOF 14
ENDMDL
MODEL 4
REMARK VINA RESULT:      -6.3      2.572      6.673
REMARK  Name = 
REMARK  14 active torsions:
REMARK  status: ('A' for Active; 'I' for Inactive)
REMARK    1  A    between atoms: C_3  and  O_40
REMARK    2  A    between atoms: C_4  and  O_35
REMARK    3  A    between atoms: C_6  and  C_7
REMARK    4  A    between atoms: C_8  and  O_20
REMARK    5  A    between atoms: C_12  and  O_19
REMARK    6  A    between atoms: C_14  and  O_18
REMARK    7  A    between atoms: O_20  and  C_21
REMARK    8  A    between atoms: C_23  and  O_34
REMARK    9  A    between atoms: C_24  and  O_33
REMARK   10  A    between atoms: C_26  and  O_32
REMARK   11  A    between atoms: C_28  and  C_30
REMARK   12  A    between atoms: C_30  and  O_31
REMARK   13  A    between atoms: O_35  and  S_36
REMARK   14  A    between atoms: S_36  and  O_39
REMARK                            x       y       z     vdW  Elec       q    Type
REMARK                         _______ _______ _______ _____ _____    ______ ____
ROOT
ATOM      1  C   UNL     1       7.897  -0.671  24.852  0.00  0.00    +0.181 A 
ATOM      2  O   UNL     1       8.668  -1.787  24.613  0.00  0.00    -0.451 OA
ATOM      3  C   UNL     1       8.403  -2.946  25.275  0.00  0.00    +0.147 A 
ATOM      4  C   UNL     1       7.454  -3.029  26.284  0.00  0.00    +0.109 A 
ATOM      5  C   UNL     1       7.307  -4.267  26.934  0.00  0.00    +0.135 A 
ATOM      6  C   UNL     1       8.048  -5.393  26.534  0.00  0.00    +0.091 A 
ATOM      7  C   UNL     1       8.963  -5.279  25.494  0.00  0.00    +0.124 A 
ATOM      8  C   UNL     1       6.645  -1.807  26.580  0.00  0.00    +0.238 A 
ATOM      9  O   UNL     1       5.823  -1.816  27.492  0.00  0.00    -0.283 OA
ATOM     10  C   UNL     1       9.155  -4.055  24.874  0.00  0.00    +0.092 A 
ATOM     11  C   UNL     1       6.869  -0.587  25.713  0.00  0.00    +0.214 A 
ENDROOT
BRANCH   1  13
ATOM     12  C   UNL     1       8.549  -0.001  22.622  0.00  0.00    +0.015 A 
ATOM     13  C   UNL     1       8.317   0.404  23.944  0.00  0.00    +0.025 A 
ATOM     14  C   UNL     1       8.770   1.654  24.393  0.00  0.00    +0.064 A 
ATOM     15  C   UNL     1       9.551   2.438  23.534  0.00  0.00    +0.201 A 
ATOM     16  C   UNL     1       9.897   1.948  22.271  0.00  0.00    +0.161 A 
ATOM     17  C   UNL     1       9.362   0.759  21.788  0.00  0.00    +0.050 A 
BRANCH  16  18
ATOM     18  O   UNL     1      10.820   2.623  21.522  0.00  0.00    -0.503 OA
ATOM     19  H   UNL     1      11.681   2.546  21.969  0.00  0.00    +0.292 HD
ENDBRANCH  16  18
BRANCH  15  20
ATOM     20  O   UNL     1      10.140   3.612  23.926  0.00  0.00    -0.321 OA
BRANCH  20  21
ATOM     21  S   UNL     1       9.296   5.002  23.892  0.00  0.00    +0.251 S 
ATOM     22  O   UNL     1       9.192   5.511  25.242  0.00  0.00    -0.108 OA
ATOM     23  O   UNL     1       8.129   4.844  23.050  0.00  0.00    -0.108 OA
BRANCH  21  24
ATOM     24  O   UNL     1      10.273   5.991  23.073  0.00  0.00    -0.222 OA
ATOM     25  H   UNL     1      11.197   5.729  23.267  0.00  0.00    +0.248 HD
ENDBRANCH  21  24
ENDBRANCH  20  21
ENDBRANCH  15  20
ENDBRANCH   1  13
BRANCH   5  26
ATOM     26  O   UNL     1       6.449  -4.469  27.980  0.00  0.00    -0.506 OA
ATOM     27  H   UNL     1       6.250  -3.605  28.396  0.00  0.00    +0.292 HD
ENDBRANCH   5  26
BRANCH   7  28
ATOM     28  O   UNL     1       9.698  -6.323  25.044  0.00  0.00    -0.507 OA
ATOM     29  H   UNL     1       9.738  -7.001  25.761  0.00  0.00    +0.292 HD
ENDBRANCH   7  28
BRANCH  11  30
ATOM     30  O   UNL     1       6.282   0.645  25.960  0.00  0.00    -0.453 OA
BRANCH  30  31
ATOM     31  C   UNL     1       4.968   0.998  25.481  0.00  0.00    +0.340 C 
ATOM     32  O   UNL     1       5.059   1.581  24.162  0.00  0.00    -0.331 OA
ATOM     33  C   UNL     1       5.419   2.986  24.010  0.00  0.00    +0.179 C 
ATOM     34  C   UNL     1       5.423   3.936  25.259  0.00  0.00    +0.177 C 
ATOM     35  C   UNL     1       5.306   3.201  26.593  0.00  0.00    +0.180 C 
ATOM     36  C   UNL     1       4.314   2.038  26.399  0.00  0.00    +0.214 C 
BRANCH  34  37
ATOM     37  O   UNL     1       4.356   4.898  25.198  0.00  0.00    -0.386 OA
ATOM     38  H   UNL     1       4.504   5.472  24.422  0.00  0.00    +0.210 HD
ENDBRANCH  34  37
BRANCH  35  39
ATOM     39  O   UNL     1       6.614   2.832  27.045  0.00  0.00    -0.386 OA
ATOM     40  H   UNL     1       7.111   3.648  27.259  0.00  0.00    +0.210 HD
ENDBRANCH  35  39
BRANCH  36  41
ATOM     41  O   UNL     1       3.824   1.522  27.631  0.00  0.00    -0.383 OA
ATOM     42  H   UNL     1       4.281   0.685  27.847  0.00  0.00    +0.210 HD
ENDBRANCH  36  41
BRANCH  33  43
ATOM     43  C   UNL     1       4.504   3.567  22.899  0.00  0.00    +0.190 C 
BRANCH  43  44
ATOM     44  O   UNL     1       5.089   4.695  22.248  0.00  0.00    -0.392 OA
ATOM     45  H   UNL     1       4.678   4.755  21.368  0.00  0.00    +0.210 HD
ENDBRANCH  43  44
ENDBRANCH  33  43
ENDBRANCH  30  31
ENDBRANCH  11  30
TORSDOF 14
ENDMDL
MODEL 5
REMARK VINA RESULT:      -6.3      3.046      7.215
REMARK  Name = 
REMARK  14 active torsions:
REMARK  status: ('A' for Active; 'I' for Inactive)
REMARK    1  A    between atoms: C_3  and  O_40
REMARK    2  A    between atoms: C_4  and  O_35
REMARK    3  A    between atoms: C_6  and  C_7
REMARK    4  A    between atoms: C_8  and  O_20
REMARK    5  A    between atoms: C_12  and  O_19
REMARK    6  A    between atoms: C_14  and  O_18
REMARK    7  A    between atoms: O_20  and  C_21
REMARK    8  A    between atoms: C_23  and  O_34
REMARK    9  A    between atoms: C_24  and  O_33
REMARK   10  A    between atoms: C_26  and  O_32
REMARK   11  A    between atoms: C_28  and  C_30
REMARK   12  A    between atoms: C_30  and  O_31
REMARK   13  A    between atoms: O_35  and  S_36
REMARK   14  A    between atoms: S_36  and  O_39
REMARK                            x       y       z     vdW  Elec       q    Type
REMARK                         _______ _______ _______ _____ _____    ______ ____
ROOT
ATOM      1  C   UNL     1       5.925  -2.092  26.859  0.00  0.00    +0.181 A 
ATOM      2  O   UNL     1       4.950  -2.420  27.774  0.00  0.00    -0.451 OA
ATOM      3  C   UNL     1       4.156  -1.445  28.294  0.00  0.00    +0.147 A 
ATOM      4  C   UNL     1       4.361  -0.097  28.035  0.00  0.00    +0.109 A 
ATOM      5  C   UNL     1       3.510   0.822  28.673  0.00  0.00    +0.135 A 
ATOM      6  C   UNL     1       2.454   0.389  29.493  0.00  0.00    +0.091 A 
ATOM      7  C   UNL     1       2.257  -0.971  29.700  0.00  0.00    +0.124 A 
ATOM      8  C   UNL     1       5.448   0.268  27.075  0.00  0.00    +0.238 A 
ATOM      9  O   UNL     1       5.698   1.448  26.844  0.00  0.00    -0.283 OA
ATOM     10  C   UNL     1       3.116  -1.889  29.117  0.00  0.00    +0.092 A 
ATOM     11  C   UNL     1       6.204  -0.859  26.404  0.00  0.00    +0.214 A 
ENDROOT
BRANCH   1  13
ATOM     12  C   UNL     1       7.886  -3.507  26.808  0.00  0.00    +0.015 A 
ATOM     13  C   UNL     1       6.564  -3.324  26.379  0.00  0.00    +0.025 A 
ATOM     14  C   UNL     1       6.047  -4.096  25.326  0.00  0.00    +0.064 A 
ATOM     15  C   UNL     1       6.904  -4.968  24.644  0.00  0.00    +0.201 A 
ATOM     16  C   UNL     1       8.257  -5.024  24.993  0.00  0.00    +0.161 A 
ATOM     17  C   UNL     1       8.745  -4.340  26.100  0.00  0.00    +0.050 A 
BRANCH  16  18
ATOM     18  O   UNL     1       9.124  -5.721  24.197  0.00  0.00    -0.503 OA
ATOM     19  H   UNL     1       8.726  -6.591  24.013  0.00  0.00    +0.292 HD
ENDBRANCH  16  18
BRANCH  15  20
ATOM     20  O   UNL     1       6.521  -5.667  23.529  0.00  0.00    -0.321 OA
BRANCH  20  21
ATOM     21  S   UNL     1       6.408  -4.915  22.091  0.00  0.00    +0.251 S 
ATOM     22  O   UNL     1       5.127  -4.246  22.020  0.00  0.00    -0.108 OA
ATOM     23  O   UNL     1       6.858  -5.801  21.039  0.00  0.00    -0.108 OA
BRANCH  21  24
ATOM     24  O   UNL     1       7.547  -3.776  22.195  0.00  0.00    -0.222 OA
ATOM     25  H   UNL     1       7.294  -3.165  22.918  0.00  0.00    +0.248 HD
ENDBRANCH  21  24
ENDBRANCH  20  21
ENDBRANCH  15  20
ENDBRANCH   1  13
BRANCH   5  26
ATOM     26  O   UNL     1       3.639   2.178  28.546  0.00  0.00    -0.506 OA
ATOM     27  H   UNL     1       2.751   2.569  28.418  0.00  0.00    +0.292 HD
ENDBRANCH   5  26
BRANCH   7  28
ATOM     28  O   UNL     1       1.251  -1.461  30.462  0.00  0.00    -0.507 OA
ATOM     29  H   UNL     1       0.656  -1.992  29.880  0.00  0.00    +0.292 HD
ENDBRANCH   7  28
BRANCH  11  30
ATOM     30  O   UNL     1       7.315  -0.661  25.597  0.00  0.00    -0.453 OA
BRANCH  30  31
ATOM     31  C   UNL     1       7.267  -0.761  24.159  0.00  0.00    +0.340 C 
ATOM     32  O   UNL     1       8.429  -1.466  23.670  0.00  0.00    -0.331 OA
ATOM     33  C   UNL     1       9.696  -0.761  23.513  0.00  0.00    +0.179 C 
ATOM     34  C   UNL     1       9.739   0.806  23.590  0.00  0.00    +0.177 C 
ATOM     35  C   UNL     1       8.445   1.434  24.107  0.00  0.00    +0.180 C 
ATOM     36  C   UNL     1       7.269   0.632  23.516  0.00  0.00    +0.214 C 
BRANCH  34  37
ATOM     37  O   UNL     1      10.023   1.394  22.309  0.00  0.00    -0.386 OA
ATOM     38  H   UNL     1      10.885   1.052  21.999  0.00  0.00    +0.210 HD
ENDBRANCH  34  37
BRANCH  35  39
ATOM     39  O   UNL     1       8.493   1.502  25.537  0.00  0.00    -0.386 OA
ATOM     40  H   UNL     1       9.045   0.764  25.865  0.00  0.00    +0.210 HD
ENDBRANCH  35  39
BRANCH  36  41
ATOM     41  O   UNL     1       6.032   1.330  23.598  0.00  0.00    -0.383 OA
ATOM     42  H   UNL     1       6.156   2.172  24.079  0.00  0.00    +0.210 HD
ENDBRANCH  36  41
BRANCH  33  43
ATOM     43  C   UNL     1      10.318  -1.248  22.176  0.00  0.00    +0.190 C 
BRANCH  43  44
ATOM     44  O   UNL     1       9.441  -1.052  21.066  0.00  0.00    -0.392 OA
ATOM     45  H   UNL     1       9.481  -0.107  20.841  0.00  0.00    +0.210 HD
ENDBRANCH  43  44
ENDBRANCH  33  43
ENDBRANCH  30  31
ENDBRANCH  11  30
TORSDOF 14
ENDMDL
MODEL 6
REMARK VINA RESULT:      -6.2      2.940      7.505
REMARK  Name = 
REMARK  14 active torsions:
REMARK  status: ('A' for Active; 'I' for Inactive)
REMARK    1  A    between atoms: C_3  and  O_40
REMARK    2  A    between atoms: C_4  and  O_35
REMARK    3  A    between atoms: C_6  and  C_7
REMARK    4  A    between atoms: C_8  and  O_20
REMARK    5  A    between atoms: C_12  and  O_19
REMARK    6  A    between atoms: C_14  and  O_18
REMARK    7  A    between atoms: O_20  and  C_21
REMARK    8  A    between atoms: C_23  and  O_34
REMARK    9  A    between atoms: C_24  and  O_33
REMARK   10  A    between atoms: C_26  and  O_32
REMARK   11  A    between atoms: C_28  and  C_30
REMARK   12  A    between atoms: C_30  and  O_31
REMARK   13  A    between atoms: O_35  and  S_36
REMARK   14  A    between atoms: S_36  and  O_39
REMARK                            x       y       z     vdW  Elec       q    Type
REMARK                         _______ _______ _______ _____ _____    ______ ____
ROOT
ATOM      1  C   UNL     1       6.926  -0.571  25.605  0.00  0.00    +0.181 A 
ATOM      2  O   UNL     1       6.746  -1.643  26.452  0.00  0.00    -0.451 OA
ATOM      3  C   UNL     1       7.271  -2.855  26.128  0.00  0.00    +0.147 A 
ATOM      4  C   UNL     1       7.889  -3.101  24.910  0.00  0.00    +0.109 A 
ATOM      5  C   UNL     1       8.344  -4.409  24.667  0.00  0.00    +0.135 A 
ATOM      6  C   UNL     1       8.233  -5.412  25.645  0.00  0.00    +0.091 A 
ATOM      7  C   UNL     1       7.642  -5.118  26.867  0.00  0.00    +0.124 A 
ATOM      8  C   UNL     1       8.048  -1.952  23.967  0.00  0.00    +0.238 A 
ATOM      9  O   UNL     1       8.549  -2.125  22.860  0.00  0.00    -0.283 OA
ATOM     10  C   UNL     1       7.145  -3.848  27.106  0.00  0.00    +0.092 A 
ATOM     11  C   UNL     1       7.586  -0.588  24.434  0.00  0.00    +0.214 A 
ENDROOT
BRANCH   1  13
ATOM     12  C   UNL     1       5.244   1.165  25.569  0.00  0.00    +0.015 A 
ATOM     13  C   UNL     1       6.360   0.631  26.228  0.00  0.00    +0.025 A 
ATOM     14  C   UNL     1       7.041   1.387  27.195  0.00  0.00    +0.064 A 
ATOM     15  C   UNL     1       6.655   2.716  27.408  0.00  0.00    +0.201 A 
ATOM     16  C   UNL     1       5.636   3.276  26.631  0.00  0.00    +0.161 A 
ATOM     17  C   UNL     1       4.894   2.499  25.749  0.00  0.00    +0.050 A 
BRANCH  16  18
ATOM     18  O   UNL     1       5.404   4.621  26.701  0.00  0.00    -0.503 OA
ATOM     19  H   UNL     1       5.180   4.838  27.624  0.00  0.00    +0.292 HD
ENDBRANCH  16  18
BRANCH  15  20
ATOM     20  O   UNL     1       7.339   3.566  28.239  0.00  0.00    -0.321 OA
BRANCH  20  21
ATOM     21  S   UNL     1       6.915   3.696  29.804  0.00  0.00    +0.251 S 
ATOM     22  O   UNL     1       7.906   4.501  30.485  0.00  0.00    -0.108 OA
ATOM     23  O   UNL     1       6.512   2.402  30.310  0.00  0.00    -0.108 OA
BRANCH  21  24
ATOM     24  O   UNL     1       5.553   4.560  29.732  0.00  0.00    -0.222 OA
ATOM     25  H   UNL     1       5.548   5.041  28.879  0.00  0.00    +0.248 HD
ENDBRANCH  21  24
ENDBRANCH  20  21
ENDBRANCH  15  20
ENDBRANCH   1  13
BRANCH   5  26
ATOM     26  O   UNL     1       8.919  -4.797  23.488  0.00  0.00    -0.506 OA
ATOM     27  H   UNL     1       8.232  -5.201  22.919  0.00  0.00    +0.292 HD
ENDBRANCH   5  26
BRANCH   7  28
ATOM     28  O   UNL     1       7.517  -6.029  27.862  0.00  0.00    -0.507 OA
ATOM     29  H   UNL     1       8.299  -6.631  27.825  0.00  0.00    +0.292 HD
ENDBRANCH   7  28
BRANCH  11  30
ATOM     30  O   UNL     1       7.556   0.531  23.616  0.00  0.00    -0.453 OA
BRANCH  30  31
ATOM     31  C   UNL     1       8.737   1.291  23.283  0.00  0.00    +0.340 C 
ATOM     32  O   UNL     1       8.935   2.350  24.245  0.00  0.00    -0.331 OA
ATOM     33  C   UNL     1       8.183   3.593  24.124  0.00  0.00    +0.179 C 
ATOM     34  C   UNL     1       7.384   3.905  22.810  0.00  0.00    +0.177 C 
ATOM     35  C   UNL     1       7.256   2.709  21.868  0.00  0.00    +0.180 C 
ATOM     36  C   UNL     1       8.594   1.943  21.902  0.00  0.00    +0.214 C 
BRANCH  34  37
ATOM     37  O   UNL     1       7.982   4.980  22.067  0.00  0.00    -0.386 OA
ATOM     38  H   UNL     1       7.722   5.824  22.485  0.00  0.00    +0.210 HD
ENDBRANCH  34  37
BRANCH  35  39
ATOM     39  O   UNL     1       6.097   1.948  22.225  0.00  0.00    -0.386 OA
ATOM     40  H   UNL     1       6.351   1.297  22.910  0.00  0.00    +0.210 HD
ENDBRANCH  35  39
BRANCH  36  41
ATOM     41  O   UNL     1       8.747   1.053  20.803  0.00  0.00    -0.383 OA
ATOM     42  H   UNL     1       9.673   1.068  20.490  0.00  0.00    +0.210 HD
ENDBRANCH  36  41
BRANCH  33  43
ATOM     43  C   UNL     1       9.171   4.749  24.436  0.00  0.00    +0.190 C 
BRANCH  43  44
ATOM     44  O   UNL     1      10.306   4.741  23.568  0.00  0.00    -0.392 OA
ATOM     45  H   UNL     1      10.257   3.918  23.052  0.00  0.00    +0.210 HD
ENDBRANCH  43  44
ENDBRANCH  33  43
ENDBRANCH  30  31
ENDBRANCH  11  30
TORSDOF 14
ENDMDL
MODEL 7
REMARK VINA RESULT:      -6.1      1.609      2.853
REMARK  Name = 
REMARK  14 active torsions:
REMARK  status: ('A' for Active; 'I' for Inactive)
REMARK    1  A    between atoms: C_3  and  O_40
REMARK    2  A    between atoms: C_4  and  O_35
REMARK    3  A    between atoms: C_6  and  C_7
REMARK    4  A    between atoms: C_8  and  O_20
REMARK    5  A    between atoms: C_12  and  O_19
REMARK    6  A    between atoms: C_14  and  O_18
REMARK    7  A    between atoms: O_20  and  C_21
REMARK    8  A    between atoms: C_23  and  O_34
REMARK    9  A    between atoms: C_24  and  O_33
REMARK   10  A    between atoms: C_26  and  O_32
REMARK   11  A    between atoms: C_28  and  C_30
REMARK   12  A    between atoms: C_30  and  O_31
REMARK   13  A    between atoms: O_35  and  S_36
REMARK   14  A    between atoms: S_36  and  O_39
REMARK                            x       y       z     vdW  Elec       q    Type
REMARK                         _______ _______ _______ _____ _____    ______ ____
ROOT
ATOM      1  C   UNL     1       8.749   1.882  24.152  0.00  0.00    +0.181 A 
ATOM      2  O   UNL     1      10.047   2.138  23.768  0.00  0.00    -0.451 OA
ATOM      3  C   UNL     1      10.491   3.422  23.705  0.00  0.00    +0.147 A 
ATOM      4  C   UNL     1       9.655   4.513  23.896  0.00  0.00    +0.109 A 
ATOM      5  C   UNL     1      10.216   5.793  23.750  0.00  0.00    +0.135 A 
ATOM      6  C   UNL     1      11.586   5.962  23.484  0.00  0.00    +0.091 A 
ATOM      7  C   UNL     1      12.400   4.845  23.335  0.00  0.00    +0.124 A 
ATOM      8  C   UNL     1       8.233   4.240  24.270  0.00  0.00    +0.238 A 
ATOM      9  O   UNL     1       7.442   5.169  24.409  0.00  0.00    -0.283 OA
ATOM     10  C   UNL     1      11.854   3.576  23.428  0.00  0.00    +0.092 A 
ATOM     11  C   UNL     1       7.823   2.799  24.479  0.00  0.00    +0.214 A 
ENDROOT
BRANCH   1  13
ATOM     12  C   UNL     1       9.259  -0.197  25.279  0.00  0.00    +0.015 A 
ATOM     13  C   UNL     1       8.555   0.429  24.241  0.00  0.00    +0.025 A 
ATOM     14  C   UNL     1       7.991  -0.334  23.206  0.00  0.00    +0.064 A 
ATOM     15  C   UNL     1       8.240  -1.712  23.171  0.00  0.00    +0.201 A 
ATOM     16  C   UNL     1       9.072  -2.291  24.133  0.00  0.00    +0.161 A 
ATOM     17  C   UNL     1       9.542  -1.557  25.215  0.00  0.00    +0.050 A 
BRANCH  16  18
ATOM     18  O   UNL     1       9.472  -3.589  23.977  0.00  0.00    -0.503 OA
ATOM     19  H   UNL     1       9.576  -3.757  23.023  0.00  0.00    +0.292 HD
ENDBRANCH  16  18
BRANCH  15  20
ATOM     20  O   UNL     1       7.837  -2.515  22.135  0.00  0.00    -0.321 OA
BRANCH  20  21
ATOM     21  S   UNL     1       6.524  -3.460  22.295  0.00  0.00    +0.251 S 
ATOM     22  O   UNL     1       6.932  -4.721  22.876  0.00  0.00    -0.108 OA
ATOM     23  O   UNL     1       5.731  -3.406  21.086  0.00  0.00    -0.108 OA
BRANCH  21  24
ATOM     24  O   UNL     1       5.653  -2.674  23.404  0.00  0.00    -0.222 OA
ATOM     25  H   UNL     1       4.714  -2.921  23.277  0.00  0.00    +0.248 HD
ENDBRANCH  21  24
ENDBRANCH  20  21
ENDBRANCH  15  20
ENDBRANCH   1  13
BRANCH   5  26
ATOM     26  O   UNL     1       9.491   6.948  23.858  0.00  0.00    -0.506 OA
ATOM     27  H   UNL     1       9.158   7.195  22.971  0.00  0.00    +0.292 HD
ENDBRANCH   5  26
BRANCH   7  28
ATOM     28  O   UNL     1      13.730   4.931  23.095  0.00  0.00    -0.507 OA
ATOM     29  H   UNL     1      13.880   5.683  22.473  0.00  0.00    +0.292 HD
ENDBRANCH   7  28
BRANCH  11  30
ATOM     30  O   UNL     1       6.513   2.400  24.700  0.00  0.00    -0.453 OA
BRANCH  30  31
ATOM     31  C   UNL     1       5.773   2.761  25.885  0.00  0.00    +0.340 C 
ATOM     32  O   UNL     1       6.516   2.392  27.068  0.00  0.00    -0.331 OA
ATOM     33  C   UNL     1       6.485   1.015  27.548  0.00  0.00    +0.179 C 
ATOM     34  C   UNL     1       5.433   0.005  26.971  0.00  0.00    +0.177 C 
ATOM     35  C   UNL     1       4.702   0.516  25.730  0.00  0.00    +0.180 C 
ATOM     36  C   UNL     1       4.431   2.020  25.935  0.00  0.00    +0.214 C 
BRANCH  34  37
ATOM     37  O   UNL     1       4.436  -0.341  27.948  0.00  0.00    -0.386 OA
ATOM     38  H   UNL     1       4.867  -0.381  28.824  0.00  0.00    +0.210 HD
ENDBRANCH  34  37
BRANCH  35  39
ATOM     39  O   UNL     1       5.460   0.177  24.563  0.00  0.00    -0.386 OA
ATOM     40  H   UNL     1       5.556  -0.796  24.527  0.00  0.00    +0.210 HD
ENDBRANCH  35  39
BRANCH  36  41
ATOM     41  O   UNL     1       3.437   2.525  25.052  0.00  0.00    -0.383 OA
ATOM     42  H   UNL     1       2.708   2.927  25.565  0.00  0.00    +0.210 HD
ENDBRANCH  36  41
BRANCH  33  43
ATOM     43  C   UNL     1       6.371   1.081  29.095  0.00  0.00    +0.190 C 
BRANCH  43  44
ATOM     44  O   UNL     1       5.325   1.954  29.525  0.00  0.00    -0.392 OA
ATOM     45  H   UNL     1       4.918   2.320  28.720  0.00  0.00    +0.210 HD
ENDBRANCH  43  44
ENDBRANCH  33  43
ENDBRANCH  30  31
ENDBRANCH  11  30
TORSDOF 14
ENDMDL
MODEL 8
REMARK VINA RESULT:      -6.1      3.620      5.397
REMARK  Name = 
REMARK  14 active torsions:
REMARK  status: ('A' for Active; 'I' for Inactive)
REMARK    1  A    between atoms: C_3  and  O_40
REMARK    2  A    between atoms: C_4  and  O_35
REMARK    3  A    between atoms: C_6  and  C_7
REMARK    4  A    between atoms: C_8  and  O_20
REMARK    5  A    between atoms: C_12  and  O_19
REMARK    6  A    between atoms: C_14  and  O_18
REMARK    7  A    between atoms: O_20  and  C_21
REMARK    8  A    between atoms: C_23  and  O_34
REMARK    9  A    between atoms: C_24  and  O_33
REMARK   10  A    between atoms: C_26  and  O_32
REMARK   11  A    between atoms: C_28  and  C_30
REMARK   12  A    between atoms: C_30  and  O_31
REMARK   13  A    between atoms: O_35  and  S_36
REMARK   14  A    between atoms: S_36  and  O_39
REMARK                            x       y       z     vdW  Elec       q    Type
REMARK                         _______ _______ _______ _____ _____    ______ ____
ROOT
ATOM      1  C   UNL     1       6.281  -1.516  24.005  0.00  0.00    +0.181 A 
ATOM      2  O   UNL     1       7.211  -1.046  23.105  0.00  0.00    -0.451 OA
ATOM      3  C   UNL     1       7.575   0.265  23.132  0.00  0.00    +0.147 A 
ATOM      4  C   UNL     1       6.959   1.195  23.957  0.00  0.00    +0.109 A 
ATOM      5  C   UNL     1       7.383   2.531  23.858  0.00  0.00    +0.135 A 
ATOM      6  C   UNL     1       8.435   2.899  23.000  0.00  0.00    +0.091 A 
ATOM      7  C   UNL     1       9.053   1.933  22.216  0.00  0.00    +0.124 A 
ATOM      8  C   UNL     1       5.916   0.698  24.906  0.00  0.00    +0.238 A 
ATOM      9  O   UNL     1       5.311   1.486  25.628  0.00  0.00    -0.283 OA
ATOM     10  C   UNL     1       8.615   0.620  22.266  0.00  0.00    +0.092 A 
ATOM     11  C   UNL     1       5.654  -0.793  24.948  0.00  0.00    +0.214 A 
ENDROOT
BRANCH   1  13
ATOM     12  C   UNL     1       7.351  -3.655  23.647  0.00  0.00    +0.015 A 
ATOM     13  C   UNL     1       6.144  -2.968  23.837  0.00  0.00    +0.025 A 
ATOM     14  C   UNL     1       4.919  -3.595  23.557  0.00  0.00    +0.064 A 
ATOM     15  C   UNL     1       4.931  -4.873  22.983  0.00  0.00    +0.201 A 
ATOM     16  C   UNL     1       6.150  -5.478  22.662  0.00  0.00    +0.161 A 
ATOM     17  C   UNL     1       7.359  -4.903  23.034  0.00  0.00    +0.050 A 
BRANCH  16  18
ATOM     18  O   UNL     1       6.151  -6.628  21.922  0.00  0.00    -0.503 OA
ATOM     19  H   UNL     1       5.614  -6.470  21.125  0.00  0.00    +0.292 HD
ENDBRANCH  16  18
BRANCH  15  20
ATOM     20  O   UNL     1       3.792  -5.510  22.563  0.00  0.00    -0.321 OA
BRANCH  20  21
ATOM     21  S   UNL     1       2.971  -6.475  23.582  0.00  0.00    +0.251 S 
ATOM     22  O   UNL     1       1.906  -7.122  22.847  0.00  0.00    -0.108 OA
ATOM     23  O   UNL     1       2.718  -5.774  24.822  0.00  0.00    -0.108 OA
BRANCH  21  24
ATOM     24  O   UNL     1       4.060  -7.607  23.956  0.00  0.00    -0.222 OA
ATOM     25  H   UNL     1       4.895  -7.383  23.494  0.00  0.00    +0.248 HD
ENDBRANCH  21  24
ENDBRANCH  20  21
ENDBRANCH  15  20
ENDBRANCH   1  13
BRANCH   5  26
ATOM     26  O   UNL     1       6.822   3.552  24.573  0.00  0.00    -0.506 OA
ATOM     27  H   UNL     1       6.815   4.360  24.019  0.00  0.00    +0.292 HD
ENDBRANCH   5  26
BRANCH   7  28
ATOM     28  O   UNL     1      10.082   2.212  21.381  0.00  0.00    -0.507 OA
ATOM     29  H   UNL     1      10.924   2.067  21.875  0.00  0.00    +0.292 HD
ENDBRANCH   7  28
BRANCH  11  30
ATOM     30  O   UNL     1       4.629  -1.369  25.684  0.00  0.00    -0.453 OA
BRANCH  30  31
ATOM     31  C   UNL     1       4.839  -1.983  26.972  0.00  0.00    +0.340 C 
ATOM     32  O   UNL     1       4.042  -3.183  27.087  0.00  0.00    -0.331 OA
ATOM     33  C   UNL     1       2.629  -3.089  27.436  0.00  0.00    +0.179 C 
ATOM     34  C   UNL     1       2.039  -1.736  27.968  0.00  0.00    +0.177 C 
ATOM     35  C   UNL     1       2.982  -0.544  27.805  0.00  0.00    +0.180 C 
ATOM     36  C   UNL     1       4.412  -1.038  28.102  0.00  0.00    +0.214 C 
BRANCH  34  37
ATOM     37  O   UNL     1       1.686  -1.821  29.360  0.00  0.00    -0.386 OA
ATOM     38  H   UNL     1       2.506  -1.766  29.888  0.00  0.00    +0.210 HD
ENDBRANCH  34  37
BRANCH  35  39
ATOM     39  O   UNL     1       2.785   0.040  26.512  0.00  0.00    -0.386 OA
ATOM     40  H   UNL     1       1.835   0.254  26.410  0.00  0.00    +0.210 HD
ENDBRANCH  35  39
BRANCH  36  41
ATOM     41  O   UNL     1       5.318   0.028  28.363  0.00  0.00    -0.383 OA
ATOM     42  H   UNL     1       5.668   0.380  27.521  0.00  0.00    +0.210 HD
ENDBRANCH  36  41
BRANCH  33  43
ATOM     43  C   UNL     1       2.338  -4.233  28.444  0.00  0.00    +0.190 C 
BRANCH  43  44
ATOM     44  O   UNL     1       0.948  -4.554  28.514  0.00  0.00    -0.392 OA
ATOM     45  H   UNL     1       0.887  -5.523  28.566  0.00  0.00    +0.210 HD
ENDBRANCH  43  44
ENDBRANCH  33  43
ENDBRANCH  30  31
ENDBRANCH  11  30
TORSDOF 14
ENDMDL
MODEL 9
REMARK VINA RESULT:      -6.1      2.954      7.203
REMARK  Name = 
REMARK  14 active torsions:
REMARK  status: ('A' for Active; 'I' for Inactive)
REMARK    1  A    between atoms: C_3  and  O_40
REMARK    2  A    between atoms: C_4  and  O_35
REMARK    3  A    between atoms: C_6  and  C_7
REMARK    4  A    between atoms: C_8  and  O_20
REMARK    5  A    between atoms: C_12  and  O_19
REMARK    6  A    between atoms: C_14  and  O_18
REMARK    7  A    between atoms: O_20  and  C_21
REMARK    8  A    between atoms: C_23  and  O_34
REMARK    9  A    between atoms: C_24  and  O_33
REMARK   10  A    between atoms: C_26  and  O_32
REMARK   11  A    between atoms: C_28  and  C_30
REMARK   12  A    between atoms: C_30  and  O_31
REMARK   13  A    between atoms: O_35  and  S_36
REMARK   14  A    between atoms: S_36  and  O_39
REMARK                            x       y       z     vdW  Elec       q    Type
REMARK                         _______ _______ _______ _____ _____    ______ ____
ROOT
ATOM      1  C   UNL     1       7.222  -1.158  23.454  0.00  0.00    +0.181 A 
ATOM      2  O   UNL     1       7.235  -2.255  22.621  0.00  0.00    -0.451 OA
ATOM      3  C   UNL     1       6.426  -3.316  22.888  0.00  0.00    +0.147 A 
ATOM      4  C   UNL     1       5.662  -3.401  24.043  0.00  0.00    +0.109 A 
ATOM      5  C   UNL     1       4.907  -4.571  24.236  0.00  0.00    +0.135 A 
ATOM      6  C   UNL     1       4.879  -5.588  23.266  0.00  0.00    +0.091 A 
ATOM      7  C   UNL     1       5.629  -5.451  22.105  0.00  0.00    +0.124 A 
ATOM      8  C   UNL     1       5.678  -2.231  24.974  0.00  0.00    +0.238 A 
ATOM      9  O   UNL     1       5.052  -2.272  26.030  0.00  0.00    -0.283 OA
ATOM     10  C   UNL     1       6.416  -4.326  21.920  0.00  0.00    +0.092 A 
ATOM     11  C   UNL     1       6.472  -1.011  24.559  0.00  0.00    +0.214 A 
ENDROOT
BRANCH   1  13
ATOM     12  C   UNL     1       9.426  -0.171  23.332  0.00  0.00    +0.015 A 
ATOM     13  C   UNL     1       8.096  -0.121  22.892  0.00  0.00    +0.025 A 
ATOM     14  C   UNL     1       7.607   1.021  22.238  0.00  0.00    +0.064 A 
ATOM     15  C   UNL     1       8.437   2.145  22.132  0.00  0.00    +0.201 A 
ATOM     16  C   UNL     1       9.709   2.125  22.712  0.00  0.00    +0.161 A 
ATOM     17  C   UNL     1      10.230   0.962  23.266  0.00  0.00    +0.050 A 
BRANCH  16  18
ATOM     18  O   UNL     1      10.430   3.285  22.782  0.00  0.00    -0.503 OA
ATOM     19  H   UNL     1      11.332   3.059  23.071  0.00  0.00    +0.292 HD
ENDBRANCH  16  18
BRANCH  15  20
ATOM     20  O   UNL     1       8.006   3.343  21.622  0.00  0.00    -0.321 OA
BRANCH  20  21
ATOM     21  S   UNL     1       7.230   4.406  22.577  0.00  0.00    +0.251 S 
ATOM     22  O   UNL     1       8.118   4.795  23.652  0.00  0.00    -0.108 OA
ATOM     23  O   UNL     1       5.886   3.939  22.838  0.00  0.00    -0.108 OA
BRANCH  21  24
ATOM     24  O   UNL     1       7.049   5.686  21.610  0.00  0.00    -0.222 OA
ATOM     25  H   UNL     1       7.521   5.498  20.773  0.00  0.00    +0.248 HD
ENDBRANCH  21  24
ENDBRANCH  20  21
ENDBRANCH  15  20
ENDBRANCH   1  13
BRANCH   5  26
ATOM     26  O   UNL     1       4.156  -4.804  25.355  0.00  0.00    -0.506 OA
ATOM     27  H   UNL     1       3.403  -5.383  25.115  0.00  0.00    +0.292 HD
ENDBRANCH   5  26
BRANCH   7  28
ATOM     28  O   UNL     1       5.638  -6.381  21.120  0.00  0.00    -0.507 OA
ATOM     29  H   UNL     1       6.396  -6.992  21.284  0.00  0.00    +0.292 HD
ENDBRANCH   7  28
BRANCH  11  30
ATOM     30  O   UNL     1       6.675   0.086  25.383  0.00  0.00    -0.453 OA
BRANCH  30  31
ATOM     31  C   UNL     1       5.874   1.283  25.307  0.00  0.00    +0.340 C 
ATOM     32  O   UNL     1       6.707   2.452  25.473  0.00  0.00    -0.331 OA
ATOM     33  C   UNL     1       7.102   2.881  26.810  0.00  0.00    +0.179 C 
ATOM     34  C   UNL     1       6.401   2.267  28.072  0.00  0.00    +0.177 C 
ATOM     35  C   UNL     1       5.536   1.046  27.764  0.00  0.00    +0.180 C 
ATOM     36  C   UNL     1       4.822   1.306  26.423  0.00  0.00    +0.214 C 
BRANCH  34  37
ATOM     37  O   UNL     1       5.569   3.231  28.739  0.00  0.00    -0.386 OA
ATOM     38  H   UNL     1       5.703   4.100  28.313  0.00  0.00    +0.210 HD
ENDBRANCH  34  37
BRANCH  35  39
ATOM     39  O   UNL     1       6.348  -0.133  27.816  0.00  0.00    -0.386 OA
ATOM     40  H   UNL     1       6.649  -0.263  28.738  0.00  0.00    +0.210 HD
ENDBRANCH  35  39
BRANCH  36  41
ATOM     41  O   UNL     1       3.711   0.442  26.215  0.00  0.00    -0.383 OA
ATOM     42  H   UNL     1       2.934   0.962  25.928  0.00  0.00    +0.210 HD
ENDBRANCH  36  41
BRANCH  33  43
ATOM     43  C   UNL     1       6.991   4.429  26.836  0.00  0.00    +0.190 C 
BRANCH  43  44
ATOM     44  O   UNL     1       6.001   4.917  25.928  0.00  0.00    -0.392 OA
ATOM     45  H   UNL     1       5.960   4.282  25.192  0.00  0.00    +0.210 HD
ENDBRANCH  43  44
ENDBRANCH  33  43
ENDBRANCH  30  31
ENDBRANCH  11  30
TORSDOF 14
ENDMDL
