MODEL 1
REMARK VINA RESULT:      -7.3      0.000      0.000
REMARK  Name = 
REMARK  16 active torsions:
REMARK  status: ('A' for Active; 'I' for Inactive)
REMARK    1  A    between atoms: C_1  and  C_2
REMARK    2  A    between atoms: C_4  and  O_52
REMARK    3  A    between atoms: C_6  and  O_51
REMARK    4  A    between atoms: C_8  and  O_50
REMARK    5  A    between atoms: C_10  and  O_13
REMARK    6  A    between atoms: O_13  and  C_14
REMARK    7  A    between atoms: C_16  and  O_49
REMARK    8  A    between atoms: C_21  and  C_41
REMARK    9  A    between atoms: C_22  and  O_25
REMARK   10  A    between atoms: O_25  and  C_26
REMARK   11  A    between atoms: C_28  and  O_40
REMARK   12  A    between atoms: C_30  and  O_39
REMARK   13  A    between atoms: C_32  and  O_38
REMARK   14  A    between atoms: C_34  and  C_37
REMARK   15  A    between atoms: C_43  and  O_48
REMARK   16  A    between atoms: C_44  and  O_47
REMARK                            x       y       z     vdW  Elec       q    Type
REMARK                         _______ _______ _______ _____ _____    ______ ____
ROOT
ATOM      1  C   UNL     1       7.035  -3.750  24.391  0.00  0.00    +0.131 A 
ATOM      2  C   UNL     1       6.496  -2.668  25.098  0.00  0.00    +0.093 A 
ATOM      3  C   UNL     1       7.214  -1.470  25.184  0.00  0.00    +0.147 A 
ATOM      4  O   UNL     1       6.671  -0.422  25.896  0.00  0.00    -0.451 OA
ATOM      5  C   UNL     1       7.268   0.837  25.770  0.00  0.00    +0.181 A 
ATOM      6  C   UNL     1       8.481   1.061  25.211  0.00  0.00    +0.214 A 
ATOM      7  C   UNL     1       9.249  -0.179  24.888  0.00  0.00    +0.238 A 
ATOM      8  O   UNL     1      10.472  -0.215  24.965  0.00  0.00    -0.283 OA
ATOM      9  C   UNL     1       8.463  -1.372  24.586  0.00  0.00    +0.109 A 
ATOM     10  C   UNL     1       8.964  -2.418  23.811  0.00  0.00    +0.135 A 
ATOM     11  C   UNL     1       8.251  -3.606  23.717  0.00  0.00    +0.092 A 
ENDROOT
BRANCH   5  12
ATOM     12  C   UNL     1       6.472   1.909  26.399  0.00  0.00    +0.025 A 
ATOM     13  C   UNL     1       5.340   2.411  25.726  0.00  0.00    +0.015 A 
ATOM     14  C   UNL     1       4.555   3.422  26.293  0.00  0.00    +0.050 A 
ATOM     15  C   UNL     1       4.907   3.934  27.533  0.00  0.00    +0.158 A 
ATOM     16  C   UNL     1       6.035   3.461  28.199  0.00  0.00    +0.159 A 
ATOM     17  C   UNL     1       6.824   2.453  27.644  0.00  0.00    +0.060 A 
BRANCH  15  18
ATOM     18  O   UNL     1       4.138   4.913  28.089  0.00  0.00    -0.503 OA
ATOM     19  H   UNL     1       4.424   4.955  29.022  0.00  0.00    +0.292 HD
ENDBRANCH  15  18
BRANCH  16  20
ATOM     20  O   UNL     1       6.330   4.031  29.408  0.00  0.00    -0.503 OA
ATOM     21  H   UNL     1       7.270   4.274  29.415  0.00  0.00    +0.292 HD
ENDBRANCH  16  20
ENDBRANCH   5  12
BRANCH  10  22
ATOM     22  O   UNL     1      10.129  -2.277  23.116  0.00  0.00    -0.506 OA
ATOM     23  H   UNL     1      10.352  -1.336  23.035  0.00  0.00    +0.292 HD
ENDBRANCH  10  22
BRANCH   1  24
ATOM     24  O   UNL     1       6.512  -5.005  24.279  0.00  0.00    -0.461 OA
BRANCH  24  28
ATOM     25  C   UNL     1       2.921  -5.462  26.658  0.00  0.00    +0.041 C 
ATOM     26  C   UNL     1       3.582  -6.564  25.837  0.00  0.00    +0.150 C 
ATOM     27  O   UNL     1       4.944  -6.251  25.522  0.00  0.00    -0.334 OA
ATOM     28  C   UNL     1       5.122  -5.209  24.556  0.00  0.00    +0.339 C 
ATOM     29  C   UNL     1       4.451  -5.583  23.212  0.00  0.00    +0.214 C 
ATOM     30  C   UNL     1       2.984  -5.980  23.418  0.00  0.00    +0.180 C 
ATOM     31  C   UNL     1       2.827  -6.984  24.566  0.00  0.00    +0.174 C 
BRANCH  29  32
ATOM     32  O   UNL     1       4.535  -4.494  22.277  0.00  0.00    -0.383 OA
ATOM     33  H   UNL     1       4.053  -3.737  22.660  0.00  0.00    +0.210 HD
ENDBRANCH  29  32
BRANCH  30  34
ATOM     34  O   UNL     1       2.165  -4.813  23.591  0.00  0.00    -0.386 OA
ATOM     35  H   UNL     1       2.315  -4.179  22.873  0.00  0.00    +0.210 HD
ENDBRANCH  30  34
BRANCH  31  36
ATOM     36  O   UNL     1       3.357  -8.248  24.128  0.00  0.00    -0.387 OA
ATOM     37  H   UNL     1       4.160  -8.439  24.650  0.00  0.00    +0.210 HD
ENDBRANCH  31  36
ENDBRANCH  24  28
ENDBRANCH   1  24
BRANCH   6  38
ATOM     38  O   UNL     1       9.051   2.327  25.064  0.00  0.00    -0.453 OA
BRANCH  38  39
ATOM     39  C   UNL     1       9.397   2.675  23.712  0.00  0.00    +0.339 C 
ATOM     40  O   UNL     1       9.934   4.002  23.601  0.00  0.00    -0.334 OA
ATOM     41  C   UNL     1       8.997   5.075  23.707  0.00  0.00    +0.150 C 
ATOM     42  C   UNL     1       9.784   6.382  23.548  0.00  0.00    +0.041 C 
ATOM     43  C   UNL     1       7.900   4.954  22.642  0.00  0.00    +0.174 C 
ATOM     44  C   UNL     1       7.199   3.602  22.842  0.00  0.00    +0.180 C 
ATOM     45  C   UNL     1       8.208   2.455  22.749  0.00  0.00    +0.214 C 
BRANCH  43  46
ATOM     46  O   UNL     1       6.980   6.040  22.770  0.00  0.00    -0.387 OA
ATOM     47  H   UNL     1       6.799   6.164  23.720  0.00  0.00    +0.210 HD
ENDBRANCH  43  46
BRANCH  44  48
ATOM     48  O   UNL     1       6.153   3.432  21.874  0.00  0.00    -0.386 OA
ATOM     49  H   UNL     1       5.364   3.121  22.365  0.00  0.00    +0.210 HD
ENDBRANCH  44  48
BRANCH  45  50
ATOM     50  O   UNL     1       8.658   2.358  21.382  0.00  0.00    -0.383 OA
ATOM     51  H   UNL     1       8.056   2.896  20.826  0.00  0.00    +0.210 HD
ENDBRANCH  45  50
ENDBRANCH  38  39
ENDBRANCH   6  38
TORSDOF 14
ENDMDL
MODEL 2
REMARK VINA RESULT:      -7.3      2.362      9.053
REMARK  Name = 
REMARK  16 active torsions:
REMARK  status: ('A' for Active; 'I' for Inactive)
REMARK    1  A    between atoms: C_1  and  C_2
REMARK    2  A    between atoms: C_4  and  O_52
REMARK    3  A    between atoms: C_6  and  O_51
REMARK    4  A    between atoms: C_8  and  O_50
REMARK    5  A    between atoms: C_10  and  O_13
REMARK    6  A    between atoms: O_13  and  C_14
REMARK    7  A    between atoms: C_16  and  O_49
REMARK    8  A    between atoms: C_21  and  C_41
REMARK    9  A    between atoms: C_22  and  O_25
REMARK   10  A    between atoms: O_25  and  C_26
REMARK   11  A    between atoms: C_28  and  O_40
REMARK   12  A    between atoms: C_30  and  O_39
REMARK   13  A    between atoms: C_32  and  O_38
REMARK   14  A    between atoms: C_34  and  C_37
REMARK   15  A    between atoms: C_43  and  O_48
REMARK   16  A    between atoms: C_44  and  O_47
REMARK                            x       y       z     vdW  Elec       q    Type
REMARK                         _______ _______ _______ _____ _____    ______ ____
ROOT
ATOM      1  C   UNL     1       9.666   1.548  23.728  0.00  0.00    +0.131 A 
ATOM      2  C   UNL     1       8.783   1.045  24.692  0.00  0.00    +0.093 A 
ATOM      3  C   UNL     1       8.157  -0.189  24.482  0.00  0.00    +0.147 A 
ATOM      4  O   UNL     1       7.282  -0.658  25.437  0.00  0.00    -0.451 OA
ATOM      5  C   UNL     1       6.858  -1.988  25.342  0.00  0.00    +0.181 A 
ATOM      6  C   UNL     1       7.033  -2.777  24.256  0.00  0.00    +0.214 A 
ATOM      7  C   UNL     1       7.564  -2.062  23.055  0.00  0.00    +0.238 A 
ATOM      8  O   UNL     1       7.236  -2.385  21.918  0.00  0.00    -0.283 OA
ATOM      9  C   UNL     1       8.401  -0.893  23.311  0.00  0.00    +0.109 A 
ATOM     10  C   UNL     1       9.344  -0.437  22.389  0.00  0.00    +0.135 A 
ATOM     11  C   UNL     1       9.972   0.784  22.597  0.00  0.00    +0.092 A 
ENDROOT
BRANCH   5  12
ATOM     12  C   UNL     1       6.106  -2.432  26.533  0.00  0.00    +0.025 A 
ATOM     13  C   UNL     1       5.078  -1.613  27.042  0.00  0.00    +0.015 A 
ATOM     14  C   UNL     1       4.337  -2.002  28.164  0.00  0.00    +0.050 A 
ATOM     15  C   UNL     1       4.629  -3.210  28.780  0.00  0.00    +0.158 A 
ATOM     16  C   UNL     1       5.656  -4.019  28.298  0.00  0.00    +0.159 A 
ATOM     17  C   UNL     1       6.400  -3.641  27.181  0.00  0.00    +0.060 A 
BRANCH  15  18
ATOM     18  O   UNL     1       3.902  -3.593  29.868  0.00  0.00    -0.503 OA
ATOM     19  H   UNL     1       3.982  -2.848  30.496  0.00  0.00    +0.292 HD
ENDBRANCH  15  18
BRANCH  16  20
ATOM     20  O   UNL     1       5.898  -5.185  28.972  0.00  0.00    -0.503 OA
ATOM     21  H   UNL     1       5.940  -4.991  29.923  0.00  0.00    +0.292 HD
ENDBRANCH  16  20
ENDBRANCH   5  12
BRANCH  10  22
ATOM     22  O   UNL     1       9.681  -1.189  21.303  0.00  0.00    -0.506 OA
ATOM     23  H   UNL     1      10.295  -1.894  21.568  0.00  0.00    +0.292 HD
ENDBRANCH  10  22
BRANCH   1  24
ATOM     24  O   UNL     1      10.290   2.761  23.734  0.00  0.00    -0.461 OA
BRANCH  24  28
ATOM     25  C   UNL     1       6.946   5.120  25.150  0.00  0.00    +0.041 C 
ATOM     26  C   UNL     1       7.378   4.986  23.694  0.00  0.00    +0.150 C 
ATOM     27  O   UNL     1       8.210   3.839  23.487  0.00  0.00    -0.334 OA
ATOM     28  C   UNL     1       9.530   3.936  24.033  0.00  0.00    +0.339 C 
ATOM     29  C   UNL     1      10.295   5.131  23.415  0.00  0.00    +0.214 C 
ATOM     30  C   UNL     1       9.487   6.429  23.537  0.00  0.00    +0.180 C 
ATOM     31  C   UNL     1       8.035   6.234  23.082  0.00  0.00    +0.174 C 
BRANCH  29  32
ATOM     32  O   UNL     1      11.579   5.295  24.039  0.00  0.00    -0.383 OA
ATOM     33  H   UNL     1      11.430   5.666  24.930  0.00  0.00    +0.210 HD
ENDBRANCH  29  32
BRANCH  30  34
ATOM     34  O   UNL     1       9.581   6.957  24.869  0.00  0.00    -0.386 OA
ATOM     35  H   UNL     1       8.724   7.309  25.159  0.00  0.00    +0.210 HD
ENDBRANCH  30  34
BRANCH  31  36
ATOM     36  O   UNL     1       8.033   6.086  21.652  0.00  0.00    -0.387 OA
ATOM     37  H   UNL     1       7.109   5.965  21.359  0.00  0.00    +0.210 HD
ENDBRANCH  31  36
ENDBRANCH  24  28
ENDBRANCH   1  24
BRANCH   6  38
ATOM     38  O   UNL     1       6.632  -4.112  24.187  0.00  0.00    -0.453 OA
BRANCH  38  39
ATOM     39  C   UNL     1       5.498  -4.354  23.337  0.00  0.00    +0.339 C 
ATOM     40  O   UNL     1       4.312  -3.681  23.789  0.00  0.00    -0.334 OA
ATOM     41  C   UNL     1       3.661  -4.245  24.929  0.00  0.00    +0.150 C 
ATOM     42  C   UNL     1       2.428  -3.379  25.220  0.00  0.00    +0.041 C 
ATOM     43  C   UNL     1       3.267  -5.704  24.672  0.00  0.00    +0.174 C 
ATOM     44  C   UNL     1       4.548  -6.484  24.340  0.00  0.00    +0.180 C 
ATOM     45  C   UNL     1       5.255  -5.867  23.131  0.00  0.00    +0.214 C 
BRANCH  43  46
ATOM     46  O   UNL     1       2.616  -6.240  25.825  0.00  0.00    -0.387 OA
ATOM     47  H   UNL     1       2.396  -7.170  25.633  0.00  0.00    +0.210 HD
ENDBRANCH  43  46
BRANCH  44  48
ATOM     48  O   UNL     1       4.244  -7.865  24.093  0.00  0.00    -0.386 OA
ATOM     49  H   UNL     1       3.284  -7.911  23.902  0.00  0.00    +0.210 HD
ENDBRANCH  44  48
BRANCH  45  50
ATOM     50  O   UNL     1       4.448  -6.109  21.961  0.00  0.00    -0.383 OA
ATOM     51  H   UNL     1       3.580  -6.456  22.259  0.00  0.00    +0.210 HD
ENDBRANCH  45  50
ENDBRANCH  38  39
ENDBRANCH   6  38
TORSDOF 14
ENDMDL
MODEL 3
REMARK VINA RESULT:      -7.2      1.163      2.037
REMARK  Name = 
REMARK  16 active torsions:
REMARK  status: ('A' for Active; 'I' for Inactive)
REMARK    1  A    between atoms: C_1  and  C_2
REMARK    2  A    between atoms: C_4  and  O_52
REMARK    3  A    between atoms: C_6  and  O_51
REMARK    4  A    between atoms: C_8  and  O_50
REMARK    5  A    between atoms: C_10  and  O_13
REMARK    6  A    between atoms: O_13  and  C_14
REMARK    7  A    between atoms: C_16  and  O_49
REMARK    8  A    between atoms: C_21  and  C_41
REMARK    9  A    between atoms: C_22  and  O_25
REMARK   10  A    between atoms: O_25  and  C_26
REMARK   11  A    between atoms: C_28  and  O_40
REMARK   12  A    between atoms: C_30  and  O_39
REMARK   13  A    between atoms: C_32  and  O_38
REMARK   14  A    between atoms: C_34  and  C_37
REMARK   15  A    between atoms: C_43  and  O_48
REMARK   16  A    between atoms: C_44  and  O_47
REMARK                            x       y       z     vdW  Elec       q    Type
REMARK                         _______ _______ _______ _____ _____    ______ ____
ROOT
ATOM      1  C   UNL     1       8.149  -3.568  25.199  0.00  0.00    +0.131 A 
ATOM      2  C   UNL     1       7.547  -2.506  25.885  0.00  0.00    +0.093 A 
ATOM      3  C   UNL     1       8.030  -1.205  25.710  0.00  0.00    +0.147 A 
ATOM      4  O   UNL     1       7.432  -0.177  26.406  0.00  0.00    -0.451 OA
ATOM      5  C   UNL     1       7.750   1.136  26.040  0.00  0.00    +0.181 A 
ATOM      6  C   UNL     1       8.782   1.482  25.235  0.00  0.00    +0.214 A 
ATOM      7  C   UNL     1       9.702   0.355  24.893  0.00  0.00    +0.238 A 
ATOM      8  O   UNL     1      10.904   0.534  24.733  0.00  0.00    -0.283 OA
ATOM      9  C   UNL     1       9.115  -0.981  24.872  0.00  0.00    +0.109 A 
ATOM     10  C   UNL     1       9.661  -2.023  24.122  0.00  0.00    +0.135 A 
ATOM     11  C   UNL     1       9.180  -3.315  24.288  0.00  0.00    +0.092 A 
ENDROOT
BRANCH   5  12
ATOM     12  C   UNL     1       6.888   2.135  26.703  0.00  0.00    +0.025 A 
ATOM     13  C   UNL     1       5.739   2.604  26.034  0.00  0.00    +0.015 A 
ATOM     14  C   UNL     1       4.893   3.545  26.631  0.00  0.00    +0.050 A 
ATOM     15  C   UNL     1       5.199   4.020  27.898  0.00  0.00    +0.158 A 
ATOM     16  C   UNL     1       6.343   3.580  28.560  0.00  0.00    +0.159 A 
ATOM     17  C   UNL     1       7.193   2.642  27.975  0.00  0.00    +0.060 A 
BRANCH  15  18
ATOM     18  O   UNL     1       4.370   4.931  28.483  0.00  0.00    -0.503 OA
ATOM     19  H   UNL     1       4.223   5.611  27.797  0.00  0.00    +0.292 HD
ENDBRANCH  15  18
BRANCH  16  20
ATOM     20  O   UNL     1       6.589   4.111  29.798  0.00  0.00    -0.503 OA
ATOM     21  H   UNL     1       7.227   3.541  30.258  0.00  0.00    +0.292 HD
ENDBRANCH  16  20
ENDBRANCH   5  12
BRANCH  10  22
ATOM     22  O   UNL     1      10.640  -1.784  23.203  0.00  0.00    -0.506 OA
ATOM     23  H   UNL     1      11.235  -2.549  23.149  0.00  0.00    +0.292 HD
ENDBRANCH  10  22
BRANCH   1  24
ATOM     24  O   UNL     1       7.861  -4.897  25.317  0.00  0.00    -0.461 OA
BRANCH  24  28
ATOM     25  C   UNL     1       6.275  -6.392  21.574  0.00  0.00    +0.041 C 
ATOM     26  C   UNL     1       5.775  -5.155  22.313  0.00  0.00    +0.150 C 
ATOM     27  O   UNL     1       6.738  -4.672  23.257  0.00  0.00    -0.334 OA
ATOM     28  C   UNL     1       6.914  -5.488  24.421  0.00  0.00    +0.339 C 
ATOM     29  C   UNL     1       5.586  -5.625  25.203  0.00  0.00    +0.214 C 
ATOM     30  C   UNL     1       4.452  -6.104  24.289  0.00  0.00    +0.180 C 
ATOM     31  C   UNL     1       4.400  -5.297  22.985  0.00  0.00    +0.174 C 
BRANCH  29  32
ATOM     32  O   UNL     1       5.735  -6.531  26.310  0.00  0.00    -0.383 OA
ATOM     33  H   UNL     1       6.623  -6.389  26.690  0.00  0.00    +0.210 HD
ENDBRANCH  29  32
BRANCH  30  34
ATOM     34  O   UNL     1       4.552  -7.517  24.057  0.00  0.00    -0.386 OA
ATOM     35  H   UNL     1       5.479  -7.781  23.941  0.00  0.00    +0.210 HD
ENDBRANCH  30  34
BRANCH  31  36
ATOM     36  O   UNL     1       3.916  -3.979  23.296  0.00  0.00    -0.387 OA
ATOM     37  H   UNL     1       3.701  -3.950  24.248  0.00  0.00    +0.210 HD
ENDBRANCH  31  36
ENDBRANCH  24  28
ENDBRANCH   1  24
BRANCH   6  38
ATOM     38  O   UNL     1       9.068   2.795  24.854  0.00  0.00    -0.453 OA
BRANCH  38  39
ATOM     39  C   UNL     1       9.190   2.993  23.435  0.00  0.00    +0.339 C 
ATOM     40  O   UNL     1       9.102   4.376  23.058  0.00  0.00    -0.334 OA
ATOM     41  C   UNL     1       7.798   4.959  23.093  0.00  0.00    +0.150 C 
ATOM     42  C   UNL     1       7.943   6.419  22.646  0.00  0.00    +0.041 C 
ATOM     43  C   UNL     1       6.829   4.193  22.186  0.00  0.00    +0.174 C 
ATOM     44  C   UNL     1       6.783   2.737  22.671  0.00  0.00    +0.180 C 
ATOM     45  C   UNL     1       8.183   2.120  22.652  0.00  0.00    +0.214 C 
BRANCH  43  46
ATOM     46  O   UNL     1       5.535   4.799  22.238  0.00  0.00    -0.387 OA
ATOM     47  H   UNL     1       4.934   4.257  21.696  0.00  0.00    +0.210 HD
ENDBRANCH  43  46
BRANCH  44  48
ATOM     48  O   UNL     1       5.883   1.967  21.860  0.00  0.00    -0.386 OA
ATOM     49  H   UNL     1       5.035   2.457  21.839  0.00  0.00    +0.210 HD
ENDBRANCH  44  48
BRANCH  45  50
ATOM     50  O   UNL     1       8.591   1.963  21.277  0.00  0.00    -0.383 OA
ATOM     51  H   UNL     1       9.551   1.763  21.268  0.00  0.00    +0.210 HD
ENDBRANCH  45  50
ENDBRANCH  38  39
ENDBRANCH   6  38
TORSDOF 14
ENDMDL
MODEL 4
REMARK VINA RESULT:      -7.2      2.490      9.718
REMARK  Name = 
REMARK  16 active torsions:
REMARK  status: ('A' for Active; 'I' for Inactive)
REMARK    1  A    between atoms: C_1  and  C_2
REMARK    2  A    between atoms: C_4  and  O_52
REMARK    3  A    between atoms: C_6  and  O_51
REMARK    4  A    between atoms: C_8  and  O_50
REMARK    5  A    between atoms: C_10  and  O_13
REMARK    6  A    between atoms: O_13  and  C_14
REMARK    7  A    between atoms: C_16  and  O_49
REMARK    8  A    between atoms: C_21  and  C_41
REMARK    9  A    between atoms: C_22  and  O_25
REMARK   10  A    between atoms: O_25  and  C_26
REMARK   11  A    between atoms: C_28  and  O_40
REMARK   12  A    between atoms: C_30  and  O_39
REMARK   13  A    between atoms: C_32  and  O_38
REMARK   14  A    between atoms: C_34  and  C_37
REMARK   15  A    between atoms: C_43  and  O_48
REMARK   16  A    between atoms: C_44  and  O_47
REMARK                            x       y       z     vdW  Elec       q    Type
REMARK                         _______ _______ _______ _____ _____    ______ ____
ROOT
ATOM      1  C   UNL     1       7.782  -1.821  23.425  0.00  0.00    +0.131 A 
ATOM      2  C   UNL     1       6.776  -2.751  23.135  0.00  0.00    +0.093 A 
ATOM      3  C   UNL     1       6.528  -3.802  24.024  0.00  0.00    +0.147 A 
ATOM      4  O   UNL     1       5.542  -4.714  23.713  0.00  0.00    -0.451 OA
ATOM      5  C   UNL     1       5.133  -5.605  24.711  0.00  0.00    +0.181 A 
ATOM      6  C   UNL     1       5.795  -5.817  25.873  0.00  0.00    +0.214 A 
ATOM      7  C   UNL     1       7.131  -5.152  25.950  0.00  0.00    +0.238 A 
ATOM      8  O   UNL     1       8.068  -5.662  26.556  0.00  0.00    -0.283 OA
ATOM      9  C   UNL     1       7.295  -3.926  25.175  0.00  0.00    +0.109 A 
ATOM     10  C   UNL     1       8.239  -2.954  25.508  0.00  0.00    +0.135 A 
ATOM     11  C   UNL     1       8.484  -1.905  24.632  0.00  0.00    +0.092 A 
ENDROOT
BRANCH   5  12
ATOM     12  C   UNL     1       3.933  -6.375  24.329  0.00  0.00    +0.025 A 
ATOM     13  C   UNL     1       3.090  -5.877  23.314  0.00  0.00    +0.015 A 
ATOM     14  C   UNL     1       1.947  -6.581  22.917  0.00  0.00    +0.050 A 
ATOM     15  C   UNL     1       1.645  -7.782  23.541  0.00  0.00    +0.158 A 
ATOM     16  C   UNL     1       2.458  -8.274  24.559  0.00  0.00    +0.159 A 
ATOM     17  C   UNL     1       3.599  -7.582  24.962  0.00  0.00    +0.060 A 
BRANCH  15  18
ATOM     18  O   UNL     1       0.536  -8.472  23.150  0.00  0.00    -0.503 OA
ATOM     19  H   UNL     1       0.819  -8.970  22.358  0.00  0.00    +0.292 HD
ENDBRANCH  15  18
BRANCH  16  20
ATOM     20  O   UNL     1       2.082  -9.455  25.141  0.00  0.00    -0.503 OA
ATOM     21  H   UNL     1       1.429  -9.889  24.567  0.00  0.00    +0.292 HD
ENDBRANCH  16  20
ENDBRANCH   5  12
BRANCH  10  22
ATOM     22  O   UNL     1       8.901  -3.003  26.699  0.00  0.00    -0.506 OA
ATOM     23  H   UNL     1       8.265  -2.966  27.432  0.00  0.00    +0.292 HD
ENDBRANCH  10  22
BRANCH   1  24
ATOM     24  O   UNL     1       8.209  -0.793  22.635  0.00  0.00    -0.461 OA
BRANCH  24  28
ATOM     25  C   UNL     1       7.564   2.461  25.420  0.00  0.00    +0.041 C 
ATOM     26  C   UNL     1       6.553   1.967  24.390  0.00  0.00    +0.150 C 
ATOM     27  O   UNL     1       6.864   0.647  23.927  0.00  0.00    -0.334 OA
ATOM     28  C   UNL     1       8.012   0.554  23.076  0.00  0.00    +0.339 C 
ATOM     29  C   UNL     1       7.826   1.416  21.804  0.00  0.00    +0.214 C 
ATOM     30  C   UNL     1       7.448   2.859  22.164  0.00  0.00    +0.180 C 
ATOM     31  C   UNL     1       6.314   2.904  23.196  0.00  0.00    +0.174 C 
BRANCH  29  32
ATOM     32  O   UNL     1       9.018   1.410  21.002  0.00  0.00    -0.383 OA
ATOM     33  H   UNL     1       9.297   2.338  20.879  0.00  0.00    +0.210 HD
ENDBRANCH  29  32
BRANCH  30  34
ATOM     34  O   UNL     1       8.607   3.594  22.586  0.00  0.00    -0.386 OA
ATOM     35  H   UNL     1       8.391   4.174  23.333  0.00  0.00    +0.210 HD
ENDBRANCH  30  34
BRANCH  31  36
ATOM     36  O   UNL     1       5.100   2.496  22.542  0.00  0.00    -0.387 OA
ATOM     37  H   UNL     1       5.327   1.825  21.869  0.00  0.00    +0.210 HD
ENDBRANCH  31  36
ENDBRANCH  24  28
ENDBRANCH   1  24
BRANCH   6  38
ATOM     38  O   UNL     1       5.358  -6.687  26.873  0.00  0.00    -0.453 OA
BRANCH  38  39
ATOM     39  C   UNL     1       5.075  -6.055  28.134  0.00  0.00    +0.339 C 
ATOM     40  O   UNL     1       4.320  -6.897  29.019  0.00  0.00    -0.334 OA
ATOM     41  C   UNL     1       2.933  -7.056  28.713  0.00  0.00    +0.150 C 
ATOM     42  C   UNL     1       2.334  -7.975  29.785  0.00  0.00    +0.041 C 
ATOM     43  C   UNL     1       2.219  -5.700  28.680  0.00  0.00    +0.174 C 
ATOM     44  C   UNL     1       2.912  -4.830  27.620  0.00  0.00    +0.180 C 
ATOM     45  C   UNL     1       4.401  -4.678  27.939  0.00  0.00    +0.214 C 
BRANCH  43  46
ATOM     46  O   UNL     1       0.836  -5.888  28.374  0.00  0.00    -0.387 OA
ATOM     47  H   UNL     1       0.492  -6.575  28.975  0.00  0.00    +0.210 HD
ENDBRANCH  43  46
BRANCH  44  48
ATOM     48  O   UNL     1       2.281  -3.543  27.539  0.00  0.00    -0.386 OA
ATOM     49  H   UNL     1       1.317  -3.697  27.623  0.00  0.00    +0.210 HD
ENDBRANCH  44  48
BRANCH  45  50
ATOM     50  O   UNL     1       4.530  -3.864  29.123  0.00  0.00    -0.383 OA
ATOM     51  H   UNL     1       4.496  -4.458  29.903  0.00  0.00    +0.210 HD
ENDBRANCH  45  50
ENDBRANCH  38  39
ENDBRANCH   6  38
TORSDOF 14
ENDMDL
MODEL 5
REMARK VINA RESULT:      -7.1      1.321      2.392
REMARK  Name = 
REMARK  16 active torsions:
REMARK  status: ('A' for Active; 'I' for Inactive)
REMARK    1  A    between atoms: C_1  and  C_2
REMARK    2  A    between atoms: C_4  and  O_52
REMARK    3  A    between atoms: C_6  and  O_51
REMARK    4  A    between atoms: C_8  and  O_50
REMARK    5  A    between atoms: C_10  and  O_13
REMARK    6  A    between atoms: O_13  and  C_14
REMARK    7  A    between atoms: C_16  and  O_49
REMARK    8  A    between atoms: C_21  and  C_41
REMARK    9  A    between atoms: C_22  and  O_25
REMARK   10  A    between atoms: O_25  and  C_26
REMARK   11  A    between atoms: C_28  and  O_40
REMARK   12  A    between atoms: C_30  and  O_39
REMARK   13  A    between atoms: C_32  and  O_38
REMARK   14  A    between atoms: C_34  and  C_37
REMARK   15  A    between atoms: C_43  and  O_48
REMARK   16  A    between atoms: C_44  and  O_47
REMARK                            x       y       z     vdW  Elec       q    Type
REMARK                         _______ _______ _______ _____ _____    ______ ____
ROOT
ATOM      1  C   UNL     1       7.404  -3.823  24.592  0.00  0.00    +0.131 A 
ATOM      2  C   UNL     1       6.716  -2.774  25.213  0.00  0.00    +0.093 A 
ATOM      3  C   UNL     1       7.303  -1.506  25.285  0.00  0.00    +0.147 A 
ATOM      4  O   UNL     1       6.613  -0.491  25.913  0.00  0.00    -0.451 OA
ATOM      5  C   UNL     1       7.087   0.816  25.763  0.00  0.00    +0.181 A 
ATOM      6  C   UNL     1       8.304   1.141  25.266  0.00  0.00    +0.214 A 
ATOM      7  C   UNL     1       9.212  -0.025  25.048  0.00  0.00    +0.238 A 
ATOM      8  O   UNL     1      10.426   0.068  25.199  0.00  0.00    -0.283 OA
ATOM      9  C   UNL     1       8.571  -1.305  24.758  0.00  0.00    +0.109 A 
ATOM     10  C   UNL     1       9.223  -2.324  24.064  0.00  0.00    +0.135 A 
ATOM     11  C   UNL     1       8.640  -3.582  23.984  0.00  0.00    +0.092 A 
ENDROOT
BRANCH   5  12
ATOM     12  C   UNL     1       6.150   1.826  26.293  0.00  0.00    +0.025 A 
ATOM     13  C   UNL     1       6.341   2.327  27.596  0.00  0.00    +0.015 A 
ATOM     14  C   UNL     1       5.479   3.290  28.131  0.00  0.00    +0.050 A 
ATOM     15  C   UNL     1       4.420   3.750  27.362  0.00  0.00    +0.158 A 
ATOM     16  C   UNL     1       4.208   3.248  26.080  0.00  0.00    +0.159 A 
ATOM     17  C   UNL     1       5.062   2.288  25.537  0.00  0.00    +0.060 A 
BRANCH  15  18
ATOM     18  O   UNL     1       3.584   4.694  27.880  0.00  0.00    -0.503 OA
ATOM     19  H   UNL     1       4.045   5.026  28.675  0.00  0.00    +0.292 HD
ENDBRANCH  15  18
BRANCH  16  20
ATOM     20  O   UNL     1       3.130   3.734  25.391  0.00  0.00    -0.503 OA
ATOM     21  H   UNL     1       3.453   4.291  24.663  0.00  0.00    +0.292 HD
ENDBRANCH  16  20
ENDBRANCH   5  12
BRANCH  10  22
ATOM     22  O   UNL     1      10.410  -2.092  23.433  0.00  0.00    -0.506 OA
ATOM     23  H   UNL     1      11.037  -1.685  24.052  0.00  0.00    +0.292 HD
ENDBRANCH  10  22
BRANCH   1  24
ATOM     24  O   UNL     1       7.018  -5.129  24.509  0.00  0.00    -0.461 OA
BRANCH  24  28
ATOM     25  C   UNL     1       3.415  -6.895  26.139  0.00  0.00    +0.041 C 
ATOM     26  C   UNL     1       3.896  -5.472  26.399  0.00  0.00    +0.150 C 
ATOM     27  O   UNL     1       4.846  -5.041  25.417  0.00  0.00    -0.334 OA
ATOM     28  C   UNL     1       6.134  -5.659  25.502  0.00  0.00    +0.339 C 
ATOM     29  C   UNL     1       6.790  -5.380  26.876  0.00  0.00    +0.214 C 
ATOM     30  C   UNL     1       5.851  -5.766  28.026  0.00  0.00    +0.180 C 
ATOM     31  C   UNL     1       4.439  -5.207  27.813  0.00  0.00    +0.174 C 
BRANCH  29  32
ATOM     32  O   UNL     1       8.034  -6.089  27.003  0.00  0.00    -0.383 OA
ATOM     33  H   UNL     1       8.424  -5.848  27.866  0.00  0.00    +0.210 HD
ENDBRANCH  29  32
BRANCH  30  34
ATOM     34  O   UNL     1       5.855  -7.188  28.225  0.00  0.00    -0.386 OA
ATOM     35  H   UNL     1       5.519  -7.646  27.439  0.00  0.00    +0.210 HD
ENDBRANCH  30  34
BRANCH  31  36
ATOM     36  O   UNL     1       4.489  -3.783  28.014  0.00  0.00    -0.387 OA
ATOM     37  H   UNL     1       5.227  -3.587  28.622  0.00  0.00    +0.210 HD
ENDBRANCH  31  36
ENDBRANCH  24  28
ENDBRANCH   1  24
BRANCH   6  38
ATOM     38  O   UNL     1       8.752   2.452  25.094  0.00  0.00    -0.453 OA
BRANCH  38  39
ATOM     39  C   UNL     1       9.159   2.774  23.752  0.00  0.00    +0.339 C 
ATOM     40  O   UNL     1       9.718   4.093  23.643  0.00  0.00    -0.334 OA
ATOM     41  C   UNL     1       8.791   5.179  23.692  0.00  0.00    +0.150 C 
ATOM     42  C   UNL     1       9.601   6.473  23.547  0.00  0.00    +0.041 C 
ATOM     43  C   UNL     1       7.739   5.054  22.585  0.00  0.00    +0.174 C 
ATOM     44  C   UNL     1       7.013   3.714  22.776  0.00  0.00    +0.180 C 
ATOM     45  C   UNL     1       8.010   2.553  22.743  0.00  0.00    +0.214 C 
BRANCH  43  46
ATOM     46  O   UNL     1       6.828   6.153  22.656  0.00  0.00    -0.387 OA
ATOM     47  H   UNL     1       7.228   6.830  23.231  0.00  0.00    +0.210 HD
ENDBRANCH  43  46
BRANCH  44  48
ATOM     48  O   UNL     1       6.007   3.541  21.767  0.00  0.00    -0.386 OA
ATOM     49  H   UNL     1       6.365   2.898  21.120  0.00  0.00    +0.210 HD
ENDBRANCH  44  48
BRANCH  45  50
ATOM     50  O   UNL     1       8.516   2.428  21.398  0.00  0.00    -0.383 OA
ATOM     51  H   UNL     1       9.361   2.924  21.346  0.00  0.00    +0.210 HD
ENDBRANCH  45  50
ENDBRANCH  38  39
ENDBRANCH   6  38
TORSDOF 14
ENDMDL
MODEL 6
REMARK VINA RESULT:      -7.1      2.313      9.727
REMARK  Name = 
REMARK  16 active torsions:
REMARK  status: ('A' for Active; 'I' for Inactive)
REMARK    1  A    between atoms: C_1  and  C_2
REMARK    2  A    between atoms: C_4  and  O_52
REMARK    3  A    between atoms: C_6  and  O_51
REMARK    4  A    between atoms: C_8  and  O_50
REMARK    5  A    between atoms: C_10  and  O_13
REMARK    6  A    between atoms: O_13  and  C_14
REMARK    7  A    between atoms: C_16  and  O_49
REMARK    8  A    between atoms: C_21  and  C_41
REMARK    9  A    between atoms: C_22  and  O_25
REMARK   10  A    between atoms: O_25  and  C_26
REMARK   11  A    between atoms: C_28  and  O_40
REMARK   12  A    between atoms: C_30  and  O_39
REMARK   13  A    between atoms: C_32  and  O_38
REMARK   14  A    between atoms: C_34  and  C_37
REMARK   15  A    between atoms: C_43  and  O_48
REMARK   16  A    between atoms: C_44  and  O_47
REMARK                            x       y       z     vdW  Elec       q    Type
REMARK                         _______ _______ _______ _____ _____    ______ ____
ROOT
ATOM      1  C   UNL     1       8.123   0.815  23.635  0.00  0.00    +0.131 A 
ATOM      2  C   UNL     1       7.310  -0.248  23.223  0.00  0.00    +0.093 A 
ATOM      3  C   UNL     1       7.208  -1.393  24.020  0.00  0.00    +0.147 A 
ATOM      4  O   UNL     1       6.412  -2.432  23.590  0.00  0.00    -0.451 OA
ATOM      5  C   UNL     1       6.120  -3.455  24.498  0.00  0.00    +0.181 A 
ATOM      6  C   UNL     1       6.755  -3.641  25.679  0.00  0.00    +0.214 A 
ATOM      7  C   UNL     1       7.949  -2.766  25.880  0.00  0.00    +0.238 A 
ATOM      8  O   UNL     1       8.932  -3.154  26.503  0.00  0.00    -0.283 OA
ATOM      9  C   UNL     1       7.931  -1.473  25.203  0.00  0.00    +0.109 A 
ATOM     10  C   UNL     1       8.675  -0.383  25.657  0.00  0.00    +0.135 A 
ATOM     11  C   UNL     1       8.772   0.757  24.872  0.00  0.00    +0.092 A 
ENDROOT
BRANCH   5  12
ATOM     12  C   UNL     1       5.091  -4.386  23.993  0.00  0.00    +0.025 A 
ATOM     13  C   UNL     1       5.493  -5.558  23.321  0.00  0.00    +0.015 A 
ATOM     14  C   UNL     1       4.549  -6.469  22.835  0.00  0.00    +0.050 A 
ATOM     15  C   UNL     1       3.200  -6.205  23.018  0.00  0.00    +0.158 A 
ATOM     16  C   UNL     1       2.789  -5.041  23.663  0.00  0.00    +0.159 A 
ATOM     17  C   UNL     1       3.722  -4.126  24.152  0.00  0.00    +0.060 A 
BRANCH  15  18
ATOM     18  O   UNL     1       2.279  -7.097  22.552  0.00  0.00    -0.503 OA
ATOM     19  H   UNL     1       2.702  -7.506  21.772  0.00  0.00    +0.292 HD
ENDBRANCH  15  18
BRANCH  16  20
ATOM     20  O   UNL     1       1.440  -4.840  23.787  0.00  0.00    -0.503 OA
ATOM     21  H   UNL     1       1.194  -4.959  24.719  0.00  0.00    +0.292 HD
ENDBRANCH  16  20
ENDBRANCH   5  12
BRANCH  10  22
ATOM     22  O   UNL     1       9.280  -0.411  26.879  0.00  0.00    -0.506 OA
ATOM     23  H   UNL     1       9.668  -1.288  27.035  0.00  0.00    +0.292 HD
ENDBRANCH  10  22
BRANCH   1  24
ATOM     24  O   UNL     1       8.399   1.959  22.944  0.00  0.00    -0.461 OA
BRANCH  24  28
ATOM     25  C   UNL     1       5.144   4.651  23.901  0.00  0.00    +0.041 C 
ATOM     26  C   UNL     1       6.047   4.759  22.677  0.00  0.00    +0.150 C 
ATOM     27  O   UNL     1       6.725   3.526  22.404  0.00  0.00    -0.334 OA
ATOM     28  C   UNL     1       7.758   3.179  23.331  0.00  0.00    +0.339 C 
ATOM     29  C   UNL     1       8.858   4.268  23.363  0.00  0.00    +0.214 C 
ATOM     30  C   UNL     1       8.255   5.656  23.613  0.00  0.00    +0.180 C 
ATOM     31  C   UNL     1       7.053   5.922  22.698  0.00  0.00    +0.174 C 
BRANCH  29  32
ATOM     32  O   UNL     1       9.841   3.975  24.371  0.00  0.00    -0.383 OA
ATOM     33  H   UNL     1      10.633   3.627  23.918  0.00  0.00    +0.210 HD
ENDBRANCH  29  32
BRANCH  30  34
ATOM     34  O   UNL     1       7.937   5.826  25.003  0.00  0.00    -0.386 OA
ATOM     35  H   UNL     1       8.204   5.045  25.514  0.00  0.00    +0.210 HD
ENDBRANCH  30  34
BRANCH  31  36
ATOM     36  O   UNL     1       7.544   6.113  21.361  0.00  0.00    -0.387 OA
ATOM     37  H   UNL     1       6.982   5.595  20.752  0.00  0.00    +0.210 HD
ENDBRANCH  31  36
ENDBRANCH  24  28
ENDBRANCH   1  24
BRANCH   6  38
ATOM     38  O   UNL     1       6.431  -4.649  26.589  0.00  0.00    -0.453 OA
BRANCH  38  39
ATOM     39  C   UNL     1       5.717  -4.197  27.753  0.00  0.00    +0.339 C 
ATOM     40  O   UNL     1       6.119  -4.880  28.951  0.00  0.00    -0.334 OA
ATOM     41  C   UNL     1       5.651  -6.221  29.103  0.00  0.00    +0.150 C 
ATOM     42  C   UNL     1       6.188  -6.739  30.443  0.00  0.00    +0.041 C 
ATOM     43  C   UNL     1       4.120  -6.276  29.059  0.00  0.00    +0.174 C 
ATOM     44  C   UNL     1       3.668  -5.694  27.712  0.00  0.00    +0.180 C 
ATOM     45  C   UNL     1       4.187  -4.266  27.541  0.00  0.00    +0.214 C 
BRANCH  43  46
ATOM     46  O   UNL     1       3.679  -7.627  29.216  0.00  0.00    -0.387 OA
ATOM     47  H   UNL     1       4.027  -8.139  28.464  0.00  0.00    +0.210 HD
ENDBRANCH  43  46
BRANCH  44  48
ATOM     48  O   UNL     1       2.236  -5.725  27.608  0.00  0.00    -0.386 OA
ATOM     49  H   UNL     1       2.001  -5.209  26.808  0.00  0.00    +0.210 HD
ENDBRANCH  44  48
BRANCH  45  50
ATOM     50  O   UNL     1       3.494  -3.416  28.480  0.00  0.00    -0.383 OA
ATOM     51  H   UNL     1       4.168  -2.919  28.991  0.00  0.00    +0.210 HD
ENDBRANCH  45  50
ENDBRANCH  38  39
ENDBRANCH   6  38
TORSDOF 14
ENDMDL
MODEL 7
REMARK VINA RESULT:      -7.0      2.285      9.596
REMARK  Name = 
REMARK  16 active torsions:
REMARK  status: ('A' for Active; 'I' for Inactive)
REMARK    1  A    between atoms: C_1  and  C_2
REMARK    2  A    between atoms: C_4  and  O_52
REMARK    3  A    between atoms: C_6  and  O_51
REMARK    4  A    between atoms: C_8  and  O_50
REMARK    5  A    between atoms: C_10  and  O_13
REMARK    6  A    between atoms: O_13  and  C_14
REMARK    7  A    between atoms: C_16  and  O_49
REMARK    8  A    between atoms: C_21  and  C_41
REMARK    9  A    between atoms: C_22  and  O_25
REMARK   10  A    between atoms: O_25  and  C_26
REMARK   11  A    between atoms: C_28  and  O_40
REMARK   12  A    between atoms: C_30  and  O_39
REMARK   13  A    between atoms: C_32  and  O_38
REMARK   14  A    between atoms: C_34  and  C_37
REMARK   15  A    between atoms: C_43  and  O_48
REMARK   16  A    between atoms: C_44  and  O_47
REMARK                            x       y       z     vdW  Elec       q    Type
REMARK                         _______ _______ _______ _____ _____    ______ ____
ROOT
ATOM      1  C   UNL     1       8.986   0.585  23.765  0.00  0.00    +0.131 A 
ATOM      2  C   UNL     1       7.987  -0.323  23.391  0.00  0.00    +0.093 A 
ATOM      3  C   UNL     1       7.559  -1.296  24.300  0.00  0.00    +0.147 A 
ATOM      4  O   UNL     1       6.584  -2.187  23.907  0.00  0.00    -0.451 OA
ATOM      5  C   UNL     1       5.990  -2.987  24.890  0.00  0.00    +0.181 A 
ATOM      6  C   UNL     1       6.466  -3.141  26.148  0.00  0.00    +0.214 A 
ATOM      7  C   UNL     1       7.808  -2.526  26.379  0.00  0.00    +0.238 A 
ATOM      8  O   UNL     1       8.620  -3.028  27.149  0.00  0.00    -0.283 OA
ATOM      9  C   UNL     1       8.144  -1.367  25.558  0.00  0.00    +0.109 A 
ATOM     10  C   UNL     1       9.078  -0.413  25.962  0.00  0.00    +0.135 A 
ATOM     11  C   UNL     1       9.500   0.560  25.065  0.00  0.00    +0.092 A 
ENDROOT
BRANCH   5  12
ATOM     12  C   UNL     1       4.821  -3.733  24.385  0.00  0.00    +0.025 A 
ATOM     13  C   UNL     1       3.542  -3.437  24.899  0.00  0.00    +0.015 A 
ATOM     14  C   UNL     1       2.407  -4.117  24.441  0.00  0.00    +0.050 A 
ATOM     15  C   UNL     1       2.554  -5.097  23.471  0.00  0.00    +0.158 A 
ATOM     16  C   UNL     1       3.815  -5.413  22.970  0.00  0.00    +0.159 A 
ATOM     17  C   UNL     1       4.952  -4.741  23.419  0.00  0.00    +0.060 A 
BRANCH  15  18
ATOM     18  O   UNL     1       1.448  -5.753  23.018  0.00  0.00    -0.503 OA
ATOM     19  H   UNL     1       1.783  -6.611  22.692  0.00  0.00    +0.292 HD
ENDBRANCH  15  18
BRANCH  16  20
ATOM     20  O   UNL     1       3.881  -6.406  22.030  0.00  0.00    -0.503 OA
ATOM     21  H   UNL     1       4.810  -6.529  21.773  0.00  0.00    +0.292 HD
ENDBRANCH  16  20
ENDBRANCH   5  12
BRANCH  10  22
ATOM     22  O   UNL     1       9.557  -0.401  27.239  0.00  0.00    -0.506 OA
ATOM     23  H   UNL     1       9.525   0.502  27.595  0.00  0.00    +0.292 HD
ENDBRANCH  10  22
BRANCH   1  24
ATOM     24  O   UNL     1       9.573   1.534  22.981  0.00  0.00    -0.461 OA
BRANCH  24  28
ATOM     25  C   UNL     1       9.662   5.707  24.140  0.00  0.00    +0.041 C 
ATOM     26  C   UNL     1       8.672   4.668  24.656  0.00  0.00    +0.150 C 
ATOM     27  O   UNL     1       9.141   3.331  24.442  0.00  0.00    -0.334 OA
ATOM     28  C   UNL     1       9.131   2.892  23.080  0.00  0.00    +0.339 C 
ATOM     29  C   UNL     1       7.698   2.937  22.497  0.00  0.00    +0.214 C 
ATOM     30  C   UNL     1       7.062   4.318  22.697  0.00  0.00    +0.180 C 
ATOM     31  C   UNL     1       7.232   4.813  24.139  0.00  0.00    +0.174 C 
BRANCH  29  32
ATOM     32  O   UNL     1       7.703   2.600  21.099  0.00  0.00    -0.383 OA
ATOM     33  H   UNL     1       8.573   2.856  20.736  0.00  0.00    +0.210 HD
ENDBRANCH  29  32
BRANCH  30  34
ATOM     34  O   UNL     1       7.568   5.252  21.731  0.00  0.00    -0.386 OA
ATOM     35  H   UNL     1       6.839   5.691  21.264  0.00  0.00    +0.210 HD
ENDBRANCH  30  34
BRANCH  31  36
ATOM     36  O   UNL     1       6.371   4.029  24.983  0.00  0.00    -0.387 OA
ATOM     37  H   UNL     1       6.798   3.164  25.135  0.00  0.00    +0.210 HD
ENDBRANCH  31  36
ENDBRANCH  24  28
ENDBRANCH   1  24
BRANCH   6  38
ATOM     38  O   UNL     1       5.845  -3.918  27.128  0.00  0.00    -0.453 OA
BRANCH  38  39
ATOM     39  C   UNL     1       6.332  -5.268  27.218  0.00  0.00    +0.339 C 
ATOM     40  O   UNL     1       5.615  -6.175  26.366  0.00  0.00    -0.334 OA
ATOM     41  C   UNL     1       4.305  -6.548  26.799  0.00  0.00    +0.150 C 
ATOM     42  C   UNL     1       3.742  -7.519  25.754  0.00  0.00    +0.041 C 
ATOM     43  C   UNL     1       4.349  -7.193  28.189  0.00  0.00    +0.174 C 
ATOM     44  C   UNL     1       4.970  -6.176  29.159  0.00  0.00    +0.180 C 
ATOM     45  C   UNL     1       6.364  -5.762  28.683  0.00  0.00    +0.214 C 
BRANCH  43  46
ATOM     46  O   UNL     1       3.028  -7.558  28.596  0.00  0.00    -0.387 OA
ATOM     47  H   UNL     1       2.813  -8.407  28.168  0.00  0.00    +0.210 HD
ENDBRANCH  43  46
BRANCH  44  48
ATOM     48  O   UNL     1       5.033  -6.722  30.485  0.00  0.00    -0.386 OA
ATOM     49  H   UNL     1       4.108  -6.856  30.778  0.00  0.00    +0.210 HD
ENDBRANCH  44  48
BRANCH  45  50
ATOM     50  O   UNL     1       7.248  -6.892  28.830  0.00  0.00    -0.383 OA
ATOM     51  H   UNL     1       7.791  -6.959  28.016  0.00  0.00    +0.210 HD
ENDBRANCH  45  50
ENDBRANCH  38  39
ENDBRANCH   6  38
TORSDOF 14
ENDMDL
MODEL 8
REMARK VINA RESULT:      -6.9      1.837      3.207
REMARK  Name = 
REMARK  16 active torsions:
REMARK  status: ('A' for Active; 'I' for Inactive)
REMARK    1  A    between atoms: C_1  and  C_2
REMARK    2  A    between atoms: C_4  and  O_52
REMARK    3  A    between atoms: C_6  and  O_51
REMARK    4  A    between atoms: C_8  and  O_50
REMARK    5  A    between atoms: C_10  and  O_13
REMARK    6  A    between atoms: O_13  and  C_14
REMARK    7  A    between atoms: C_16  and  O_49
REMARK    8  A    between atoms: C_21  and  C_41
REMARK    9  A    between atoms: C_22  and  O_25
REMARK   10  A    between atoms: O_25  and  C_26
REMARK   11  A    between atoms: C_28  and  O_40
REMARK   12  A    between atoms: C_30  and  O_39
REMARK   13  A    between atoms: C_32  and  O_38
REMARK   14  A    between atoms: C_34  and  C_37
REMARK   15  A    between atoms: C_43  and  O_48
REMARK   16  A    between atoms: C_44  and  O_47
REMARK                            x       y       z     vdW  Elec       q    Type
REMARK                         _______ _______ _______ _____ _____    ______ ____
ROOT
ATOM      1  C   UNL     1       5.176  -6.004  24.364  0.00  0.00    +0.131 A 
ATOM      2  C   UNL     1       5.097  -4.879  25.195  0.00  0.00    +0.093 A 
ATOM      3  C   UNL     1       5.795  -3.716  24.854  0.00  0.00    +0.147 A 
ATOM      4  O   UNL     1       5.714  -2.625  25.692  0.00  0.00    -0.451 OA
ATOM      5  C   UNL     1       6.202  -1.400  25.226  0.00  0.00    +0.181 A 
ATOM      6  C   UNL     1       6.974  -1.248  24.123  0.00  0.00    +0.214 A 
ATOM      7  C   UNL     1       7.439  -2.532  23.516  0.00  0.00    +0.238 A 
ATOM      8  O   UNL     1       8.534  -2.625  22.971  0.00  0.00    -0.283 OA
ATOM      9  C   UNL     1       6.575  -3.694  23.706  0.00  0.00    +0.109 A 
ATOM     10  C   UNL     1       6.588  -4.782  22.833  0.00  0.00    +0.135 A 
ATOM     11  C   UNL     1       5.891  -5.936  23.165  0.00  0.00    +0.092 A 
ENDROOT
BRANCH   5  12
ATOM     12  C   UNL     1       5.862  -0.275  26.118  0.00  0.00    +0.025 A 
ATOM     13  C   UNL     1       5.020   0.751  25.643  0.00  0.00    +0.015 A 
ATOM     14  C   UNL     1       4.668   1.831  26.461  0.00  0.00    +0.050 A 
ATOM     15  C   UNL     1       5.163   1.886  27.756  0.00  0.00    +0.158 A 
ATOM     16  C   UNL     1       6.012   0.889  28.231  0.00  0.00    +0.159 A 
ATOM     17  C   UNL     1       6.369  -0.192  27.424  0.00  0.00    +0.060 A 
BRANCH  15  18
ATOM     18  O   UNL     1       4.814   2.933  28.556  0.00  0.00    -0.503 OA
ATOM     19  H   UNL     1       5.663   3.294  28.878  0.00  0.00    +0.292 HD
ENDBRANCH  15  18
BRANCH  16  20
ATOM     20  O   UNL     1       6.477   1.024  29.511  0.00  0.00    -0.503 OA
ATOM     21  H   UNL     1       5.750   0.832  30.127  0.00  0.00    +0.292 HD
ENDBRANCH  16  20
ENDBRANCH   5  12
BRANCH  10  22
ATOM     22  O   UNL     1       7.249  -4.715  21.642  0.00  0.00    -0.506 OA
ATOM     23  H   UNL     1       8.206  -4.787  21.792  0.00  0.00    +0.292 HD
ENDBRANCH  10  22
BRANCH   1  24
ATOM     24  O   UNL     1       4.632  -7.235  24.588  0.00  0.00    -0.461 OA
BRANCH  24  28
ATOM     25  C   UNL     1       1.014  -8.306  22.461  0.00  0.00    +0.041 C 
ATOM     26  C   UNL     1       1.413  -6.892  22.869  0.00  0.00    +0.150 C 
ATOM     27  O   UNL     1       2.812  -6.794  23.158  0.00  0.00    -0.334 OA
ATOM     28  C   UNL     1       3.230  -7.429  24.371  0.00  0.00    +0.339 C 
ATOM     29  C   UNL     1       2.502  -6.818  25.592  0.00  0.00    +0.214 C 
ATOM     30  C   UNL     1       0.981  -6.828  25.391  0.00  0.00    +0.180 C 
ATOM     31  C   UNL     1       0.591  -6.278  24.014  0.00  0.00    +0.174 C 
BRANCH  29  32
ATOM     32  O   UNL     1       2.839  -7.527  26.797  0.00  0.00    -0.383 OA
ATOM     33  H   UNL     1       3.738  -7.892  26.683  0.00  0.00    +0.210 HD
ENDBRANCH  29  32
BRANCH  30  34
ATOM     34  O   UNL     1       0.449  -8.139  25.631  0.00  0.00    -0.386 OA
ATOM     35  H   UNL     1      -0.006  -8.174  26.488  0.00  0.00    +0.210 HD
ENDBRANCH  30  34
BRANCH  31  36
ATOM     36  O   UNL     1       0.822  -4.858  24.019  0.00  0.00    -0.387 OA
ATOM     37  H   UNL     1       1.341  -4.630  23.224  0.00  0.00    +0.210 HD
ENDBRANCH  31  36
ENDBRANCH  24  28
ENDBRANCH   1  24
BRANCH   6  38
ATOM     38  O   UNL     1       7.429  -0.015  23.652  0.00  0.00    -0.453 OA
BRANCH  38  39
ATOM     39  C   UNL     1       8.634   0.457  24.278  0.00  0.00    +0.339 C 
ATOM     40  O   UNL     1       8.406   1.575  25.150  0.00  0.00    -0.334 OA
ATOM     41  C   UNL     1       8.163   2.833  24.517  0.00  0.00    +0.150 C 
ATOM     42  C   UNL     1       7.960   3.869  25.630  0.00  0.00    +0.041 C 
ATOM     43  C   UNL     1       9.330   3.221  23.602  0.00  0.00    +0.174 C 
ATOM     44  C   UNL     1       9.494   2.110  22.554  0.00  0.00    +0.180 C 
ATOM     45  C   UNL     1       9.733   0.760  23.234  0.00  0.00    +0.214 C 
BRANCH  43  46
ATOM     46  O   UNL     1       9.062   4.482  22.985  0.00  0.00    -0.387 OA
ATOM     47  H   UNL     1       9.853   4.732  22.472  0.00  0.00    +0.210 HD
ENDBRANCH  43  46
BRANCH  44  48
ATOM     48  O   UNL     1      10.573   2.421  21.660  0.00  0.00    -0.386 OA
ATOM     49  H   UNL     1      11.180   3.015  22.148  0.00  0.00    +0.210 HD
ENDBRANCH  44  48
BRANCH  45  50
ATOM     50  O   UNL     1      11.039   0.787  23.847  0.00  0.00    -0.383 OA
ATOM     51  H   UNL     1      11.279   1.724  24.007  0.00  0.00    +0.210 HD
ENDBRANCH  45  50
ENDBRANCH  38  39
ENDBRANCH   6  38
TORSDOF 14
ENDMDL
MODEL 9
REMARK VINA RESULT:      -6.8      2.562      9.014
REMARK  Name = 
REMARK  16 active torsions:
REMARK  status: ('A' for Active; 'I' for Inactive)
REMARK    1  A    between atoms: C_1  and  C_2
REMARK    2  A    between atoms: C_4  and  O_52
REMARK    3  A    between atoms: C_6  and  O_51
REMARK    4  A    between atoms: C_8  and  O_50
REMARK    5  A    between atoms: C_10  and  O_13
REMARK    6  A    between atoms: O_13  and  C_14
REMARK    7  A    between atoms: C_16  and  O_49
REMARK    8  A    between atoms: C_21  and  C_41
REMARK    9  A    between atoms: C_22  and  O_25
REMARK   10  A    between atoms: O_25  and  C_26
REMARK   11  A    between atoms: C_28  and  O_40
REMARK   12  A    between atoms: C_30  and  O_39
REMARK   13  A    between atoms: C_32  and  O_38
REMARK   14  A    between atoms: C_34  and  C_37
REMARK   15  A    between atoms: C_43  and  O_48
REMARK   16  A    between atoms: C_44  and  O_47
REMARK                            x       y       z     vdW  Elec       q    Type
REMARK                         _______ _______ _______ _____ _____    ______ ____
ROOT
ATOM      1  C   UNL     1       7.945   2.427  22.198  0.00  0.00    +0.131 A 
ATOM      2  C   UNL     1       7.214   1.240  22.062  0.00  0.00    +0.093 A 
ATOM      3  C   UNL     1       7.755   0.036  22.525  0.00  0.00    +0.147 A 
ATOM      4  O   UNL     1       7.025  -1.122  22.370  0.00  0.00    -0.451 OA
ATOM      5  C   UNL     1       7.455  -2.267  23.051  0.00  0.00    +0.181 A 
ATOM      6  C   UNL     1       8.664  -2.400  23.645  0.00  0.00    +0.214 A 
ATOM      7  C   UNL     1       9.614  -1.281  23.366  0.00  0.00    +0.238 A 
ATOM      8  O   UNL     1      10.822  -1.472  23.275  0.00  0.00    -0.283 OA
ATOM      9  C   UNL     1       9.021   0.026  23.097  0.00  0.00    +0.109 A 
ATOM     10  C   UNL     1       9.715   1.217  23.310  0.00  0.00    +0.135 A 
ATOM     11  C   UNL     1       9.177   2.415  22.858  0.00  0.00    +0.092 A 
ENDROOT
BRANCH   5  12
ATOM     12  C   UNL     1       6.477  -3.371  22.981  0.00  0.00    +0.025 A 
ATOM     13  C   UNL     1       5.194  -3.190  23.536  0.00  0.00    +0.015 A 
ATOM     14  C   UNL     1       4.236  -4.209  23.483  0.00  0.00    +0.050 A 
ATOM     15  C   UNL     1       4.565  -5.413  22.878  0.00  0.00    +0.158 A 
ATOM     16  C   UNL     1       5.837  -5.611  22.344  0.00  0.00    +0.159 A 
ATOM     17  C   UNL     1       6.798  -4.602  22.391  0.00  0.00    +0.060 A 
BRANCH  15  18
ATOM     18  O   UNL     1       3.630  -6.403  22.819  0.00  0.00    -0.503 OA
ATOM     19  H   UNL     1       3.967  -7.024  22.143  0.00  0.00    +0.292 HD
ENDBRANCH  15  18
BRANCH  16  20
ATOM     20  O   UNL     1       6.093  -6.833  21.783  0.00  0.00    -0.503 OA
ATOM     21  H   UNL     1       7.050  -6.912  21.635  0.00  0.00    +0.292 HD
ENDBRANCH  16  20
ENDBRANCH   5  12
BRANCH  10  22
ATOM     22  O   UNL     1      10.899   1.225  23.987  0.00  0.00    -0.506 OA
ATOM     23  H   UNL     1      10.851   0.615  24.741  0.00  0.00    +0.292 HD
ENDBRANCH  10  22
BRANCH   1  24
ATOM     24  O   UNL     1       7.606   3.663  21.730  0.00  0.00    -0.461 OA
BRANCH  24  28
ATOM     25  C   UNL     1       4.539   4.882  24.535  0.00  0.00    +0.041 C 
ATOM     26  C   UNL     1       4.607   5.293  23.068  0.00  0.00    +0.150 C 
ATOM     27  O   UNL     1       5.450   4.419  22.308  0.00  0.00    -0.334 OA
ATOM     28  C   UNL     1       6.852   4.544  22.570  0.00  0.00    +0.339 C 
ATOM     29  C   UNL     1       7.344   5.979  22.265  0.00  0.00    +0.214 C 
ATOM     30  C   UNL     1       6.492   7.024  22.996  0.00  0.00    +0.180 C 
ATOM     31  C   UNL     1       4.993   6.758  22.810  0.00  0.00    +0.174 C 
BRANCH  29  32
ATOM     32  O   UNL     1       8.726   6.135  22.629  0.00  0.00    -0.383 OA
ATOM     33  H   UNL     1       8.905   7.092  22.706  0.00  0.00    +0.210 HD
ENDBRANCH  29  32
BRANCH  30  34
ATOM     34  O   UNL     1       6.869   7.105  24.378  0.00  0.00    -0.386 OA
ATOM     35  H   UNL     1       7.776   7.438  24.468  0.00  0.00    +0.210 HD
ENDBRANCH  30  34
BRANCH  31  36
ATOM     36  O   UNL     1       4.649   7.079  21.451  0.00  0.00    -0.387 OA
ATOM     37  H   UNL     1       3.703   6.874  21.319  0.00  0.00    +0.210 HD
ENDBRANCH  31  36
ENDBRANCH  24  28
ENDBRANCH   1  24
BRANCH   6  38
ATOM     38  O   UNL     1       9.067  -3.537  24.348  0.00  0.00    -0.453 OA
BRANCH  38  39
ATOM     39  C   UNL     1       9.172  -3.355  25.771  0.00  0.00    +0.339 C 
ATOM     40  O   UNL     1       8.603  -4.445  26.513  0.00  0.00    -0.334 OA
ATOM     41  C   UNL     1       7.176  -4.502  26.559  0.00  0.00    +0.150 C 
ATOM     42  C   UNL     1       6.798  -5.725  27.405  0.00  0.00    +0.041 C 
ATOM     43  C   UNL     1       6.594  -3.214  27.153  0.00  0.00    +0.174 C 
ATOM     44  C   UNL     1       7.061  -2.041  26.278  0.00  0.00    +0.180 C 
ATOM     45  C   UNL     1       8.589  -1.994  26.213  0.00  0.00    +0.214 C 
BRANCH  43  46
ATOM     46  O   UNL     1       5.168  -3.299  27.190  0.00  0.00    -0.387 OA
ATOM     47  H   UNL     1       4.924  -3.812  27.983  0.00  0.00    +0.210 HD
ENDBRANCH  43  46
BRANCH  44  48
ATOM     48  O   UNL     1       6.541  -0.802  26.783  0.00  0.00    -0.386 OA
ATOM     49  H   UNL     1       6.030  -1.020  27.591  0.00  0.00    +0.210 HD
ENDBRANCH  44  48
BRANCH  45  50
ATOM     50  O   UNL     1       9.087  -1.613  27.512  0.00  0.00    -0.383 OA
ATOM     51  H   UNL     1       9.321  -0.661  27.478  0.00  0.00    +0.210 HD
ENDBRANCH  45  50
ENDBRANCH  38  39
ENDBRANCH   6  38
TORSDOF 14
ENDMDL
