MODEL 1
REMARK VINA RESULT:      -8.4      0.000      0.000
REMARK  Name = 
REMARK  23 active torsions:
REMARK  status: ('A' for Active; 'I' for Inactive)
REMARK    1  A    between atoms: C_1  and  C_2
REMARK    2  A    between atoms: C_3  and  O_63
REMARK    3  A    between atoms: C_5  and  O_62
REMARK    4  A    between atoms: C_6  and  O_61
REMARK    5  A    between atoms: C_8  and  O_11
REMARK    6  A    between atoms: O_11  and  C_12
REMARK    7  A    between atoms: C_13  and  O_60
REMARK    8  A    between atoms: C_15  and  O_59
REMARK    9  A    between atoms: C_17  and  C_57
REMARK   10  A    between atoms: C_19  and  O_21
REMARK   11  A    between atoms: O_21  and  C_22
REMARK   12  A    between atoms: C_22  and  C_23
REMARK   13  A    between atoms: C_24  and  O_56
REMARK   14  A    between atoms: C_26  and  O_55
REMARK   15  A    between atoms: C_28  and  O_54
REMARK   16  A    between atoms: C_29  and  O_32
REMARK   17  A    between atoms: O_32  and  C_33
REMARK   18  A    between atoms: C_34  and  C_46
REMARK   19  A    between atoms: C_38  and  O_45
REMARK   20  A    between atoms: C_40  and  O_44
REMARK   21  A    between atoms: C_48  and  O_53
REMARK   22  A    between atoms: C_49  and  O_52
REMARK   23  A    between atoms: C_57  and  O_58
REMARK                            x       y       z     vdW  Elec       q    Type
REMARK                         _______ _______ _______ _____ _____    ______ ____
ROOT
ATOM      1  C   UNL     1       9.514   0.413  24.841  0.00  0.00    +0.179 C 
ATOM      2  O   UNL     1       8.895   1.704  24.533  0.00  0.00    -0.331 OA
ATOM      3  C   UNL     1       8.053   1.875  23.358  0.00  0.00    +0.340 C 
ATOM      4  C   UNL     1       8.553   1.144  22.083  0.00  0.00    +0.214 C 
ATOM      5  C   UNL     1       9.158  -0.214  22.427  0.00  0.00    +0.180 C 
ATOM      6  C   UNL     1      10.170  -0.145  23.572  0.00  0.00    +0.177 C 
ENDROOT
BRANCH   6   7
ATOM      7  O   UNL     1      10.740  -1.449  23.727  0.00  0.00    -0.386 OA
ATOM      8  H   UNL     1      10.046  -2.102  23.499  0.00  0.00    +0.210 HD
ENDBRANCH   6   7
BRANCH   5   9
ATOM      9  O   UNL     1       9.798  -0.777  21.275  0.00  0.00    -0.386 OA
ATOM     10  H   UNL     1       9.143  -0.676  20.553  0.00  0.00    +0.210 HD
ENDBRANCH   5   9
BRANCH   4  11
ATOM     11  O   UNL     1       9.419   1.951  21.256  0.00  0.00    -0.383 OA
ATOM     12  H   UNL     1       9.419   2.862  21.592  0.00  0.00    +0.210 HD
ENDBRANCH   4  11
BRANCH   3  13
ATOM     13  O   UNL     1       7.894   3.290  22.946  0.00  0.00    -0.453 OA
BRANCH  13  14
ATOM     14  C   UNL     1       6.996   4.141  23.543  0.00  0.00    +0.214 A 
ATOM     15  C   UNL     1       5.539   3.945  23.288  0.00  0.00    +0.238 A 
ATOM     16  O   UNL     1       5.125   3.523  22.216  0.00  0.00    -0.283 OA
ATOM     17  C   UNL     1       4.614   4.419  24.275  0.00  0.00    +0.109 A 
ATOM     18  C   UNL     1       4.997   5.519  25.047  0.00  0.00    +0.147 A 
ATOM     19  C   UNL     1       4.022   6.176  25.804  0.00  0.00    +0.092 A 
ATOM     20  C   UNL     1       2.710   5.680  25.803  0.00  0.00    +0.124 A 
ATOM     21  C   UNL     1       2.354   4.533  25.094  0.00  0.00    +0.091 A 
ATOM     22  O   UNL     1       6.300   5.975  25.024  0.00  0.00    -0.451 OA
ATOM     23  C   UNL     1       3.320   3.894  24.345  0.00  0.00    +0.135 A 
ATOM     24  C   UNL     1       7.279   5.211  24.371  0.00  0.00    +0.181 A 
BRANCH  24  25
ATOM     25  C   UNL     1       8.680   5.710  24.587  0.00  0.00    +0.025 A 
ATOM     26  C   UNL     1       9.097   6.424  25.737  0.00  0.00    +0.015 A 
ATOM     27  C   UNL     1      10.447   6.835  25.899  0.00  0.00    +0.050 A 
ATOM     28  C   UNL     1      11.375   6.534  24.915  0.00  0.00    +0.158 A 
ATOM     29  C   UNL     1      10.967   5.901  23.754  0.00  0.00    +0.159 A 
ATOM     30  C   UNL     1       9.635   5.533  23.576  0.00  0.00    +0.060 A 
BRANCH  28  31
ATOM     31  O   UNL     1      12.690   6.844  25.092  0.00  0.00    -0.503 OA
ATOM     32  H   UNL     1      13.009   6.194  25.752  0.00  0.00    +0.292 HD
ENDBRANCH  28  31
BRANCH  29  33
ATOM     33  O   UNL     1      11.903   5.615  22.796  0.00  0.00    -0.503 OA
ATOM     34  H   UNL     1      11.429   5.202  22.048  0.00  0.00    +0.292 HD
ENDBRANCH  29  33
ENDBRANCH  24  25
BRANCH  23  35
ATOM     35  O   UNL     1       3.034   2.741  23.681  0.00  0.00    -0.506 OA
ATOM     36  H   UNL     1       3.238   1.979  24.252  0.00  0.00    +0.292 HD
ENDBRANCH  23  35
BRANCH  20  37
ATOM     37  O   UNL     1       1.693   6.280  26.488  0.00  0.00    -0.507 OA
ATOM     38  H   UNL     1       1.018   6.591  25.857  0.00  0.00    +0.292 HD
ENDBRANCH  20  37
ENDBRANCH  13  14
ENDBRANCH   3  13
BRANCH   1  39
ATOM     39  C   UNL     1       8.713  -0.669  25.719  0.00  0.00    +0.197 C 
BRANCH  39  40
ATOM     40  O   UNL     1       7.422  -1.116  25.113  0.00  0.00    -0.346 OA
BRANCH  40  42
ATOM     41  C   UNL     1       8.289  -3.652  25.204  0.00  0.00    +0.208 C 
ATOM     42  C   UNL     1       7.489  -2.422  24.442  0.00  0.00    +0.282 C 
ATOM     43  O   UNL     1       6.181  -2.891  24.077  0.00  0.00    -0.341 OA
ATOM     44  C   UNL     1       6.172  -3.947  23.092  0.00  0.00    +0.178 C 
ATOM     45  C   UNL     1       7.024  -5.163  23.513  0.00  0.00    +0.177 C 
ATOM     46  C   UNL     1       8.381  -4.753  24.109  0.00  0.00    +0.179 C 
BRANCH  46  47
ATOM     47  O   UNL     1       9.088  -5.926  24.540  0.00  0.00    -0.386 OA
ATOM     48  H   UNL     1       9.755  -5.633  25.189  0.00  0.00    +0.210 HD
ENDBRANCH  46  47
BRANCH  45  49
ATOM     49  O   UNL     1       7.247  -6.023  22.380  0.00  0.00    -0.386 OA
ATOM     50  H   UNL     1       6.430  -6.003  21.845  0.00  0.00    +0.210 HD
ENDBRANCH  45  49
BRANCH  44  51
ATOM     51  C   UNL     1       6.495  -3.422  21.672  0.00  0.00    +0.190 C 
BRANCH  51  52
ATOM     52  O   UNL     1       5.770  -4.141  20.674  0.00  0.00    -0.392 OA
ATOM     53  H   UNL     1       6.371  -4.806  20.295  0.00  0.00    +0.210 HD
ENDBRANCH  51  52
ENDBRANCH  44  51
BRANCH  41  54
ATOM     54  O   UNL     1       7.685  -4.014  26.465  0.00  0.00    -0.338 OA
BRANCH  54  58
ATOM     55  C   UNL     1       3.444  -3.363  28.212  0.00  0.00    +0.041 C 
ATOM     56  C   UNL     1       4.866  -3.764  28.621  0.00  0.00    +0.149 C 
ATOM     57  O   UNL     1       5.741  -3.565  27.514  0.00  0.00    -0.343 OA
ATOM     58  C   UNL     1       6.380  -4.603  26.742  0.00  0.00    +0.282 C 
ATOM     59  C   UNL     1       6.272  -6.041  27.377  0.00  0.00    +0.201 C 
ATOM     60  C   UNL     1       5.014  -6.232  28.269  0.00  0.00    +0.179 C 
ATOM     61  C   UNL     1       4.894  -5.127  29.311  0.00  0.00    +0.174 C 
BRANCH  61  62
ATOM     62  O   UNL     1       5.991  -5.211  30.241  0.00  0.00    -0.387 OA
ATOM     63  H   UNL     1       6.803  -4.999  29.750  0.00  0.00    +0.210 HD
ENDBRANCH  61  62
BRANCH  60  64
ATOM     64  O   UNL     1       5.078  -7.508  28.940  0.00  0.00    -0.386 OA
ATOM     65  H   UNL     1       4.494  -7.420  29.724  0.00  0.00    +0.210 HD
ENDBRANCH  60  64
BRANCH  59  66
ATOM     66  O   UNL     1       7.440  -6.383  28.146  0.00  0.00    -0.384 OA
ATOM     67  H   UNL     1       7.516  -5.688  28.830  0.00  0.00    +0.210 HD
ENDBRANCH  59  66
ENDBRANCH  54  58
ENDBRANCH  41  54
ENDBRANCH  40  42
ENDBRANCH  39  40
ENDBRANCH   1  39
TORSDOF 22
ENDMDL
MODEL 2
REMARK VINA RESULT:      -8.1      1.601      2.049
REMARK  Name = 
REMARK  23 active torsions:
REMARK  status: ('A' for Active; 'I' for Inactive)
REMARK    1  A    between atoms: C_1  and  C_2
REMARK    2  A    between atoms: C_3  and  O_63
REMARK    3  A    between atoms: C_5  and  O_62
REMARK    4  A    between atoms: C_6  and  O_61
REMARK    5  A    between atoms: C_8  and  O_11
REMARK    6  A    between atoms: O_11  and  C_12
REMARK    7  A    between atoms: C_13  and  O_60
REMARK    8  A    between atoms: C_15  and  O_59
REMARK    9  A    between atoms: C_17  and  C_57
REMARK   10  A    between atoms: C_19  and  O_21
REMARK   11  A    between atoms: O_21  and  C_22
REMARK   12  A    between atoms: C_22  and  C_23
REMARK   13  A    between atoms: C_24  and  O_56
REMARK   14  A    between atoms: C_26  and  O_55
REMARK   15  A    between atoms: C_28  and  O_54
REMARK   16  A    between atoms: C_29  and  O_32
REMARK   17  A    between atoms: O_32  and  C_33
REMARK   18  A    between atoms: C_34  and  C_46
REMARK   19  A    between atoms: C_38  and  O_45
REMARK   20  A    between atoms: C_40  and  O_44
REMARK   21  A    between atoms: C_48  and  O_53
REMARK   22  A    between atoms: C_49  and  O_52
REMARK   23  A    between atoms: C_57  and  O_58
REMARK                            x       y       z     vdW  Elec       q    Type
REMARK                         _______ _______ _______ _____ _____    ______ ____
ROOT
ATOM      1  C   UNL     1       9.393  -0.926  24.840  0.00  0.00    +0.179 C 
ATOM      2  O   UNL     1       8.975   0.477  24.829  0.00  0.00    -0.331 OA
ATOM      3  C   UNL     1       8.257   1.041  23.695  0.00  0.00    +0.340 C 
ATOM      4  C   UNL     1       8.754   0.565  22.303  0.00  0.00    +0.214 C 
ATOM      5  C   UNL     1       9.146  -0.910  22.332  0.00  0.00    +0.180 C 
ATOM      6  C   UNL     1      10.066  -1.261  23.503  0.00  0.00    +0.177 C 
ENDROOT
BRANCH   6   7
ATOM      7  O   UNL     1      10.446  -2.634  23.359  0.00  0.00    -0.386 OA
ATOM      8  H   UNL     1      10.237  -3.086  24.203  0.00  0.00    +0.210 HD
ENDBRANCH   6   7
BRANCH   5   9
ATOM      9  O   UNL     1       9.793  -1.273  21.107  0.00  0.00    -0.386 OA
ATOM     10  H   UNL     1       9.357  -0.723  20.423  0.00  0.00    +0.210 HD
ENDBRANCH   5   9
BRANCH   4  11
ATOM     11  O   UNL     1       9.780   1.408  21.736  0.00  0.00    -0.383 OA
ATOM     12  H   UNL     1       9.418   2.298  21.599  0.00  0.00    +0.210 HD
ENDBRANCH   4  11
BRANCH   3  13
ATOM     13  O   UNL     1       8.318   2.520  23.634  0.00  0.00    -0.453 OA
BRANCH  13  14
ATOM     14  C   UNL     1       7.455   3.330  24.331  0.00  0.00    +0.214 A 
ATOM     15  C   UNL     1       6.017   2.939  24.422  0.00  0.00    +0.238 A 
ATOM     16  O   UNL     1       5.453   2.347  23.510  0.00  0.00    -0.283 OA
ATOM     17  C   UNL     1       5.259   3.420  25.538  0.00  0.00    +0.109 A 
ATOM     18  C   UNL     1       5.638   4.641  26.102  0.00  0.00    +0.147 A 
ATOM     19  C   UNL     1       4.759   5.269  26.990  0.00  0.00    +0.092 A 
ATOM     20  C   UNL     1       3.555   4.630  27.322  0.00  0.00    +0.124 A 
ATOM     21  C   UNL     1       3.222   3.373  26.819  0.00  0.00    +0.091 A 
ATOM     22  O   UNL     1       6.833   5.237  25.752  0.00  0.00    -0.451 OA
ATOM     23  C   UNL     1       4.091   2.763  25.939  0.00  0.00    +0.135 A 
ATOM     24  C   UNL     1       7.753   4.516  24.974  0.00  0.00    +0.181 A 
BRANCH  24  25
ATOM     25  C   UNL     1       9.085   5.194  24.830  0.00  0.00    +0.025 A 
ATOM     26  C   UNL     1       9.519   6.268  25.645  0.00  0.00    +0.015 A 
ATOM     27  C   UNL     1      10.809   6.842  25.484  0.00  0.00    +0.050 A 
ATOM     28  C   UNL     1      11.660   6.343  24.511  0.00  0.00    +0.158 A 
ATOM     29  C   UNL     1      11.224   5.342  23.660  0.00  0.00    +0.159 A 
ATOM     30  C   UNL     1       9.944   4.807  23.791  0.00  0.00    +0.060 A 
BRANCH  28  31
ATOM     31  O   UNL     1      12.932   6.821  24.398  0.00  0.00    -0.503 OA
ATOM     32  H   UNL     1      12.869   7.755  24.687  0.00  0.00    +0.292 HD
ENDBRANCH  28  31
BRANCH  29  33
ATOM     33  O   UNL     1      12.083   4.867  22.707  0.00  0.00    -0.503 OA
ATOM     34  H   UNL     1      12.452   4.028  23.046  0.00  0.00    +0.292 HD
ENDBRANCH  29  33
ENDBRANCH  24  25
BRANCH  23  35
ATOM     35  O   UNL     1       3.836   1.514  25.464  0.00  0.00    -0.506 OA
ATOM     36  H   UNL     1       3.731   0.898  26.211  0.00  0.00    +0.292 HD
ENDBRANCH  23  35
BRANCH  20  37
ATOM     37  O   UNL     1       2.628   5.188  28.155  0.00  0.00    -0.507 OA
ATOM     38  H   UNL     1       2.479   4.597  28.915  0.00  0.00    +0.292 HD
ENDBRANCH  20  37
ENDBRANCH  13  14
ENDBRANCH   3  13
BRANCH   1  39
ATOM     39  C   UNL     1       8.391  -2.055  25.392  0.00  0.00    +0.197 C 
BRANCH  39  40
ATOM     40  O   UNL     1       8.787  -3.452  25.038  0.00  0.00    -0.346 OA
BRANCH  40  42
ATOM     41  C   UNL     1       6.697  -5.016  25.648  0.00  0.00    +0.208 C 
ATOM     42  C   UNL     1       7.683  -4.286  24.541  0.00  0.00    +0.282 C 
ATOM     43  O   UNL     1       6.861  -3.567  23.608  0.00  0.00    -0.341 OA
ATOM     44  C   UNL     1       6.009  -4.396  22.789  0.00  0.00    +0.178 C 
ATOM     45  C   UNL     1       5.100  -5.323  23.623  0.00  0.00    +0.177 C 
ATOM     46  C   UNL     1       5.852  -5.996  24.784  0.00  0.00    +0.179 C 
BRANCH  46  47
ATOM     47  O   UNL     1       4.933  -6.786  25.555  0.00  0.00    -0.386 OA
ATOM     48  H   UNL     1       5.425  -7.122  26.327  0.00  0.00    +0.210 HD
ENDBRANCH  46  47
BRANCH  45  49
ATOM     49  O   UNL     1       4.529  -6.341  22.779  0.00  0.00    -0.386 OA
ATOM     50  H   UNL     1       5.199  -7.047  22.695  0.00  0.00    +0.210 HD
ENDBRANCH  45  49
BRANCH  44  51
ATOM     51  C   UNL     1       6.803  -5.133  21.683  0.00  0.00    +0.190 C 
BRANCH  51  52
ATOM     52  O   UNL     1       5.994  -5.366  20.530  0.00  0.00    -0.392 OA
ATOM     53  H   UNL     1       5.108  -5.006  20.715  0.00  0.00    +0.210 HD
ENDBRANCH  51  52
ENDBRANCH  44  51
BRANCH  41  54
ATOM     54  O   UNL     1       5.983  -4.069  26.472  0.00  0.00    -0.338 OA
BRANCH  54  58
ATOM     55  C   UNL     1       6.084  -6.382  30.485  0.00  0.00    +0.041 C 
ATOM     56  C   UNL     1       5.496  -6.449  29.071  0.00  0.00    +0.149 C 
ATOM     57  O   UNL     1       6.071  -5.414  28.278  0.00  0.00    -0.343 OA
ATOM     58  C   UNL     1       5.389  -4.239  27.792  0.00  0.00    +0.282 C 
ATOM     59  C   UNL     1       3.823  -4.285  27.963  0.00  0.00    +0.201 C 
ATOM     60  C   UNL     1       3.354  -5.167  29.153  0.00  0.00    +0.179 C 
ATOM     61  C   UNL     1       3.972  -6.559  29.095  0.00  0.00    +0.174 C 
BRANCH  61  62
ATOM     62  O   UNL     1       3.487  -7.261  27.935  0.00  0.00    -0.387 OA
ATOM     63  H   UNL     1       2.534  -7.083  27.868  0.00  0.00    +0.210 HD
ENDBRANCH  61  62
BRANCH  60  64
ATOM     64  O   UNL     1       1.917  -5.288  29.137  0.00  0.00    -0.386 OA
ATOM     65  H   UNL     1       1.707  -5.809  28.333  0.00  0.00    +0.210 HD
ENDBRANCH  60  64
BRANCH  59  66
ATOM     66  O   UNL     1       3.161  -4.733  26.767  0.00  0.00    -0.384 OA
ATOM     67  H   UNL     1       3.213  -5.709  26.789  0.00  0.00    +0.210 HD
ENDBRANCH  59  66
ENDBRANCH  54  58
ENDBRANCH  41  54
ENDBRANCH  40  42
ENDBRANCH  39  40
ENDBRANCH   1  39
TORSDOF 22
ENDMDL
MODEL 3
REMARK VINA RESULT:      -8.1      1.779      2.691
REMARK  Name = 
REMARK  23 active torsions:
REMARK  status: ('A' for Active; 'I' for Inactive)
REMARK    1  A    between atoms: C_1  and  C_2
REMARK    2  A    between atoms: C_3  and  O_63
REMARK    3  A    between atoms: C_5  and  O_62
REMARK    4  A    between atoms: C_6  and  O_61
REMARK    5  A    between atoms: C_8  and  O_11
REMARK    6  A    between atoms: O_11  and  C_12
REMARK    7  A    between atoms: C_13  and  O_60
REMARK    8  A    between atoms: C_15  and  O_59
REMARK    9  A    between atoms: C_17  and  C_57
REMARK   10  A    between atoms: C_19  and  O_21
REMARK   11  A    between atoms: O_21  and  C_22
REMARK   12  A    between atoms: C_22  and  C_23
REMARK   13  A    between atoms: C_24  and  O_56
REMARK   14  A    between atoms: C_26  and  O_55
REMARK   15  A    between atoms: C_28  and  O_54
REMARK   16  A    between atoms: C_29  and  O_32
REMARK   17  A    between atoms: O_32  and  C_33
REMARK   18  A    between atoms: C_34  and  C_46
REMARK   19  A    between atoms: C_38  and  O_45
REMARK   20  A    between atoms: C_40  and  O_44
REMARK   21  A    between atoms: C_48  and  O_53
REMARK   22  A    between atoms: C_49  and  O_52
REMARK   23  A    between atoms: C_57  and  O_58
REMARK                            x       y       z     vdW  Elec       q    Type
REMARK                         _______ _______ _______ _____ _____    ______ ____
ROOT
ATOM      1  C   UNL     1       9.157  -0.687  24.775  0.00  0.00    +0.179 C 
ATOM      2  O   UNL     1       8.744   0.715  24.709  0.00  0.00    -0.331 OA
ATOM      3  C   UNL     1       8.090   1.254  23.526  0.00  0.00    +0.340 C 
ATOM      4  C   UNL     1       8.660   0.746  22.174  0.00  0.00    +0.214 C 
ATOM      5  C   UNL     1       9.046  -0.728  22.258  0.00  0.00    +0.180 C 
ATOM      6  C   UNL     1       9.901  -1.054  23.484  0.00  0.00    +0.177 C 
ENDROOT
BRANCH   6   7
ATOM      7  O   UNL     1      10.284  -2.430  23.393  0.00  0.00    -0.386 OA
ATOM      8  H   UNL     1      11.263  -2.465  23.425  0.00  0.00    +0.210 HD
ENDBRANCH   6   7
BRANCH   5   9
ATOM      9  O   UNL     1       9.757  -1.120  21.078  0.00  0.00    -0.386 OA
ATOM     10  H   UNL     1      10.192  -1.965  21.320  0.00  0.00    +0.210 HD
ENDBRANCH   5   9
BRANCH   4  11
ATOM     11  O   UNL     1       9.717   1.574  21.644  0.00  0.00    -0.383 OA
ATOM     12  H   UNL     1      10.009   1.209  20.794  0.00  0.00    +0.210 HD
ENDBRANCH   4  11
BRANCH   3  13
ATOM     13  O   UNL     1       8.158   2.732  23.434  0.00  0.00    -0.453 OA
BRANCH  13  14
ATOM     14  C   UNL     1       7.318   3.560  24.139  0.00  0.00    +0.214 A 
ATOM     15  C   UNL     1       5.860   3.243  24.177  0.00  0.00    +0.238 A 
ATOM     16  O   UNL     1       5.292   2.715  23.229  0.00  0.00    -0.283 OA
ATOM     17  C   UNL     1       5.097   3.722  25.290  0.00  0.00    +0.109 A 
ATOM     18  C   UNL     1       5.523   4.901  25.909  0.00  0.00    +0.147 A 
ATOM     19  C   UNL     1       4.653   5.542  26.797  0.00  0.00    +0.092 A 
ATOM     20  C   UNL     1       3.409   4.956  27.074  0.00  0.00    +0.124 A 
ATOM     21  C   UNL     1       3.025   3.737  26.515  0.00  0.00    +0.091 A 
ATOM     22  O   UNL     1       6.757   5.446  25.613  0.00  0.00    -0.451 OA
ATOM     23  C   UNL     1       3.886   3.114  25.636  0.00  0.00    +0.135 A 
ATOM     24  C   UNL     1       7.659   4.705  24.833  0.00  0.00    +0.181 A 
BRANCH  24  25
ATOM     25  C   UNL     1       9.029   5.317  24.749  0.00  0.00    +0.025 A 
ATOM     26  C   UNL     1       9.492   6.343  25.609  0.00  0.00    +0.015 A 
ATOM     27  C   UNL     1      10.813   6.853  25.504  0.00  0.00    +0.050 A 
ATOM     28  C   UNL     1      11.668   6.338  24.542  0.00  0.00    +0.158 A 
ATOM     29  C   UNL     1      11.207   5.387  23.648  0.00  0.00    +0.159 A 
ATOM     30  C   UNL     1       9.899   4.916  23.724  0.00  0.00    +0.060 A 
BRANCH  28  31
ATOM     31  O   UNL     1      12.965   6.753  24.481  0.00  0.00    -0.503 OA
ATOM     32  H   UNL     1      12.920   7.720  24.628  0.00  0.00    +0.292 HD
ENDBRANCH  28  31
BRANCH  29  33
ATOM     33  O   UNL     1      12.071   4.895  22.706  0.00  0.00    -0.503 OA
ATOM     34  H   UNL     1      12.331   5.646  22.138  0.00  0.00    +0.292 HD
ENDBRANCH  29  33
ENDBRANCH  24  25
BRANCH  23  35
ATOM     35  O   UNL     1       3.580   1.898  25.108  0.00  0.00    -0.506 OA
ATOM     36  H   UNL     1       4.367   1.528  24.667  0.00  0.00    +0.292 HD
ENDBRANCH  23  35
BRANCH  20  37
ATOM     37  O   UNL     1       2.489   5.532  27.902  0.00  0.00    -0.507 OA
ATOM     38  H   UNL     1       2.717   5.329  28.828  0.00  0.00    +0.292 HD
ENDBRANCH  20  37
ENDBRANCH  13  14
ENDBRANCH   3  13
BRANCH   1  39
ATOM     39  C   UNL     1       8.124  -1.802  25.297  0.00  0.00    +0.197 C 
BRANCH  39  40
ATOM     40  O   UNL     1       6.889  -1.930  24.466  0.00  0.00    -0.346 OA
BRANCH  40  42
ATOM     41  C   UNL     1       5.867  -4.147  25.576  0.00  0.00    +0.208 C 
ATOM     42  C   UNL     1       6.435  -3.314  24.266  0.00  0.00    +0.282 C 
ATOM     43  O   UNL     1       5.456  -3.398  23.218  0.00  0.00    -0.341 OA
ATOM     44  C   UNL     1       5.245  -4.726  22.694  0.00  0.00    +0.178 C 
ATOM     45  C   UNL     1       4.872  -5.747  23.790  0.00  0.00    +0.177 C 
ATOM     46  C   UNL     1       5.744  -5.605  25.048  0.00  0.00    +0.179 C 
BRANCH  46  47
ATOM     47  O   UNL     1       5.298  -6.536  26.047  0.00  0.00    -0.386 OA
ATOM     48  H   UNL     1       6.030  -7.164  26.196  0.00  0.00    +0.210 HD
ENDBRANCH  46  47
BRANCH  45  49
ATOM     49  O   UNL     1       5.000  -7.087  23.277  0.00  0.00    -0.386 OA
ATOM     50  H   UNL     1       5.930  -7.353  23.411  0.00  0.00    +0.210 HD
ENDBRANCH  45  49
BRANCH  44  51
ATOM     51  C   UNL     1       6.412  -5.186  21.785  0.00  0.00    +0.190 C 
BRANCH  51  52
ATOM     52  O   UNL     1       5.931  -5.702  20.544  0.00  0.00    -0.392 OA
ATOM     53  H   UNL     1       6.675  -5.700  19.917  0.00  0.00    +0.210 HD
ENDBRANCH  51  52
ENDBRANCH  44  51
BRANCH  41  54
ATOM     54  O   UNL     1       4.687  -3.545  26.153  0.00  0.00    -0.338 OA
BRANCH  54  58
ATOM     55  C   UNL     1       2.027  -2.419  29.775  0.00  0.00    +0.041 C 
ATOM     56  C   UNL     1       2.269  -2.066  28.303  0.00  0.00    +0.149 C 
ATOM     57  O   UNL     1       3.187  -3.002  27.745  0.00  0.00    -0.343 OA
ATOM     58  C   UNL     1       4.546  -2.725  27.350  0.00  0.00    +0.282 C 
ATOM     59  C   UNL     1       4.908  -1.191  27.314  0.00  0.00    +0.201 C 
ATOM     60  C   UNL     1       4.066  -0.332  28.297  0.00  0.00    +0.179 C 
ATOM     61  C   UNL     1       2.573  -0.580  28.119  0.00  0.00    +0.174 C 
BRANCH  61  62
ATOM     62  O   UNL     1       2.154  -0.124  26.818  0.00  0.00    -0.387 OA
ATOM     63  H   UNL     1       2.813  -0.437  26.177  0.00  0.00    +0.210 HD
ENDBRANCH  61  62
BRANCH  60  64
ATOM     64  O   UNL     1       4.340   1.069  28.082  0.00  0.00    -0.386 OA
ATOM     65  H   UNL     1       5.122   1.270  28.639  0.00  0.00    +0.210 HD
ENDBRANCH  60  64
BRANCH  59  66
ATOM     66  O   UNL     1       4.783  -0.636  25.992  0.00  0.00    -0.384 OA
ATOM     67  H   UNL     1       5.199   0.248  26.038  0.00  0.00    +0.210 HD
ENDBRANCH  59  66
ENDBRANCH  54  58
ENDBRANCH  41  54
ENDBRANCH  40  42
ENDBRANCH  39  40
ENDBRANCH   1  39
TORSDOF 22
ENDMDL
MODEL 4
REMARK VINA RESULT:      -8.0      2.179      4.316
REMARK  Name = 
REMARK  23 active torsions:
REMARK  status: ('A' for Active; 'I' for Inactive)
REMARK    1  A    between atoms: C_1  and  C_2
REMARK    2  A    between atoms: C_3  and  O_63
REMARK    3  A    between atoms: C_5  and  O_62
REMARK    4  A    between atoms: C_6  and  O_61
REMARK    5  A    between atoms: C_8  and  O_11
REMARK    6  A    between atoms: O_11  and  C_12
REMARK    7  A    between atoms: C_13  and  O_60
REMARK    8  A    between atoms: C_15  and  O_59
REMARK    9  A    between atoms: C_17  and  C_57
REMARK   10  A    between atoms: C_19  and  O_21
REMARK   11  A    between atoms: O_21  and  C_22
REMARK   12  A    between atoms: C_22  and  C_23
REMARK   13  A    between atoms: C_24  and  O_56
REMARK   14  A    between atoms: C_26  and  O_55
REMARK   15  A    between atoms: C_28  and  O_54
REMARK   16  A    between atoms: C_29  and  O_32
REMARK   17  A    between atoms: O_32  and  C_33
REMARK   18  A    between atoms: C_34  and  C_46
REMARK   19  A    between atoms: C_38  and  O_45
REMARK   20  A    between atoms: C_40  and  O_44
REMARK   21  A    between atoms: C_48  and  O_53
REMARK   22  A    between atoms: C_49  and  O_52
REMARK   23  A    between atoms: C_57  and  O_58
REMARK                            x       y       z     vdW  Elec       q    Type
REMARK                         _______ _______ _______ _____ _____    ______ ____
ROOT
ATOM      1  C   UNL     1       9.872  -0.231  24.975  0.00  0.00    +0.179 C 
ATOM      2  O   UNL     1       9.704   1.201  24.722  0.00  0.00    -0.331 OA
ATOM      3  C   UNL     1       8.790   1.683  23.697  0.00  0.00    +0.340 C 
ATOM      4  C   UNL     1       8.778   0.849  22.387  0.00  0.00    +0.214 C 
ATOM      5  C   UNL     1       8.915  -0.642  22.681  0.00  0.00    +0.180 C 
ATOM      6  C   UNL     1      10.066  -0.959  23.639  0.00  0.00    +0.177 C 
ENDROOT
BRANCH   6   7
ATOM      7  O   UNL     1      10.159  -2.383  23.749  0.00  0.00    -0.386 OA
ATOM      8  H   UNL     1      10.212  -2.601  24.703  0.00  0.00    +0.210 HD
ENDBRANCH   6   7
BRANCH   5   9
ATOM      9  O   UNL     1       9.112  -1.370  21.463  0.00  0.00    -0.386 OA
ATOM     10  H   UNL     1       9.764  -2.065  21.692  0.00  0.00    +0.210 HD
ENDBRANCH   5   9
BRANCH   4  11
ATOM     11  O   UNL     1       9.719   1.316  21.396  0.00  0.00    -0.383 OA
ATOM     12  H   UNL     1       9.571   0.832  20.567  0.00  0.00    +0.210 HD
ENDBRANCH   4  11
BRANCH   3  13
ATOM     13  O   UNL     1       9.071   3.071  23.260  0.00  0.00    -0.453 OA
BRANCH  13  14
ATOM     14  C   UNL     1       8.109   4.051  23.234  0.00  0.00    +0.214 A 
ATOM     15  C   UNL     1       6.833   3.789  22.506  0.00  0.00    +0.238 A 
ATOM     16  O   UNL     1       6.798   3.089  21.502  0.00  0.00    -0.283 OA
ATOM     17  C   UNL     1       5.665   4.513  22.913  0.00  0.00    +0.109 A 
ATOM     18  C   UNL     1       5.849   5.783  23.465  0.00  0.00    +0.147 A 
ATOM     19  C   UNL     1       4.738   6.620  23.603  0.00  0.00    +0.092 A 
ATOM     20  C   UNL     1       3.473   6.139  23.231  0.00  0.00    +0.124 A 
ATOM     21  C   UNL     1       3.286   4.841  22.757  0.00  0.00    +0.091 A 
ATOM     22  O   UNL     1       7.110   6.219  23.822  0.00  0.00    -0.451 OA
ATOM     23  C   UNL     1       4.388   4.024  22.619  0.00  0.00    +0.135 A 
ATOM     24  C   UNL     1       8.177   5.307  23.806  0.00  0.00    +0.181 A 
BRANCH  24  25
ATOM     25  C   UNL     1       9.445   5.850  24.402  0.00  0.00    +0.025 A 
ATOM     26  C   UNL     1       9.497   6.614  25.593  0.00  0.00    +0.015 A 
ATOM     27  C   UNL     1      10.733   7.066  26.126  0.00  0.00    +0.050 A 
ATOM     28  C   UNL     1      11.913   6.755  25.470  0.00  0.00    +0.158 A 
ATOM     29  C   UNL     1      11.873   6.071  24.267  0.00  0.00    +0.159 A 
ATOM     30  C   UNL     1      10.658   5.663  23.722  0.00  0.00    +0.060 A 
BRANCH  28  31
ATOM     31  O   UNL     1      13.114   7.105  26.010  0.00  0.00    -0.503 OA
ATOM     32  H   UNL     1      13.239   6.480  26.754  0.00  0.00    +0.292 HD
ENDBRANCH  28  31
BRANCH  29  33
ATOM     33  O   UNL     1      13.052   5.777  23.637  0.00  0.00    -0.503 OA
ATOM     34  H   UNL     1      13.677   5.475  24.326  0.00  0.00    +0.292 HD
ENDBRANCH  29  33
ENDBRANCH  24  25
BRANCH  23  35
ATOM     35  O   UNL     1       4.249   2.732  22.213  0.00  0.00    -0.506 OA
ATOM     36  H   UNL     1       3.330   2.444  22.358  0.00  0.00    +0.292 HD
ENDBRANCH  23  35
BRANCH  20  37
ATOM     37  O   UNL     1       2.343   6.902  23.303  0.00  0.00    -0.507 OA
ATOM     38  H   UNL     1       1.573   6.324  23.454  0.00  0.00    +0.292 HD
ENDBRANCH  20  37
ENDBRANCH  13  14
ENDBRANCH   3  13
BRANCH   1  39
ATOM     39  C   UNL     1       8.903  -0.979  26.017  0.00  0.00    +0.197 C 
BRANCH  39  40
ATOM     40  O   UNL     1       8.684  -0.234  27.293  0.00  0.00    -0.346 OA
BRANCH  40  42
ATOM     41  C   UNL     1       6.062  -0.213  26.735  0.00  0.00    +0.208 C 
ATOM     42  C   UNL     1       7.416   0.507  27.351  0.00  0.00    +0.282 C 
ATOM     43  O   UNL     1       7.126   0.946  28.688  0.00  0.00    -0.341 OA
ATOM     44  C   UNL     1       6.132   1.989  28.779  0.00  0.00    +0.178 C 
ATOM     45  C   UNL     1       4.802   1.606  28.095  0.00  0.00    +0.177 C 
ATOM     46  C   UNL     1       5.016   0.939  26.726  0.00  0.00    +0.179 C 
BRANCH  46  47
ATOM     47  O   UNL     1       3.746   0.550  26.180  0.00  0.00    -0.386 OA
ATOM     48  H   UNL     1       3.920  -0.160  25.534  0.00  0.00    +0.210 HD
ENDBRANCH  46  47
BRANCH  45  49
ATOM     49  O   UNL     1       3.982   2.778  27.925  0.00  0.00    -0.386 OA
ATOM     50  H   UNL     1       3.610   2.992  28.802  0.00  0.00    +0.210 HD
ENDBRANCH  45  49
BRANCH  44  51
ATOM     51  C   UNL     1       6.688   3.364  28.336  0.00  0.00    +0.190 C 
BRANCH  51  52
ATOM     52  O   UNL     1       6.094   4.429  29.078  0.00  0.00    -0.392 OA
ATOM     53  H   UNL     1       5.813   5.111  28.442  0.00  0.00    +0.210 HD
ENDBRANCH  51  52
ENDBRANCH  44  51
BRANCH  41  54
ATOM     54  O   UNL     1       5.709  -1.428  27.431  0.00  0.00    -0.338 OA
BRANCH  54  58
ATOM     55  C   UNL     1       7.542  -5.604  26.619  0.00  0.00    +0.041 C 
ATOM     56  C   UNL     1       7.385  -4.215  25.989  0.00  0.00    +0.149 C 
ATOM     57  O   UNL     1       6.819  -3.330  26.952  0.00  0.00    -0.343 OA
ATOM     58  C   UNL     1       5.489  -2.772  26.912  0.00  0.00    +0.282 C 
ATOM     59  C   UNL     1       4.740  -2.986  25.542  0.00  0.00    +0.201 C 
ATOM     60  C   UNL     1       5.205  -4.253  24.771  0.00  0.00    +0.179 C 
ATOM     61  C   UNL     1       6.721  -4.287  24.616  0.00  0.00    +0.174 C 
BRANCH  61  62
ATOM     62  O   UNL     1       7.150  -3.197  23.777  0.00  0.00    -0.387 OA
ATOM     63  H   UNL     1       6.454  -3.050  23.116  0.00  0.00    +0.210 HD
ENDBRANCH  61  62
BRANCH  60  64
ATOM     64  O   UNL     1       4.596  -4.283  23.464  0.00  0.00    -0.386 OA
ATOM     65  H   UNL     1       3.913  -4.985  23.509  0.00  0.00    +0.210 HD
ENDBRANCH  60  64
BRANCH  59  66
ATOM     66  O   UNL     1       4.864  -1.845  24.673  0.00  0.00    -0.384 OA
ATOM     67  H   UNL     1       4.660  -1.068  25.231  0.00  0.00    +0.210 HD
ENDBRANCH  59  66
ENDBRANCH  54  58
ENDBRANCH  41  54
ENDBRANCH  40  42
ENDBRANCH  39  40
ENDBRANCH   1  39
TORSDOF 22
ENDMDL
MODEL 5
REMARK VINA RESULT:      -7.9      2.418      9.388
REMARK  Name = 
REMARK  23 active torsions:
REMARK  status: ('A' for Active; 'I' for Inactive)
REMARK    1  A    between atoms: C_1  and  C_2
REMARK    2  A    between atoms: C_3  and  O_63
REMARK    3  A    between atoms: C_5  and  O_62
REMARK    4  A    between atoms: C_6  and  O_61
REMARK    5  A    between atoms: C_8  and  O_11
REMARK    6  A    between atoms: O_11  and  C_12
REMARK    7  A    between atoms: C_13  and  O_60
REMARK    8  A    between atoms: C_15  and  O_59
REMARK    9  A    between atoms: C_17  and  C_57
REMARK   10  A    between atoms: C_19  and  O_21
REMARK   11  A    between atoms: O_21  and  C_22
REMARK   12  A    between atoms: C_22  and  C_23
REMARK   13  A    between atoms: C_24  and  O_56
REMARK   14  A    between atoms: C_26  and  O_55
REMARK   15  A    between atoms: C_28  and  O_54
REMARK   16  A    between atoms: C_29  and  O_32
REMARK   17  A    between atoms: O_32  and  C_33
REMARK   18  A    between atoms: C_34  and  C_46
REMARK   19  A    between atoms: C_38  and  O_45
REMARK   20  A    between atoms: C_40  and  O_44
REMARK   21  A    between atoms: C_48  and  O_53
REMARK   22  A    between atoms: C_49  and  O_52
REMARK   23  A    between atoms: C_57  and  O_58
REMARK                            x       y       z     vdW  Elec       q    Type
REMARK                         _______ _______ _______ _____ _____    ______ ____
ROOT
ATOM      1  C   UNL     1       6.016   3.122  27.959  0.00  0.00    +0.179 C 
ATOM      2  O   UNL     1       6.192   2.065  26.962  0.00  0.00    -0.331 OA
ATOM      3  C   UNL     1       5.323   1.974  25.798  0.00  0.00    +0.340 C 
ATOM      4  C   UNL     1       3.825   2.277  26.074  0.00  0.00    +0.214 C 
ATOM      5  C   UNL     1       3.670   3.408  27.087  0.00  0.00    +0.180 C 
ATOM      6  C   UNL     1       4.532   3.215  28.336  0.00  0.00    +0.177 C 
ENDROOT
BRANCH   6   7
ATOM      7  O   UNL     1       4.220   4.274  29.247  0.00  0.00    -0.386 OA
ATOM      8  H   UNL     1       4.973   4.360  29.867  0.00  0.00    +0.210 HD
ENDBRANCH   6   7
BRANCH   5   9
ATOM      9  O   UNL     1       2.299   3.531  27.484  0.00  0.00    -0.386 OA
ATOM     10  H   UNL     1       1.816   2.903  26.907  0.00  0.00    +0.210 HD
ENDBRANCH   5   9
BRANCH   4  11
ATOM     11  O   UNL     1       3.052   1.107  26.416  0.00  0.00    -0.383 OA
ATOM     12  H   UNL     1       2.505   0.856  25.654  0.00  0.00    +0.210 HD
ENDBRANCH   4  11
BRANCH   3  13
ATOM     13  O   UNL     1       5.327   0.636  25.160  0.00  0.00    -0.453 OA
BRANCH  13  14
ATOM     14  C   UNL     1       6.110  -0.399  25.609  0.00  0.00    +0.214 A 
ATOM     15  C   UNL     1       5.553  -1.330  26.634  0.00  0.00    +0.238 A 
ATOM     16  O   UNL     1       4.766  -0.947  27.491  0.00  0.00    -0.283 OA
ATOM     17  C   UNL     1       6.088  -2.658  26.698  0.00  0.00    +0.109 A 
ATOM     18  C   UNL     1       7.418  -2.841  26.307  0.00  0.00    +0.147 A 
ATOM     19  C   UNL     1       8.048  -4.047  26.626  0.00  0.00    +0.092 A 
ATOM     20  C   UNL     1       7.313  -5.048  27.279  0.00  0.00    +0.124 A 
ATOM     21  C   UNL     1       5.964  -4.889  27.591  0.00  0.00    +0.091 A 
ATOM     22  O   UNL     1       8.107  -1.832  25.663  0.00  0.00    -0.451 OA
ATOM     23  C   UNL     1       5.350  -3.694  27.280  0.00  0.00    +0.135 A 
ATOM     24  C   UNL     1       7.406  -0.695  25.232  0.00  0.00    +0.181 A 
BRANCH  24  25
ATOM     25  C   UNL     1       8.223   0.231  24.376  0.00  0.00    +0.025 A 
ATOM     26  C   UNL     1       9.154   1.168  24.889  0.00  0.00    +0.015 A 
ATOM     27  C   UNL     1       9.926   1.989  24.024  0.00  0.00    +0.050 A 
ATOM     28  C   UNL     1       9.766   1.873  22.653  0.00  0.00    +0.158 A 
ATOM     29  C   UNL     1       8.810   1.014  22.139  0.00  0.00    +0.159 A 
ATOM     30  C   UNL     1       8.024   0.238  22.988  0.00  0.00    +0.060 A 
BRANCH  28  31
ATOM     31  O   UNL     1      10.558   2.589  21.805  0.00  0.00    -0.503 OA
ATOM     32  H   UNL     1      11.380   2.749  22.313  0.00  0.00    +0.292 HD
ENDBRANCH  28  31
BRANCH  29  33
ATOM     33  O   UNL     1       8.672   0.919  20.781  0.00  0.00    -0.503 OA
ATOM     34  H   UNL     1       9.310   0.245  20.474  0.00  0.00    +0.292 HD
ENDBRANCH  29  33
ENDBRANCH  24  25
BRANCH  23  35
ATOM     35  O   UNL     1       4.023  -3.512  27.515  0.00  0.00    -0.506 OA
ATOM     36  H   UNL     1       3.739  -2.661  27.133  0.00  0.00    +0.292 HD
ENDBRANCH  23  35
BRANCH  20  37
ATOM     37  O   UNL     1       7.862  -6.241  27.654  0.00  0.00    -0.507 OA
ATOM     38  H   UNL     1       8.598  -6.078  28.271  0.00  0.00    +0.292 HD
ENDBRANCH  20  37
ENDBRANCH  13  14
ENDBRANCH   3  13
BRANCH   1  39
ATOM     39  C   UNL     1       6.753   4.537  27.764  0.00  0.00    +0.197 C 
BRANCH  39  40
ATOM     40  O   UNL     1       6.021   5.492  26.879  0.00  0.00    -0.346 OA
BRANCH  40  42
ATOM     41  C   UNL     1       5.328   5.095  24.320  0.00  0.00    +0.208 C 
ATOM     42  C   UNL     1       6.451   5.466  25.474  0.00  0.00    +0.282 C 
ATOM     43  O   UNL     1       7.095   6.695  25.100  0.00  0.00    -0.341 OA
ATOM     44  C   UNL     1       7.881   6.621  23.891  0.00  0.00    +0.178 C 
ATOM     45  C   UNL     1       7.068   6.111  22.682  0.00  0.00    +0.177 C 
ATOM     46  C   UNL     1       6.184   4.904  23.035  0.00  0.00    +0.179 C 
BRANCH  46  47
ATOM     47  O   UNL     1       5.409   4.527  21.886  0.00  0.00    -0.386 OA
ATOM     48  H   UNL     1       4.481   4.453  22.181  0.00  0.00    +0.210 HD
ENDBRANCH  46  47
BRANCH  45  49
ATOM     49  O   UNL     1       7.959   5.745  21.611  0.00  0.00    -0.386 OA
ATOM     50  H   UNL     1       8.743   6.322  21.686  0.00  0.00    +0.210 HD
ENDBRANCH  45  49
BRANCH  44  51
ATOM     51  C   UNL     1       9.215   5.865  24.108  0.00  0.00    +0.190 C 
BRANCH  51  52
ATOM     52  O   UNL     1      10.166   6.189  23.095  0.00  0.00    -0.392 OA
ATOM     53  H   UNL     1      10.750   5.418  22.981  0.00  0.00    +0.210 HD
ENDBRANCH  51  52
ENDBRANCH  44  51
BRANCH  41  54
ATOM     54  O   UNL     1       4.247   6.051  24.264  0.00  0.00    -0.338 OA
BRANCH  54  58
ATOM     55  C   UNL     1       0.705   3.182  23.436  0.00  0.00    +0.041 C 
ATOM     56  C   UNL     1       2.012   3.692  22.817  0.00  0.00    +0.149 C 
ATOM     57  O   UNL     1       2.707   4.478  23.781  0.00  0.00    -0.343 OA
ATOM     58  C   UNL     1       2.898   5.907  23.730  0.00  0.00    +0.282 C 
ATOM     59  C   UNL     1       2.511   6.562  22.350  0.00  0.00    +0.201 C 
ATOM     60  C   UNL     1       1.420   5.775  21.574  0.00  0.00    +0.179 C 
ATOM     61  C   UNL     1       1.785   4.302  21.435  0.00  0.00    +0.174 C 
BRANCH  61  62
ATOM     62  O   UNL     1       2.959   4.165  20.612  0.00  0.00    -0.387 OA
ATOM     63  H   UNL     1       2.658   3.948  19.713  0.00  0.00    +0.210 HD
ENDBRANCH  61  62
BRANCH  60  64
ATOM     64  O   UNL     1       1.247   6.343  20.259  0.00  0.00    -0.386 OA
ATOM     65  H   UNL     1       0.339   6.094  19.984  0.00  0.00    +0.210 HD
ENDBRANCH  60  64
BRANCH  59  66
ATOM     66  O   UNL     1       3.655   6.734  21.493  0.00  0.00    -0.384 OA
ATOM     67  H   UNL     1       3.291   6.882  20.597  0.00  0.00    +0.210 HD
ENDBRANCH  59  66
ENDBRANCH  54  58
ENDBRANCH  41  54
ENDBRANCH  40  42
ENDBRANCH  39  40
ENDBRANCH   1  39
TORSDOF 22
ENDMDL
MODEL 6
REMARK VINA RESULT:      -7.8      2.603     10.105
REMARK  Name = 
REMARK  23 active torsions:
REMARK  status: ('A' for Active; 'I' for Inactive)
REMARK    1  A    between atoms: C_1  and  C_2
REMARK    2  A    between atoms: C_3  and  O_63
REMARK    3  A    between atoms: C_5  and  O_62
REMARK    4  A    between atoms: C_6  and  O_61
REMARK    5  A    between atoms: C_8  and  O_11
REMARK    6  A    between atoms: O_11  and  C_12
REMARK    7  A    between atoms: C_13  and  O_60
REMARK    8  A    between atoms: C_15  and  O_59
REMARK    9  A    between atoms: C_17  and  C_57
REMARK   10  A    between atoms: C_19  and  O_21
REMARK   11  A    between atoms: O_21  and  C_22
REMARK   12  A    between atoms: C_22  and  C_23
REMARK   13  A    between atoms: C_24  and  O_56
REMARK   14  A    between atoms: C_26  and  O_55
REMARK   15  A    between atoms: C_28  and  O_54
REMARK   16  A    between atoms: C_29  and  O_32
REMARK   17  A    between atoms: O_32  and  C_33
REMARK   18  A    between atoms: C_34  and  C_46
REMARK   19  A    between atoms: C_38  and  O_45
REMARK   20  A    between atoms: C_40  and  O_44
REMARK   21  A    between atoms: C_48  and  O_53
REMARK   22  A    between atoms: C_49  and  O_52
REMARK   23  A    between atoms: C_57  and  O_58
REMARK                            x       y       z     vdW  Elec       q    Type
REMARK                         _______ _______ _______ _____ _____    ______ ____
ROOT
ATOM      1  C   UNL     1       5.549   0.090  27.678  0.00  0.00    +0.179 C 
ATOM      2  O   UNL     1       5.896  -1.323  27.521  0.00  0.00    -0.331 OA
ATOM      3  C   UNL     1       4.869  -2.355  27.507  0.00  0.00    +0.340 C 
ATOM      4  C   UNL     1       3.714  -2.143  28.523  0.00  0.00    +0.214 C 
ATOM      5  C   UNL     1       3.346  -0.666  28.638  0.00  0.00    +0.180 C 
ATOM      6  C   UNL     1       4.562   0.240  28.842  0.00  0.00    +0.177 C 
ENDROOT
BRANCH   6   7
ATOM      7  O   UNL     1       4.081   1.573  29.042  0.00  0.00    -0.386 OA
ATOM      8  H   UNL     1       4.809   2.090  29.445  0.00  0.00    +0.210 HD
ENDBRANCH   6   7
BRANCH   5   9
ATOM      9  O   UNL     1       2.432  -0.468  29.724  0.00  0.00    -0.386 OA
ATOM     10  H   UNL     1       1.684  -1.072  29.532  0.00  0.00    +0.210 HD
ENDBRANCH   5   9
BRANCH   4  11
ATOM     11  O   UNL     1       3.951  -2.765  29.805  0.00  0.00    -0.383 OA
ATOM     12  H   UNL     1       4.582  -3.494  29.691  0.00  0.00    +0.210 HD
ENDBRANCH   4  11
BRANCH   3  13
ATOM     13  O   UNL     1       5.390  -3.711  27.802  0.00  0.00    -0.453 OA
BRANCH  13  14
ATOM     14  C   UNL     1       5.007  -4.824  27.094  0.00  0.00    +0.214 A 
ATOM     15  C   UNL     1       3.932  -5.697  27.651  0.00  0.00    +0.238 A 
ATOM     16  O   UNL     1       3.790  -5.852  28.858  0.00  0.00    -0.283 OA
ATOM     17  C   UNL     1       3.166  -6.488  26.735  0.00  0.00    +0.109 A 
ATOM     18  C   UNL     1       3.790  -6.898  25.553  0.00  0.00    +0.147 A 
ATOM     19  C   UNL     1       3.179  -7.894  24.786  0.00  0.00    +0.092 A 
ATOM     20  C   UNL     1       1.941  -8.409  25.199  0.00  0.00    +0.124 A 
ATOM     21  C   UNL     1       1.286  -7.936  26.335  0.00  0.00    +0.091 A 
ATOM     22  O   UNL     1       5.008  -6.364  25.178  0.00  0.00    -0.451 OA
ATOM     23  C   UNL     1       1.898  -6.958  27.090  0.00  0.00    +0.135 A 
ATOM     24  C   UNL     1       5.520  -5.269  25.891  0.00  0.00    +0.181 A 
BRANCH  24  25
ATOM     25  C   UNL     1       6.743  -4.660  25.266  0.00  0.00    +0.025 A 
ATOM     26  C   UNL     1       6.721  -3.510  24.440  0.00  0.00    +0.015 A 
ATOM     27  C   UNL     1       7.919  -2.959  23.910  0.00  0.00    +0.050 A 
ATOM     28  C   UNL     1       9.133  -3.558  24.205  0.00  0.00    +0.158 A 
ATOM     29  C   UNL     1       9.164  -4.724  24.951  0.00  0.00    +0.159 A 
ATOM     30  C   UNL     1       7.986  -5.287  25.437  0.00  0.00    +0.060 A 
BRANCH  28  31
ATOM     31  O   UNL     1      10.299  -2.996  23.778  0.00  0.00    -0.503 OA
ATOM     32  H   UNL     1      10.046  -2.094  23.492  0.00  0.00    +0.292 HD
ENDBRANCH  28  31
BRANCH  29  33
ATOM     33  O   UNL     1      10.376  -5.297  25.227  0.00  0.00    -0.503 OA
ATOM     34  H   UNL     1      10.364  -5.549  26.171  0.00  0.00    +0.292 HD
ENDBRANCH  29  33
ENDBRANCH  24  25
BRANCH  23  35
ATOM     35  O   UNL     1       1.274  -6.426  28.176  0.00  0.00    -0.506 OA
ATOM     36  H   UNL     1       1.672  -5.563  28.389  0.00  0.00    +0.292 HD
ENDBRANCH  23  35
BRANCH  20  37
ATOM     37  O   UNL     1       1.294  -9.405  24.525  0.00  0.00    -0.507 OA
ATOM     38  H   UNL     1       0.335  -9.232  24.538  0.00  0.00    +0.292 HD
ENDBRANCH  20  37
ENDBRANCH  13  14
ENDBRANCH   3  13
BRANCH   1  39
ATOM     39  C   UNL     1       5.203   0.978  26.383  0.00  0.00    +0.197 C 
BRANCH  39  40
ATOM     40  O   UNL     1       5.398   2.446  26.577  0.00  0.00    -0.346 OA
BRANCH  40  42
ATOM     41  C   UNL     1       6.131   4.435  24.934  0.00  0.00    +0.208 C 
ATOM     42  C   UNL     1       5.064   3.262  25.401  0.00  0.00    +0.282 C 
ATOM     43  O   UNL     1       4.768   2.440  24.260  0.00  0.00    -0.341 OA
ATOM     44  C   UNL     1       4.066   3.115  23.195  0.00  0.00    +0.178 C 
ATOM     45  C   UNL     1       4.801   4.380  22.704  0.00  0.00    +0.177 C 
ATOM     46  C   UNL     1       5.336   5.237  23.863  0.00  0.00    +0.179 C 
BRANCH  46  47
ATOM     47  O   UNL     1       6.065   6.356  23.335  0.00  0.00    -0.386 OA
ATOM     48  H   UNL     1       5.940   6.344  22.367  0.00  0.00    +0.210 HD
ENDBRANCH  46  47
BRANCH  45  49
ATOM     49  O   UNL     1       3.917   5.180  21.896  0.00  0.00    -0.386 OA
ATOM     50  H   UNL     1       3.451   4.567  21.295  0.00  0.00    +0.210 HD
ENDBRANCH  45  49
BRANCH  44  51
ATOM     51  C   UNL     1       2.575   3.355  23.540  0.00  0.00    +0.190 C 
BRANCH  51  52
ATOM     52  O   UNL     1       1.717   2.576  22.707  0.00  0.00    -0.392 OA
ATOM     53  H   UNL     1       2.270   2.159  22.023  0.00  0.00    +0.210 HD
ENDBRANCH  51  52
ENDBRANCH  44  51
BRANCH  41  54
ATOM     54  O   UNL     1       7.416   3.900  24.548  0.00  0.00    -0.338 OA
BRANCH  54  58
ATOM     55  C   UNL     1      10.393   0.364  24.869  0.00  0.00    +0.041 C 
ATOM     56  C   UNL     1      10.172   1.689  24.130  0.00  0.00    +0.149 C 
ATOM     57  O   UNL     1       9.058   2.364  24.708  0.00  0.00    -0.343 OA
ATOM     58  C   UNL     1       7.772   2.564  24.085  0.00  0.00    +0.282 C 
ATOM     59  C   UNL     1       7.736   2.216  22.549  0.00  0.00    +0.201 C 
ATOM     60  C   UNL     1       8.777   1.140  22.132  0.00  0.00    +0.179 C 
ATOM     61  C   UNL     1      10.177   1.500  22.614  0.00  0.00    +0.174 C 
BRANCH  61  62
ATOM     62  O   UNL     1      10.631   2.694  21.947  0.00  0.00    -0.387 OA
ATOM     63  H   UNL     1      11.048   3.259  22.619  0.00  0.00    +0.210 HD
ENDBRANCH  61  62
BRANCH  60  64
ATOM     64  O   UNL     1       8.793   1.003  20.696  0.00  0.00    -0.386 OA
ATOM     65  H   UNL     1       8.822   1.919  20.346  0.00  0.00    +0.210 HD
ENDBRANCH  60  64
BRANCH  59  66
ATOM     66  O   UNL     1       7.922   3.381  21.725  0.00  0.00    -0.384 OA
ATOM     67  H   UNL     1       7.178   3.977  21.943  0.00  0.00    +0.210 HD
ENDBRANCH  59  66
ENDBRANCH  54  58
ENDBRANCH  41  54
ENDBRANCH  40  42
ENDBRANCH  39  40
ENDBRANCH   1  39
TORSDOF 22
ENDMDL
MODEL 7
REMARK VINA RESULT:      -7.8      2.483      9.718
REMARK  Name = 
REMARK  23 active torsions:
REMARK  status: ('A' for Active; 'I' for Inactive)
REMARK    1  A    between atoms: C_1  and  C_2
REMARK    2  A    between atoms: C_3  and  O_63
REMARK    3  A    between atoms: C_5  and  O_62
REMARK    4  A    between atoms: C_6  and  O_61
REMARK    5  A    between atoms: C_8  and  O_11
REMARK    6  A    between atoms: O_11  and  C_12
REMARK    7  A    between atoms: C_13  and  O_60
REMARK    8  A    between atoms: C_15  and  O_59
REMARK    9  A    between atoms: C_17  and  C_57
REMARK   10  A    between atoms: C_19  and  O_21
REMARK   11  A    between atoms: O_21  and  C_22
REMARK   12  A    between atoms: C_22  and  C_23
REMARK   13  A    between atoms: C_24  and  O_56
REMARK   14  A    between atoms: C_26  and  O_55
REMARK   15  A    between atoms: C_28  and  O_54
REMARK   16  A    between atoms: C_29  and  O_32
REMARK   17  A    between atoms: O_32  and  C_33
REMARK   18  A    between atoms: C_34  and  C_46
REMARK   19  A    between atoms: C_38  and  O_45
REMARK   20  A    between atoms: C_40  and  O_44
REMARK   21  A    between atoms: C_48  and  O_53
REMARK   22  A    between atoms: C_49  and  O_52
REMARK   23  A    between atoms: C_57  and  O_58
REMARK                            x       y       z     vdW  Elec       q    Type
REMARK                         _______ _______ _______ _____ _____    ______ ____
ROOT
ATOM      1  C   UNL     1       7.853  -1.490  25.645  0.00  0.00    +0.179 C 
ATOM      2  O   UNL     1       7.555  -2.848  26.104  0.00  0.00    -0.331 OA
ATOM      3  C   UNL     1       8.567  -3.894  26.071  0.00  0.00    +0.340 C 
ATOM      4  C   UNL     1       9.477  -3.885  24.812  0.00  0.00    +0.214 C 
ATOM      5  C   UNL     1       9.804  -2.459  24.379  0.00  0.00    +0.180 C 
ATOM      6  C   UNL     1       8.568  -1.562  24.290  0.00  0.00    +0.177 C 
ENDROOT
BRANCH   6   7
ATOM      7  O   UNL     1       8.988  -0.294  23.775  0.00  0.00    -0.386 OA
ATOM      8  H   UNL     1       9.864  -0.422  23.357  0.00  0.00    +0.210 HD
ENDBRANCH   6   7
BRANCH   5   9
ATOM      9  O   UNL     1      10.464  -2.468  23.108  0.00  0.00    -0.386 OA
ATOM     10  H   UNL     1      11.284  -1.950  23.249  0.00  0.00    +0.210 HD
ENDBRANCH   5   9
BRANCH   4  11
ATOM     11  O   UNL     1       8.976  -4.700  23.731  0.00  0.00    -0.383 OA
ATOM     12  H   UNL     1       8.037  -4.891  23.888  0.00  0.00    +0.210 HD
ENDBRANCH   4  11
BRANCH   3  13
ATOM     13  O   UNL     1       8.003  -5.263  26.121  0.00  0.00    -0.453 OA
BRANCH  13  14
ATOM     14  C   UNL     1       6.684  -5.514  26.415  0.00  0.00    +0.214 A 
ATOM     15  C   UNL     1       6.309  -5.832  27.824  0.00  0.00    +0.238 A 
ATOM     16  O   UNL     1       7.067  -6.440  28.569  0.00  0.00    -0.283 OA
ATOM     17  C   UNL     1       4.967  -5.555  28.241  0.00  0.00    +0.109 A 
ATOM     18  C   UNL     1       3.961  -5.611  27.271  0.00  0.00    +0.147 A 
ATOM     19  C   UNL     1       2.628  -5.631  27.691  0.00  0.00    +0.092 A 
ATOM     20  C   UNL     1       2.345  -5.543  29.063  0.00  0.00    +0.124 A 
ATOM     21  C   UNL     1       3.351  -5.404  30.017  0.00  0.00    +0.091 A 
ATOM     22  O   UNL     1       4.281  -5.693  25.930  0.00  0.00    -0.451 OA
ATOM     23  C   UNL     1       4.664  -5.391  29.596  0.00  0.00    +0.135 A 
ATOM     24  C   UNL     1       5.618  -5.526  25.536  0.00  0.00    +0.181 A 
BRANCH  24  25
ATOM     25  C   UNL     1       5.803  -5.440  24.048  0.00  0.00    +0.025 A 
ATOM     26  C   UNL     1       6.228  -6.523  23.239  0.00  0.00    +0.015 A 
ATOM     27  C   UNL     1       6.346  -6.389  21.830  0.00  0.00    +0.050 A 
ATOM     28  C   UNL     1       6.042  -5.176  21.233  0.00  0.00    +0.158 A 
ATOM     29  C   UNL     1       5.695  -4.089  22.017  0.00  0.00    +0.159 A 
ATOM     30  C   UNL     1       5.619  -4.209  23.402  0.00  0.00    +0.060 A 
BRANCH  28  31
ATOM     31  O   UNL     1       6.066  -5.052  19.876  0.00  0.00    -0.503 OA
ATOM     32  H   UNL     1       5.127  -4.940  19.623  0.00  0.00    +0.292 HD
ENDBRANCH  28  31
BRANCH  29  33
ATOM     33  O   UNL     1       5.401  -2.902  21.403  0.00  0.00    -0.503 OA
ATOM     34  H   UNL     1       5.082  -2.292  22.097  0.00  0.00    +0.292 HD
ENDBRANCH  29  33
ENDBRANCH  24  25
BRANCH  23  35
ATOM     35  O   UNL     1       5.677  -5.204  30.485  0.00  0.00    -0.506 OA
ATOM     36  H   UNL     1       5.664  -4.283  30.802  0.00  0.00    +0.292 HD
ENDBRANCH  23  35
BRANCH  20  37
ATOM     37  O   UNL     1       1.073  -5.587  29.558  0.00  0.00    -0.507 OA
ATOM     38  H   UNL     1       0.670  -6.446  29.334  0.00  0.00    +0.292 HD
ENDBRANCH  20  37
ENDBRANCH  13  14
ENDBRANCH   3  13
BRANCH   1  39
ATOM     39  C   UNL     1       8.462  -0.414  26.673  0.00  0.00    +0.197 C 
BRANCH  39  40
ATOM     40  O   UNL     1       7.919   0.968  26.506  0.00  0.00    -0.346 OA
BRANCH  40  42
ATOM     41  C   UNL     1       6.001   2.688  27.250  0.00  0.00    +0.208 C 
ATOM     42  C   UNL     1       6.554   1.147  27.022  0.00  0.00    +0.282 C 
ATOM     43  O   UNL     1       5.594   0.436  26.223  0.00  0.00    -0.341 OA
ATOM     44  C   UNL     1       4.313   0.233  26.857  0.00  0.00    +0.178 C 
ATOM     45  C   UNL     1       3.667   1.552  27.332  0.00  0.00    +0.177 C 
ATOM     46  C   UNL     1       4.673   2.480  28.033  0.00  0.00    +0.179 C 
BRANCH  46  47
ATOM     47  O   UNL     1       4.022   3.711  28.386  0.00  0.00    -0.386 OA
ATOM     48  H   UNL     1       3.759   3.635  29.322  0.00  0.00    +0.210 HD
ENDBRANCH  46  47
BRANCH  45  49
ATOM     49  O   UNL     1       2.580   1.269  28.233  0.00  0.00    -0.386 OA
ATOM     50  H   UNL     1       2.054   0.554  27.826  0.00  0.00    +0.210 HD
ENDBRANCH  45  49
BRANCH  44  51
ATOM     51  C   UNL     1       4.371  -0.862  27.950  0.00  0.00    +0.190 C 
BRANCH  51  52
ATOM     52  O   UNL     1       4.909  -2.080  27.438  0.00  0.00    -0.392 OA
ATOM     53  H   UNL     1       5.073  -2.671  28.194  0.00  0.00    +0.210 HD
ENDBRANCH  51  52
ENDBRANCH  44  51
BRANCH  41  54
ATOM     54  O   UNL     1       5.939   3.447  26.022  0.00  0.00    -0.338 OA
BRANCH  54  58
ATOM     55  C   UNL     1       7.378   6.914  23.306  0.00  0.00    +0.041 C 
ATOM     56  C   UNL     1       6.597   5.595  23.264  0.00  0.00    +0.149 C 
ATOM     57  O   UNL     1       6.394   5.132  24.596  0.00  0.00    -0.343 OA
ATOM     58  C   UNL     1       7.017   3.978  25.197  0.00  0.00    +0.282 C 
ATOM     59  C   UNL     1       7.772   3.046  24.174  0.00  0.00    +0.201 C 
ATOM     60  C   UNL     1       8.297   3.798  22.920  0.00  0.00    +0.179 C 
ATOM     61  C   UNL     1       7.195   4.615  22.256  0.00  0.00    +0.174 C 
BRANCH  61  62
ATOM     62  O   UNL     1       6.183   3.734  21.731  0.00  0.00    -0.387 OA
ATOM     63  H   UNL     1       6.471   3.460  20.844  0.00  0.00    +0.210 HD
ENDBRANCH  61  62
BRANCH  60  64
ATOM     64  O   UNL     1       8.823   2.853  21.966  0.00  0.00    -0.386 OA
ATOM     65  H   UNL     1       9.734   2.654  22.270  0.00  0.00    +0.210 HD
ENDBRANCH  60  64
BRANCH  59  66
ATOM     66  O   UNL     1       6.957   1.942  23.743  0.00  0.00    -0.384 OA
ATOM     67  H   UNL     1       6.075   2.323  23.559  0.00  0.00    +0.210 HD
ENDBRANCH  59  66
ENDBRANCH  54  58
ENDBRANCH  41  54
ENDBRANCH  40  42
ENDBRANCH  39  40
ENDBRANCH   1  39
TORSDOF 22
ENDMDL
MODEL 8
REMARK VINA RESULT:      -7.7      2.726      7.392
REMARK  Name = 
REMARK  23 active torsions:
REMARK  status: ('A' for Active; 'I' for Inactive)
REMARK    1  A    between atoms: C_1  and  C_2
REMARK    2  A    between atoms: C_3  and  O_63
REMARK    3  A    between atoms: C_5  and  O_62
REMARK    4  A    between atoms: C_6  and  O_61
REMARK    5  A    between atoms: C_8  and  O_11
REMARK    6  A    between atoms: O_11  and  C_12
REMARK    7  A    between atoms: C_13  and  O_60
REMARK    8  A    between atoms: C_15  and  O_59
REMARK    9  A    between atoms: C_17  and  C_57
REMARK   10  A    between atoms: C_19  and  O_21
REMARK   11  A    between atoms: O_21  and  C_22
REMARK   12  A    between atoms: C_22  and  C_23
REMARK   13  A    between atoms: C_24  and  O_56
REMARK   14  A    between atoms: C_26  and  O_55
REMARK   15  A    between atoms: C_28  and  O_54
REMARK   16  A    between atoms: C_29  and  O_32
REMARK   17  A    between atoms: O_32  and  C_33
REMARK   18  A    between atoms: C_34  and  C_46
REMARK   19  A    between atoms: C_38  and  O_45
REMARK   20  A    between atoms: C_40  and  O_44
REMARK   21  A    between atoms: C_48  and  O_53
REMARK   22  A    between atoms: C_49  and  O_52
REMARK   23  A    between atoms: C_57  and  O_58
REMARK                            x       y       z     vdW  Elec       q    Type
REMARK                         _______ _______ _______ _____ _____    ______ ____
ROOT
ATOM      1  C   UNL     1       5.096  -4.288  24.037  0.00  0.00    +0.179 C 
ATOM      2  O   UNL     1       6.138  -3.343  23.632  0.00  0.00    -0.331 OA
ATOM      3  C   UNL     1       6.737  -3.404  22.306  0.00  0.00    +0.340 C 
ATOM      4  C   UNL     1       7.005  -4.837  21.774  0.00  0.00    +0.214 C 
ATOM      5  C   UNL     1       5.885  -5.793  22.176  0.00  0.00    +0.180 C 
ATOM      6  C   UNL     1       5.534  -5.710  23.663  0.00  0.00    +0.177 C 
ENDROOT
BRANCH   6   7
ATOM      7  O   UNL     1       4.557  -6.721  23.935  0.00  0.00    -0.386 OA
ATOM      8  H   UNL     1       4.378  -7.190  23.094  0.00  0.00    +0.210 HD
ENDBRANCH   6   7
BRANCH   5   9
ATOM      9  O   UNL     1       6.250  -7.142  21.860  0.00  0.00    -0.386 OA
ATOM     10  H   UNL     1       5.761  -7.345  21.035  0.00  0.00    +0.210 HD
ENDBRANCH   5   9
BRANCH   4  11
ATOM     11  O   UNL     1       8.318  -5.340  22.102  0.00  0.00    -0.383 OA
ATOM     12  H   UNL     1       8.599  -4.960  22.950  0.00  0.00    +0.210 HD
ENDBRANCH   4  11
BRANCH   3  13
ATOM     13  O   UNL     1       8.046  -2.715  22.217  0.00  0.00    -0.453 OA
BRANCH  13  14
ATOM     14  C   UNL     1       8.351  -1.599  22.958  0.00  0.00    +0.214 A 
ATOM     15  C   UNL     1       8.710  -0.338  22.244  0.00  0.00    +0.238 A 
ATOM     16  O   UNL     1       9.303  -0.352  21.173  0.00  0.00    -0.283 OA
ATOM     17  C   UNL     1       8.490   0.904  22.923  0.00  0.00    +0.109 A 
ATOM     18  C   UNL     1       8.566   0.902  24.319  0.00  0.00    +0.147 A 
ATOM     19  C   UNL     1       8.643   2.128  24.986  0.00  0.00    +0.092 A 
ATOM     20  C   UNL     1       8.591   3.315  24.239  0.00  0.00    +0.124 A 
ATOM     21  C   UNL     1       8.433   3.309  22.853  0.00  0.00    +0.091 A 
ATOM     22  O   UNL     1       8.611  -0.287  25.020  0.00  0.00    -0.451 OA
ATOM     23  C   UNL     1       8.364   2.095  22.202  0.00  0.00    +0.135 A 
ATOM     24  C   UNL     1       8.386  -1.491  24.335  0.00  0.00    +0.181 A 
BRANCH  24  25
ATOM     25  C   UNL     1       8.266  -2.687  25.237  0.00  0.00    +0.025 A 
ATOM     26  C   UNL     1       7.354  -2.774  26.317  0.00  0.00    +0.015 A 
ATOM     27  C   UNL     1       7.261  -3.949  27.110  0.00  0.00    +0.050 A 
ATOM     28  C   UNL     1       8.077  -5.031  26.823  0.00  0.00    +0.158 A 
ATOM     29  C   UNL     1       9.023  -4.934  25.817  0.00  0.00    +0.159 A 
ATOM     30  C   UNL     1       9.143  -3.768  25.066  0.00  0.00    +0.060 A 
BRANCH  28  31
ATOM     31  O   UNL     1       7.943  -6.197  27.517  0.00  0.00    -0.503 OA
ATOM     32  H   UNL     1       8.772  -6.273  28.032  0.00  0.00    +0.292 HD
ENDBRANCH  28  31
BRANCH  29  33
ATOM     33  O   UNL     1       9.818  -6.017  25.554  0.00  0.00    -0.503 OA
ATOM     34  H   UNL     1       9.349  -6.805  25.892  0.00  0.00    +0.292 HD
ENDBRANCH  29  33
ENDBRANCH  24  25
BRANCH  23  35
ATOM     35  O   UNL     1       8.155   2.038  20.859  0.00  0.00    -0.506 OA
ATOM     36  H   UNL     1       7.201   2.111  20.675  0.00  0.00    +0.292 HD
ENDBRANCH  23  35
BRANCH  20  37
ATOM     37  O   UNL     1       8.693   4.551  24.808  0.00  0.00    -0.507 OA
ATOM     38  H   UNL     1       9.528   4.968  24.529  0.00  0.00    +0.292 HD
ENDBRANCH  20  37
ENDBRANCH  13  14
ENDBRANCH   3  13
BRANCH   1  39
ATOM     39  C   UNL     1       3.553  -3.957  23.735  0.00  0.00    +0.197 C 
BRANCH  39  40
ATOM     40  O   UNL     1       2.857  -3.226  24.837  0.00  0.00    -0.346 OA
BRANCH  40  42
ATOM     41  C   UNL     1       3.710  -2.926  27.361  0.00  0.00    +0.208 C 
ATOM     42  C   UNL     1       3.021  -3.835  26.164  0.00  0.00    +0.282 C 
ATOM     43  O   UNL     1       1.779  -4.363  26.656  0.00  0.00    -0.341 OA
ATOM     44  C   UNL     1       1.910  -5.302  27.745  0.00  0.00    +0.178 C 
ATOM     45  C   UNL     1       2.699  -4.724  28.939  0.00  0.00    +0.177 C 
ATOM     46  C   UNL     1       3.958  -3.959  28.498  0.00  0.00    +0.179 C 
BRANCH  46  47
ATOM     47  O   UNL     1       4.602  -3.393  29.650  0.00  0.00    -0.386 OA
ATOM     48  H   UNL     1       3.896  -3.054  30.232  0.00  0.00    +0.210 HD
ENDBRANCH  46  47
BRANCH  45  49
ATOM     49  O   UNL     1       3.082  -5.784  29.835  0.00  0.00    -0.386 OA
ATOM     50  H   UNL     1       4.028  -5.654  30.040  0.00  0.00    +0.210 HD
ENDBRANCH  45  49
BRANCH  44  51
ATOM     51  C   UNL     1       2.428  -6.680  27.266  0.00  0.00    +0.190 C 
BRANCH  51  52
ATOM     52  O   UNL     1       1.943  -7.735  28.097  0.00  0.00    -0.392 OA
ATOM     53  H   UNL     1       2.713  -8.160  28.514  0.00  0.00    +0.210 HD
ENDBRANCH  51  52
ENDBRANCH  44  51
BRANCH  41  54
ATOM     54  O   UNL     1       2.937  -1.750  27.685  0.00  0.00    -0.338 OA
BRANCH  54  58
ATOM     55  C   UNL     1       4.943   1.486  25.047  0.00  0.00    +0.041 C 
ATOM     56  C   UNL     1       5.258   0.458  26.140  0.00  0.00    +0.149 C 
ATOM     57  O   UNL     1       4.108  -0.353  26.360  0.00  0.00    -0.343 OA
ATOM     58  C   UNL     1       3.273  -0.340  27.537  0.00  0.00    +0.282 C 
ATOM     59  C   UNL     1       3.877   0.469  28.747  0.00  0.00    +0.201 C 
ATOM     60  C   UNL     1       4.835   1.612  28.314  0.00  0.00    +0.179 C 
ATOM     61  C   UNL     1       5.911   1.109  27.358  0.00  0.00    +0.174 C 
BRANCH  61  62
ATOM     62  O   UNL     1       6.773   0.178  28.040  0.00  0.00    -0.387 OA
ATOM     63  H   UNL     1       6.617  -0.699  27.650  0.00  0.00    +0.210 HD
ENDBRANCH  61  62
BRANCH  60  64
ATOM     64  O   UNL     1       5.469   2.188  29.475  0.00  0.00    -0.386 OA
ATOM     65  H   UNL     1       5.539   3.148  29.286  0.00  0.00    +0.210 HD
ENDBRANCH  60  64
BRANCH  59  66
ATOM     66  O   UNL     1       4.568  -0.385  29.678  0.00  0.00    -0.384 OA
ATOM     67  H   UNL     1       3.947  -0.519  30.421  0.00  0.00    +0.210 HD
ENDBRANCH  59  66
ENDBRANCH  54  58
ENDBRANCH  41  54
ENDBRANCH  40  42
ENDBRANCH  39  40
ENDBRANCH   1  39
TORSDOF 22
ENDMDL
MODEL 9
REMARK VINA RESULT:      -7.7      2.496      4.375
REMARK  Name = 
REMARK  23 active torsions:
REMARK  status: ('A' for Active; 'I' for Inactive)
REMARK    1  A    between atoms: C_1  and  C_2
REMARK    2  A    between atoms: C_3  and  O_63
REMARK    3  A    between atoms: C_5  and  O_62
REMARK    4  A    between atoms: C_6  and  O_61
REMARK    5  A    between atoms: C_8  and  O_11
REMARK    6  A    between atoms: O_11  and  C_12
REMARK    7  A    between atoms: C_13  and  O_60
REMARK    8  A    between atoms: C_15  and  O_59
REMARK    9  A    between atoms: C_17  and  C_57
REMARK   10  A    between atoms: C_19  and  O_21
REMARK   11  A    between atoms: O_21  and  C_22
REMARK   12  A    between atoms: C_22  and  C_23
REMARK   13  A    between atoms: C_24  and  O_56
REMARK   14  A    between atoms: C_26  and  O_55
REMARK   15  A    between atoms: C_28  and  O_54
REMARK   16  A    between atoms: C_29  and  O_32
REMARK   17  A    between atoms: O_32  and  C_33
REMARK   18  A    between atoms: C_34  and  C_46
REMARK   19  A    between atoms: C_38  and  O_45
REMARK   20  A    between atoms: C_40  and  O_44
REMARK   21  A    between atoms: C_48  and  O_53
REMARK   22  A    between atoms: C_49  and  O_52
REMARK   23  A    between atoms: C_57  and  O_58
REMARK                            x       y       z     vdW  Elec       q    Type
REMARK                         _______ _______ _______ _____ _____    ______ ____
ROOT
ATOM      1  C   UNL     1       5.093   0.320  27.147  0.00  0.00    +0.179 C 
ATOM      2  O   UNL     1       5.565   1.375  26.248  0.00  0.00    -0.331 OA
ATOM      3  C   UNL     1       6.696   2.220  26.604  0.00  0.00    +0.340 C 
ATOM      4  C   UNL     1       6.744   2.653  28.095  0.00  0.00    +0.214 C 
ATOM      5  C   UNL     1       6.285   1.523  29.013  0.00  0.00    +0.180 C 
ATOM      6  C   UNL     1       4.967   0.889  28.566  0.00  0.00    +0.177 C 
ENDROOT
BRANCH   6   7
ATOM      7  O   UNL     1       4.591  -0.074  29.557  0.00  0.00    -0.386 OA
ATOM      8  H   UNL     1       4.027  -0.743  29.117  0.00  0.00    +0.210 HD
ENDBRANCH   6   7
BRANCH   5   9
ATOM      9  O   UNL     1       6.138   2.005  30.353  0.00  0.00    -0.386 OA
ATOM     10  H   UNL     1       6.409   1.253  30.919  0.00  0.00    +0.210 HD
ENDBRANCH   5   9
BRANCH   4  11
ATOM     11  O   UNL     1       6.066   3.901  28.356  0.00  0.00    -0.383 OA
ATOM     12  H   UNL     1       6.282   4.195  29.256  0.00  0.00    +0.210 HD
ENDBRANCH   4  11
BRANCH   3  13
ATOM     13  O   UNL     1       6.750   3.488  25.839  0.00  0.00    -0.453 OA
BRANCH  13  14
ATOM     14  C   UNL     1       5.852   3.797  24.847  0.00  0.00    +0.214 A 
ATOM     15  C   UNL     1       4.662   4.631  25.188  0.00  0.00    +0.238 A 
ATOM     16  O   UNL     1       4.125   4.566  26.287  0.00  0.00    -0.283 OA
ATOM     17  C   UNL     1       4.054   5.395  24.140  0.00  0.00    +0.109 A 
ATOM     18  C   UNL     1       4.148   4.899  22.837  0.00  0.00    +0.147 A 
ATOM     19  C   UNL     1       3.333   5.457  21.848  0.00  0.00    +0.092 A 
ATOM     20  C   UNL     1       2.489   6.527  22.185  0.00  0.00    +0.124 A 
ATOM     21  C   UNL     1       2.461   7.070  23.469  0.00  0.00    +0.091 A 
ATOM     22  O   UNL     1       4.994   3.847  22.544  0.00  0.00    -0.451 OA
ATOM     23  C   UNL     1       3.264   6.509  24.440  0.00  0.00    +0.135 A 
ATOM     24  C   UNL     1       5.899   3.407  23.522  0.00  0.00    +0.181 A 
BRANCH  24  25
ATOM     25  C   UNL     1       6.891   2.398  23.018  0.00  0.00    +0.025 A 
ATOM     26  C   UNL     1       6.653   1.002  22.983  0.00  0.00    +0.015 A 
ATOM     27  C   UNL     1       7.618   0.102  22.458  0.00  0.00    +0.050 A 
ATOM     28  C   UNL     1       8.816   0.597  21.969  0.00  0.00    +0.158 A 
ATOM     29  C   UNL     1       9.093   1.950  22.062  0.00  0.00    +0.159 A 
ATOM     30  C   UNL     1       8.164   2.828  22.615  0.00  0.00    +0.060 A 
BRANCH  28  31
ATOM     31  O   UNL     1       9.718  -0.240  21.382  0.00  0.00    -0.503 OA
ATOM     32  H   UNL     1       9.550  -0.147  20.422  0.00  0.00    +0.292 HD
ENDBRANCH  28  31
BRANCH  29  33
ATOM     33  O   UNL     1      10.284   2.414  21.573  0.00  0.00    -0.503 OA
ATOM     34  H   UNL     1      10.338   2.136  20.637  0.00  0.00    +0.292 HD
ENDBRANCH  29  33
ENDBRANCH  24  25
BRANCH  23  35
ATOM     35  O   UNL     1       3.312   7.038  25.693  0.00  0.00    -0.506 OA
ATOM     36  H   UNL     1       4.077   6.671  26.171  0.00  0.00    +0.292 HD
ENDBRANCH  23  35
BRANCH  20  37
ATOM     37  O   UNL     1       1.639   7.108  21.288  0.00  0.00    -0.507 OA
ATOM     38  H   UNL     1       1.042   7.718  21.757  0.00  0.00    +0.292 HD
ENDBRANCH  20  37
ENDBRANCH  13  14
ENDBRANCH   3  13
BRANCH   1  39
ATOM     39  C   UNL     1       5.738  -1.150  27.064  0.00  0.00    +0.197 C 
BRANCH  39  40
ATOM     40  O   UNL     1       6.025  -1.615  25.674  0.00  0.00    -0.346 OA
BRANCH  40  42
ATOM     41  C   UNL     1       6.789  -4.074  26.422  0.00  0.00    +0.208 C 
ATOM     42  C   UNL     1       7.045  -2.671  25.588  0.00  0.00    +0.282 C 
ATOM     43  O   UNL     1       7.341  -3.004  24.222  0.00  0.00    -0.341 OA
ATOM     44  C   UNL     1       8.575  -3.728  24.031  0.00  0.00    +0.178 C 
ATOM     45  C   UNL     1       8.645  -5.020  24.872  0.00  0.00    +0.177 C 
ATOM     46  C   UNL     1       8.155  -4.810  26.314  0.00  0.00    +0.179 C 
BRANCH  46  47
ATOM     47  O   UNL     1       8.184  -6.063  27.016  0.00  0.00    -0.386 OA
ATOM     48  H   UNL     1       8.732  -5.930  27.812  0.00  0.00    +0.210 HD
ENDBRANCH  46  47
BRANCH  45  49
ATOM     49  O   UNL     1       9.998  -5.514  24.901  0.00  0.00    -0.386 OA
ATOM     50  H   UNL     1      10.569  -4.794  24.572  0.00  0.00    +0.210 HD
ENDBRANCH  45  49
BRANCH  44  51
ATOM     51  C   UNL     1       9.816  -2.815  24.187  0.00  0.00    +0.190 C 
BRANCH  51  52
ATOM     52  O   UNL     1      10.407  -2.520  22.921  0.00  0.00    -0.392 OA
ATOM     53  H   UNL     1       9.745  -2.717  22.234  0.00  0.00    +0.210 HD
ENDBRANCH  51  52
ENDBRANCH  44  51
BRANCH  41  54
ATOM     54  O   UNL     1       5.613  -4.784  25.975  0.00  0.00    -0.338 OA
BRANCH  54  58
ATOM     55  C   UNL     1       2.456  -3.449  29.093  0.00  0.00    +0.041 C 
ATOM     56  C   UNL     1       3.827  -4.128  28.981  0.00  0.00    +0.149 C 
ATOM     57  O   UNL     1       4.282  -4.038  27.634  0.00  0.00    -0.343 OA
ATOM     58  C   UNL     1       4.399  -5.134  26.703  0.00  0.00    +0.282 C 
ATOM     59  C   UNL     1       4.245  -6.558  27.360  0.00  0.00    +0.201 C 
ATOM     60  C   UNL     1       3.366  -6.559  28.641  0.00  0.00    +0.179 C 
ATOM     61  C   UNL     1       3.831  -5.507  29.640  0.00  0.00    +0.174 C 
BRANCH  61  62
ATOM     62  O   UNL     1       5.146  -5.842  30.125  0.00  0.00    -0.387 OA
ATOM     63  H   UNL     1       5.131  -5.741  31.092  0.00  0.00    +0.210 HD
ENDBRANCH  61  62
BRANCH  60  64
ATOM     64  O   UNL     1       3.413  -7.858  29.268  0.00  0.00    -0.386 OA
ATOM     65  H   UNL     1       3.018  -8.476  28.618  0.00  0.00    +0.210 HD
ENDBRANCH  60  64
BRANCH  59  66
ATOM     66  O   UNL     1       5.519  -7.150  27.674  0.00  0.00    -0.384 OA
ATOM     67  H   UNL     1       5.941  -7.336  26.811  0.00  0.00    +0.210 HD
ENDBRANCH  59  66
ENDBRANCH  54  58
ENDBRANCH  41  54
ENDBRANCH  40  42
ENDBRANCH  39  40
ENDBRANCH   1  39
TORSDOF 22
ENDMDL
