MODEL 1
REMARK VINA RESULT:      -7.2      0.000      0.000
REMARK  Name = 
REMARK  18 active torsions:
REMARK  status: ('A' for Active; 'I' for Inactive)
REMARK    1  A    between atoms: C_1  and  C_2
REMARK    2  A    between atoms: C_2  and  O_4
REMARK    3  A    between atoms: O_4  and  C_5
REMARK    4  A    between atoms: C_7  and  C_43
REMARK    5  A    between atoms: C_9  and  O_21
REMARK    6  A    between atoms: C_11  and  O_17
REMARK    7  A    between atoms: C_12  and  O_13
REMARK    8  A    between atoms: O_13  and  C_14
REMARK    9  A    between atoms: C_14  and  C_16
REMARK   10  A    between atoms: O_17  and  C_18
REMARK   11  A    between atoms: C_18  and  C_20
REMARK   12  A    between atoms: O_21  and  C_22
REMARK   13  A    between atoms: C_23  and  C_35
REMARK   14  A    between atoms: C_27  and  O_34
REMARK   15  A    between atoms: C_29  and  O_33
REMARK   16  A    between atoms: C_37  and  O_42
REMARK   17  A    between atoms: C_38  and  O_41
REMARK   18  A    between atoms: C_43  and  O_44
REMARK                            x       y       z     vdW  Elec       q    Type
REMARK                         _______ _______ _______ _____ _____    ______ ____
ROOT
ATOM      1  C   UNL     1       6.174  -0.742  24.383  0.00  0.00    +0.214 A 
ATOM      2  C   UNL     1       6.925   0.448  24.911  0.00  0.00    +0.238 A 
ATOM      3  O   UNL     1       6.721   0.906  26.026  0.00  0.00    -0.283 OA
ATOM      4  C   UNL     1       7.959   1.052  24.088  0.00  0.00    +0.109 A 
ATOM      5  C   UNL     1       8.312   0.383  22.929  0.00  0.00    +0.147 A 
ATOM      6  C   UNL     1       9.292   0.915  22.088  0.00  0.00    +0.092 A 
ATOM      7  C   UNL     1       9.918   2.110  22.442  0.00  0.00    +0.124 A 
ATOM      8  C   UNL     1       9.590   2.775  23.611  0.00  0.00    +0.091 A 
ATOM      9  O   UNL     1       7.767  -0.818  22.573  0.00  0.00    -0.451 OA
ATOM     10  C   UNL     1       8.606   2.248  24.437  0.00  0.00    +0.135 A 
ATOM     11  C   UNL     1       6.715  -1.380  23.311  0.00  0.00    +0.181 A 
ENDROOT
BRANCH  11  12
ATOM     12  C   UNL     1       6.395  -2.767  22.786  0.00  0.00    +0.025 A 
ATOM     13  C   UNL     1       7.474  -3.598  22.377  0.00  0.00    +0.015 A 
ATOM     14  C   UNL     1       7.326  -4.969  22.131  0.00  0.00    +0.050 A 
ATOM     15  C   UNL     1       6.078  -5.538  22.262  0.00  0.00    +0.158 A 
ATOM     16  C   UNL     1       4.976  -4.736  22.535  0.00  0.00    +0.159 A 
ATOM     17  C   UNL     1       5.120  -3.364  22.796  0.00  0.00    +0.060 A 
BRANCH  15  18
ATOM     18  O   UNL     1       5.947  -6.891  22.142  0.00  0.00    -0.503 OA
ATOM     19  H   UNL     1       5.016  -7.072  22.378  0.00  0.00    +0.292 HD
ENDBRANCH  15  18
BRANCH  16  20
ATOM     20  O   UNL     1       3.755  -5.356  22.564  0.00  0.00    -0.503 OA
ATOM     21  H   UNL     1       3.265  -5.007  23.328  0.00  0.00    +0.292 HD
ENDBRANCH  16  20
ENDBRANCH  11  12
BRANCH   7  22
ATOM     22  O   UNL     1      10.878   2.679  21.660  0.00  0.00    -0.507 OA
ATOM     23  H   UNL     1      11.753   2.465  22.022  0.00  0.00    +0.292 HD
ENDBRANCH   7  22
BRANCH  10  24
ATOM     24  O   UNL     1       8.286   2.927  25.577  0.00  0.00    -0.506 OA
ATOM     25  H   UNL     1       8.069   3.849  25.369  0.00  0.00    +0.292 HD
ENDBRANCH  10  24
BRANCH   1  26
ATOM     26  O   UNL     1       5.053  -1.179  25.082  0.00  0.00    -0.452 OA
BRANCH  26  30
ATOM     27  C   UNL     1       5.746  -4.727  27.412  0.00  0.00    +0.252 C 
ATOM     28  C   UNL     1       4.429  -3.968  27.690  0.00  0.00    +0.266 C 
ATOM     29  C   UNL     1       4.081  -3.030  26.512  0.00  0.00    +0.289 C 
ATOM     30  C   UNL     1       5.299  -2.119  26.171  0.00  0.00    +0.353 C 
ATOM     31  O   UNL     1       6.523  -2.845  25.995  0.00  0.00    -0.329 OA
ATOM     32  C   UNL     1       6.860  -3.705  27.099  0.00  0.00    +0.192 C 
BRANCH  27  33
ATOM     33  O   UNL     1       5.559  -5.601  26.279  0.00  0.00    -0.455 OA
BRANCH  33  35
ATOM     34  C   UNL     1       4.061  -7.199  25.435  0.00  0.00    +0.136 C 
ATOM     35  C   UNL     1       4.977  -6.801  26.549  0.00  0.00    +0.304 C 
ATOM     36  O   UNL     1       5.128  -7.432  27.586  0.00  0.00    -0.251 OA
ENDBRANCH  33  35
ENDBRANCH  27  33
BRANCH  28  37
ATOM     37  O   UNL     1       4.575  -3.208  28.910  0.00  0.00    -0.454 OA
BRANCH  37  38
ATOM     38  C   UNL     1       3.836  -3.635  29.973  0.00  0.00    +0.304 C 
ATOM     39  C   UNL     1       2.964  -2.530  30.485  0.00  0.00    +0.136 C 
ATOM     40  O   UNL     1       3.874  -4.749  30.473  0.00  0.00    -0.251 OA
ENDBRANCH  37  38
ENDBRANCH  28  37
BRANCH  29  41
ATOM     41  O   UNL     1       2.906  -2.246  26.828  0.00  0.00    -0.451 OA
BRANCH  41  42
ATOM     42  C   UNL     1       1.815  -2.513  26.050  0.00  0.00    +0.305 C 
ATOM     43  C   UNL     1       2.059  -3.703  25.179  0.00  0.00    +0.136 C 
ATOM     44  O   UNL     1       0.762  -1.897  26.035  0.00  0.00    -0.251 OA
ENDBRANCH  41  42
ENDBRANCH  29  41
BRANCH  32  45
ATOM     45  C   UNL     1       8.192  -4.372  26.729  0.00  0.00    +0.191 C 
BRANCH  45  46
ATOM     46  O   UNL     1       8.221  -5.693  27.281  0.00  0.00    -0.392 OA
ATOM     47  H   UNL     1       7.428  -5.745  27.852  0.00  0.00    +0.210 HD
ENDBRANCH  45  46
ENDBRANCH  32  45
ENDBRANCH  26  30
ENDBRANCH   1  26
TORSDOF 15
ENDMDL
MODEL 2
REMARK VINA RESULT:      -6.9      1.858      3.705
REMARK  Name = 
REMARK  18 active torsions:
REMARK  status: ('A' for Active; 'I' for Inactive)
REMARK    1  A    between atoms: C_1  and  C_2
REMARK    2  A    between atoms: C_2  and  O_4
REMARK    3  A    between atoms: O_4  and  C_5
REMARK    4  A    between atoms: C_7  and  C_43
REMARK    5  A    between atoms: C_9  and  O_21
REMARK    6  A    between atoms: C_11  and  O_17
REMARK    7  A    between atoms: C_12  and  O_13
REMARK    8  A    between atoms: O_13  and  C_14
REMARK    9  A    between atoms: C_14  and  C_16
REMARK   10  A    between atoms: O_17  and  C_18
REMARK   11  A    between atoms: C_18  and  C_20
REMARK   12  A    between atoms: O_21  and  C_22
REMARK   13  A    between atoms: C_23  and  C_35
REMARK   14  A    between atoms: C_27  and  O_34
REMARK   15  A    between atoms: C_29  and  O_33
REMARK   16  A    between atoms: C_37  and  O_42
REMARK   17  A    between atoms: C_38  and  O_41
REMARK   18  A    between atoms: C_43  and  O_44
REMARK                            x       y       z     vdW  Elec       q    Type
REMARK                         _______ _______ _______ _____ _____    ______ ____
ROOT
ATOM      1  C   UNL     1       7.413  -1.264  24.806  0.00  0.00    +0.214 A 
ATOM      2  C   UNL     1       8.009   0.092  25.063  0.00  0.00    +0.238 A 
ATOM      3  O   UNL     1       8.850   0.281  25.930  0.00  0.00    -0.283 OA
ATOM      4  C   UNL     1       7.606   1.210  24.228  0.00  0.00    +0.109 A 
ATOM      5  C   UNL     1       6.820   0.922  23.125  0.00  0.00    +0.147 A 
ATOM      6  C   UNL     1       6.390   1.952  22.287  0.00  0.00    +0.092 A 
ATOM      7  C   UNL     1       6.777   3.263  22.565  0.00  0.00    +0.124 A 
ATOM      8  C   UNL     1       7.582   3.561  23.651  0.00  0.00    +0.091 A 
ATOM      9  O   UNL     1       6.467  -0.352  22.783  0.00  0.00    -0.451 OA
ATOM     10  C   UNL     1       7.996   2.534  24.489  0.00  0.00    +0.135 A 
ATOM     11  C   UNL     1       6.780  -1.436  23.615  0.00  0.00    +0.181 A 
ENDROOT
BRANCH  11  12
ATOM     12  C   UNL     1       6.397  -2.739  22.939  0.00  0.00    +0.025 A 
ATOM     13  C   UNL     1       7.424  -3.502  22.316  0.00  0.00    +0.015 A 
ATOM     14  C   UNL     1       7.241  -4.827  21.900  0.00  0.00    +0.050 A 
ATOM     15  C   UNL     1       6.006  -5.413  22.072  0.00  0.00    +0.158 A 
ATOM     16  C   UNL     1       4.943  -4.662  22.558  0.00  0.00    +0.159 A 
ATOM     17  C   UNL     1       5.124  -3.338  22.990  0.00  0.00    +0.060 A 
BRANCH  15  18
ATOM     18  O   UNL     1       5.852  -6.737  21.781  0.00  0.00    -0.503 OA
ATOM     19  H   UNL     1       5.049  -7.007  22.269  0.00  0.00    +0.292 HD
ENDBRANCH  15  18
BRANCH  16  20
ATOM     20  O   UNL     1       3.724  -5.284  22.621  0.00  0.00    -0.503 OA
ATOM     21  H   UNL     1       3.115  -4.801  22.038  0.00  0.00    +0.292 HD
ENDBRANCH  16  20
ENDBRANCH  11  12
BRANCH   7  22
ATOM     22  O   UNL     1       6.385   4.311  21.786  0.00  0.00    -0.507 OA
ATOM     23  H   UNL     1       7.004   5.049  21.908  0.00  0.00    +0.292 HD
ENDBRANCH   7  22
BRANCH  10  24
ATOM     24  O   UNL     1       8.777   2.849  25.563  0.00  0.00    -0.506 OA
ATOM     25  H   UNL     1       9.080   2.042  26.006  0.00  0.00    +0.292 HD
ENDBRANCH  10  24
BRANCH   1  26
ATOM     26  O   UNL     1       7.642  -2.273  25.735  0.00  0.00    -0.452 OA
BRANCH  26  30
ATOM     27  C   UNL     1       4.756  -4.466  28.050  0.00  0.00    +0.252 C 
ATOM     28  C   UNL     1       5.449  -5.238  26.905  0.00  0.00    +0.266 C 
ATOM     29  C   UNL     1       6.751  -4.526  26.477  0.00  0.00    +0.289 C 
ATOM     30  C   UNL     1       6.469  -3.024  26.173  0.00  0.00    +0.353 C 
ATOM     31  O   UNL     1       5.756  -2.354  27.221  0.00  0.00    -0.329 OA
ATOM     32  C   UNL     1       4.532  -3.004  27.609  0.00  0.00    +0.192 C 
BRANCH  27  33
ATOM     33  O   UNL     1       5.601  -4.495  29.220  0.00  0.00    -0.455 OA
BRANCH  33  35
ATOM     34  C   UNL     1       4.082  -5.951  30.260  0.00  0.00    +0.136 C 
ATOM     35  C   UNL     1       5.514  -5.618  29.984  0.00  0.00    +0.304 C 
ATOM     36  O   UNL     1       6.472  -6.228  30.439  0.00  0.00    -0.251 OA
ENDBRANCH  33  35
ENDBRANCH  27  33
BRANCH  28  37
ATOM     37  O   UNL     1       4.539  -5.334  25.787  0.00  0.00    -0.454 OA
BRANCH  37  38
ATOM     38  C   UNL     1       4.077  -6.583  25.495  0.00  0.00    +0.304 C 
ATOM     39  C   UNL     1       2.909  -6.928  26.366  0.00  0.00    +0.136 C 
ATOM     40  O   UNL     1       4.544  -7.345  24.662  0.00  0.00    -0.251 OA
ENDBRANCH  37  38
ENDBRANCH  28  37
BRANCH  29  41
ATOM     41  O   UNL     1       7.336  -5.196  25.335  0.00  0.00    -0.451 OA
BRANCH  41  42
ATOM     42  C   UNL     1       8.698  -5.294  25.365  0.00  0.00    +0.305 C 
ATOM     43  C   UNL     1       9.230  -4.927  26.713  0.00  0.00    +0.136 C 
ATOM     44  O   UNL     1       9.425  -5.633  24.445  0.00  0.00    -0.251 OA
ENDBRANCH  41  42
ENDBRANCH  29  41
BRANCH  32  45
ATOM     45  C   UNL     1       3.920  -2.136  28.716  0.00  0.00    +0.191 C 
BRANCH  45  46
ATOM     46  O   UNL     1       2.880  -2.874  29.367  0.00  0.00    -0.392 OA
ATOM     47  H   UNL     1       3.289  -3.216  30.187  0.00  0.00    +0.210 HD
ENDBRANCH  45  46
ENDBRANCH  32  45
ENDBRANCH  26  30
ENDBRANCH   1  26
TORSDOF 15
ENDMDL
MODEL 3
REMARK VINA RESULT:      -6.7      2.241      7.922
REMARK  Name = 
REMARK  18 active torsions:
REMARK  status: ('A' for Active; 'I' for Inactive)
REMARK    1  A    between atoms: C_1  and  C_2
REMARK    2  A    between atoms: C_2  and  O_4
REMARK    3  A    between atoms: O_4  and  C_5
REMARK    4  A    between atoms: C_7  and  C_43
REMARK    5  A    between atoms: C_9  and  O_21
REMARK    6  A    between atoms: C_11  and  O_17
REMARK    7  A    between atoms: C_12  and  O_13
REMARK    8  A    between atoms: O_13  and  C_14
REMARK    9  A    between atoms: C_14  and  C_16
REMARK   10  A    between atoms: O_17  and  C_18
REMARK   11  A    between atoms: C_18  and  C_20
REMARK   12  A    between atoms: O_21  and  C_22
REMARK   13  A    between atoms: C_23  and  C_35
REMARK   14  A    between atoms: C_27  and  O_34
REMARK   15  A    between atoms: C_29  and  O_33
REMARK   16  A    between atoms: C_37  and  O_42
REMARK   17  A    between atoms: C_38  and  O_41
REMARK   18  A    between atoms: C_43  and  O_44
REMARK                            x       y       z     vdW  Elec       q    Type
REMARK                         _______ _______ _______ _____ _____    ______ ____
ROOT
ATOM      1  C   UNL     1       5.420  -1.987  25.468  0.00  0.00    +0.214 A 
ATOM      2  C   UNL     1       4.285  -2.691  26.157  0.00  0.00    +0.238 A 
ATOM      3  O   UNL     1       3.151  -2.237  26.177  0.00  0.00    -0.283 OA
ATOM      4  C   UNL     1       4.532  -3.977  26.787  0.00  0.00    +0.109 A 
ATOM      5  C   UNL     1       5.766  -4.563  26.564  0.00  0.00    +0.147 A 
ATOM      6  C   UNL     1       6.071  -5.794  27.148  0.00  0.00    +0.092 A 
ATOM      7  C   UNL     1       5.112  -6.428  27.938  0.00  0.00    +0.124 A 
ATOM      8  C   UNL     1       3.866  -5.864  28.149  0.00  0.00    +0.091 A 
ATOM      9  O   UNL     1       6.712  -4.005  25.751  0.00  0.00    -0.451 OA
ATOM     10  C   UNL     1       3.573  -4.633  27.576  0.00  0.00    +0.135 A 
ATOM     11  C   UNL     1       6.525  -2.731  25.196  0.00  0.00    +0.181 A 
ENDROOT
BRANCH  11  12
ATOM     12  C   UNL     1       7.654  -2.412  24.233  0.00  0.00    +0.025 A 
ATOM     13  C   UNL     1       7.458  -2.688  22.851  0.00  0.00    +0.015 A 
ATOM     14  C   UNL     1       8.308  -2.199  21.851  0.00  0.00    +0.050 A 
ATOM     15  C   UNL     1       9.400  -1.442  22.216  0.00  0.00    +0.158 A 
ATOM     16  C   UNL     1       9.697  -1.258  23.562  0.00  0.00    +0.159 A 
ATOM     17  C   UNL     1       8.841  -1.734  24.568  0.00  0.00    +0.060 A 
BRANCH  15  18
ATOM     18  O   UNL     1      10.163  -0.863  21.245  0.00  0.00    -0.503 OA
ATOM     19  H   UNL     1      11.086  -1.030  21.522  0.00  0.00    +0.292 HD
ENDBRANCH  15  18
BRANCH  16  20
ATOM     20  O   UNL     1      10.845  -0.569  23.852  0.00  0.00    -0.503 OA
ATOM     21  H   UNL     1      10.691   0.366  23.634  0.00  0.00    +0.292 HD
ENDBRANCH  16  20
ENDBRANCH  11  12
BRANCH   7  22
ATOM     22  O   UNL     1       5.353  -7.628  28.538  0.00  0.00    -0.507 OA
ATOM     23  H   UNL     1       5.964  -8.144  27.987  0.00  0.00    +0.292 HD
ENDBRANCH   7  22
BRANCH  10  24
ATOM     24  O   UNL     1       2.344  -4.087  27.809  0.00  0.00    -0.506 OA
ATOM     25  H   UNL     1       1.650  -4.749  27.666  0.00  0.00    +0.292 HD
ENDBRANCH  10  24
BRANCH   1  26
ATOM     26  O   UNL     1       5.228  -0.672  25.055  0.00  0.00    -0.452 OA
BRANCH  26  30
ATOM     27  C   UNL     1       7.273   2.820  26.511  0.00  0.00    +0.252 C 
ATOM     28  C   UNL     1       7.513   2.450  25.030  0.00  0.00    +0.266 C 
ATOM     29  C   UNL     1       6.401   1.507  24.516  0.00  0.00    +0.289 C 
ATOM     30  C   UNL     1       6.243   0.289  25.475  0.00  0.00    +0.353 C 
ATOM     31  O   UNL     1       6.101   0.662  26.853  0.00  0.00    -0.329 OA
ATOM     32  C   UNL     1       7.145   1.524  27.340  0.00  0.00    +0.192 C 
BRANCH  27  33
ATOM     33  O   UNL     1       6.054   3.585  26.616  0.00  0.00    -0.455 OA
BRANCH  33  35
ATOM     34  C   UNL     1       7.078   5.675  26.917  0.00  0.00    +0.136 C 
ATOM     35  C   UNL     1       6.109   4.854  26.127  0.00  0.00    +0.304 C 
ATOM     36  O   UNL     1       5.413   5.281  25.217  0.00  0.00    -0.251 OA
ENDBRANCH  33  35
ENDBRANCH  27  33
BRANCH  28  37
ATOM     37  O   UNL     1       8.805   1.815  24.909  0.00  0.00    -0.454 OA
BRANCH  37  38
ATOM     38  C   UNL     1       9.779   2.549  24.300  0.00  0.00    +0.304 C 
ATOM     39  C   UNL     1       9.333   3.967  24.119  0.00  0.00    +0.136 C 
ATOM     40  O   UNL     1      10.864   2.132  23.925  0.00  0.00    -0.251 OA
ENDBRANCH  37  38
ENDBRANCH  28  37
BRANCH  29  41
ATOM     41  O   UNL     1       6.692   1.082  23.164  0.00  0.00    -0.451 OA
BRANCH  41  42
ATOM     42  C   UNL     1       6.749   2.092  22.247  0.00  0.00    +0.305 C 
ATOM     43  C   UNL     1       7.924   1.923  21.338  0.00  0.00    +0.136 C 
ATOM     44  O   UNL     1       5.970   3.026  22.141  0.00  0.00    -0.251 OA
ENDBRANCH  41  42
ENDBRANCH  29  41
BRANCH  32  45
ATOM     45  C   UNL     1       6.823   1.792  28.816  0.00  0.00    +0.191 C 
BRANCH  45  46
ATOM     46  O   UNL     1       7.557   2.942  29.252  0.00  0.00    -0.392 OA
ATOM     47  H   UNL     1       7.050   3.707  28.912  0.00  0.00    +0.210 HD
ENDBRANCH  45  46
ENDBRANCH  32  45
ENDBRANCH  26  30
ENDBRANCH   1  26
TORSDOF 15
ENDMDL
MODEL 4
REMARK VINA RESULT:      -6.7      1.505      3.712
REMARK  Name = 
REMARK  18 active torsions:
REMARK  status: ('A' for Active; 'I' for Inactive)
REMARK    1  A    between atoms: C_1  and  C_2
REMARK    2  A    between atoms: C_2  and  O_4
REMARK    3  A    between atoms: O_4  and  C_5
REMARK    4  A    between atoms: C_7  and  C_43
REMARK    5  A    between atoms: C_9  and  O_21
REMARK    6  A    between atoms: C_11  and  O_17
REMARK    7  A    between atoms: C_12  and  O_13
REMARK    8  A    between atoms: O_13  and  C_14
REMARK    9  A    between atoms: C_14  and  C_16
REMARK   10  A    between atoms: O_17  and  C_18
REMARK   11  A    between atoms: C_18  and  C_20
REMARK   12  A    between atoms: O_21  and  C_22
REMARK   13  A    between atoms: C_23  and  C_35
REMARK   14  A    between atoms: C_27  and  O_34
REMARK   15  A    between atoms: C_29  and  O_33
REMARK   16  A    between atoms: C_37  and  O_42
REMARK   17  A    between atoms: C_38  and  O_41
REMARK   18  A    between atoms: C_43  and  O_44
REMARK                            x       y       z     vdW  Elec       q    Type
REMARK                         _______ _______ _______ _____ _____    ______ ____
ROOT
ATOM      1  C   UNL     1       6.870  -1.124  25.212  0.00  0.00    +0.214 A 
ATOM      2  C   UNL     1       7.406   0.239  25.552  0.00  0.00    +0.238 A 
ATOM      3  O   UNL     1       7.898   0.493  26.641  0.00  0.00    -0.283 OA
ATOM      4  C   UNL     1       7.379   1.281  24.539  0.00  0.00    +0.109 A 
ATOM      5  C   UNL     1       7.017   0.905  23.257  0.00  0.00    +0.147 A 
ATOM      6  C   UNL     1       6.962   1.859  22.240  0.00  0.00    +0.092 A 
ATOM      7  C   UNL     1       7.294   3.183  22.529  0.00  0.00    +0.124 A 
ATOM      8  C   UNL     1       7.680   3.566  23.802  0.00  0.00    +0.091 A 
ATOM      9  O   UNL     1       6.741  -0.389  22.917  0.00  0.00    -0.451 OA
ATOM     10  C   UNL     1       7.721   2.615  24.813  0.00  0.00    +0.135 A 
ATOM     11  C   UNL     1       6.686  -1.396  23.892  0.00  0.00    +0.181 A 
ENDROOT
BRANCH  11  12
ATOM     12  C   UNL     1       6.498  -2.749  23.232  0.00  0.00    +0.025 A 
ATOM     13  C   UNL     1       7.652  -3.545  22.989  0.00  0.00    +0.015 A 
ATOM     14  C   UNL     1       7.580  -4.899  22.637  0.00  0.00    +0.050 A 
ATOM     15  C   UNL     1       6.341  -5.484  22.490  0.00  0.00    +0.158 A 
ATOM     16  C   UNL     1       5.193  -4.710  22.595  0.00  0.00    +0.159 A 
ATOM     17  C   UNL     1       5.257  -3.355  22.961  0.00  0.00    +0.060 A 
BRANCH  15  18
ATOM     18  O   UNL     1       6.262  -6.828  22.267  0.00  0.00    -0.503 OA
ATOM     19  H   UNL     1       7.096  -7.053  21.810  0.00  0.00    +0.292 HD
ENDBRANCH  15  18
BRANCH  16  20
ATOM     20  O   UNL     1       4.000  -5.339  22.351  0.00  0.00    -0.503 OA
ATOM     21  H   UNL     1       3.360  -5.025  23.012  0.00  0.00    +0.292 HD
ENDBRANCH  16  20
ENDBRANCH  11  12
BRANCH   7  22
ATOM     22  O   UNL     1       7.254   4.159  21.579  0.00  0.00    -0.507 OA
ATOM     23  H   UNL     1       6.519   3.983  20.970  0.00  0.00    +0.292 HD
ENDBRANCH   7  22
BRANCH  10  24
ATOM     24  O   UNL     1       8.090   3.016  26.064  0.00  0.00    -0.506 OA
ATOM     25  H   UNL     1       8.606   2.320  26.500  0.00  0.00    +0.292 HD
ENDBRANCH  10  24
BRANCH   1  26
ATOM     26  O   UNL     1       6.706  -2.045  26.241  0.00  0.00    -0.452 OA
BRANCH  26  30
ATOM     27  C   UNL     1       3.043  -3.915  27.499  0.00  0.00    +0.252 C 
ATOM     28  C   UNL     1       4.111  -4.844  26.879  0.00  0.00    +0.266 C 
ATOM     29  C   UNL     1       5.502  -4.172  26.910  0.00  0.00    +0.289 C 
ATOM     30  C   UNL     1       5.427  -2.749  26.278  0.00  0.00    +0.353 C 
ATOM     31  O   UNL     1       4.376  -1.938  26.819  0.00  0.00    -0.329 OA
ATOM     32  C   UNL     1       3.076  -2.553  26.774  0.00  0.00    +0.192 C 
BRANCH  27  33
ATOM     33  O   UNL     1       3.337  -3.726  28.900  0.00  0.00    -0.455 OA
BRANCH  33  35
ATOM     34  C   UNL     1       1.572  -5.035  29.724  0.00  0.00    +0.136 C 
ATOM     35  C   UNL     1       3.046  -4.778  29.712  0.00  0.00    +0.304 C 
ATOM     36  O   UNL     1       3.864  -5.383  30.391  0.00  0.00    -0.251 OA
ENDBRANCH  33  35
ENDBRANCH  27  33
BRANCH  28  37
ATOM     37  O   UNL     1       3.733  -5.150  25.519  0.00  0.00    -0.454 OA
BRANCH  37  38
ATOM     38  C   UNL     1       3.523  -6.468  25.237  0.00  0.00    +0.304 C 
ATOM     39  C   UNL     1       2.115  -6.857  25.563  0.00  0.00    +0.136 C 
ATOM     40  O   UNL     1       4.354  -7.249  24.800  0.00  0.00    -0.251 OA
ENDBRANCH  37  38
ENDBRANCH  28  37
BRANCH  29  41
ATOM     41  O   UNL     1       6.474  -5.002  26.231  0.00  0.00    -0.451 OA
BRANCH  41  42
ATOM     42  C   UNL     1       7.515  -5.418  27.012  0.00  0.00    +0.305 C 
ATOM     43  C   UNL     1       8.817  -4.917  26.476  0.00  0.00    +0.136 C 
ATOM     44  O   UNL     1       7.442  -6.103  28.020  0.00  0.00    -0.251 OA
ENDBRANCH  41  42
ENDBRANCH  29  41
BRANCH  32  45
ATOM     45  C   UNL     1       2.100  -1.534  27.378  0.00  0.00    +0.191 C 
BRANCH  45  46
ATOM     46  O   UNL     1       2.235  -0.290  26.681  0.00  0.00    -0.392 OA
ATOM     47  H   UNL     1       3.165  -0.272  26.377  0.00  0.00    +0.210 HD
ENDBRANCH  45  46
ENDBRANCH  32  45
ENDBRANCH  26  30
ENDBRANCH   1  26
TORSDOF 15
ENDMDL
MODEL 5
REMARK VINA RESULT:      -6.6      1.840      3.914
REMARK  Name = 
REMARK  18 active torsions:
REMARK  status: ('A' for Active; 'I' for Inactive)
REMARK    1  A    between atoms: C_1  and  C_2
REMARK    2  A    between atoms: C_2  and  O_4
REMARK    3  A    between atoms: O_4  and  C_5
REMARK    4  A    between atoms: C_7  and  C_43
REMARK    5  A    between atoms: C_9  and  O_21
REMARK    6  A    between atoms: C_11  and  O_17
REMARK    7  A    between atoms: C_12  and  O_13
REMARK    8  A    between atoms: O_13  and  C_14
REMARK    9  A    between atoms: C_14  and  C_16
REMARK   10  A    between atoms: O_17  and  C_18
REMARK   11  A    between atoms: C_18  and  C_20
REMARK   12  A    between atoms: O_21  and  C_22
REMARK   13  A    between atoms: C_23  and  C_35
REMARK   14  A    between atoms: C_27  and  O_34
REMARK   15  A    between atoms: C_29  and  O_33
REMARK   16  A    between atoms: C_37  and  O_42
REMARK   17  A    between atoms: C_38  and  O_41
REMARK   18  A    between atoms: C_43  and  O_44
REMARK                            x       y       z     vdW  Elec       q    Type
REMARK                         _______ _______ _______ _____ _____    ______ ____
ROOT
ATOM      1  C   UNL     1       7.426  -0.780  23.284  0.00  0.00    +0.214 A 
ATOM      2  C   UNL     1       7.247   0.689  23.023  0.00  0.00    +0.238 A 
ATOM      3  O   UNL     1       6.165   1.172  22.723  0.00  0.00    -0.283 OA
ATOM      4  C   UNL     1       8.388   1.576  23.173  0.00  0.00    +0.109 A 
ATOM      5  C   UNL     1       9.540   1.036  23.719  0.00  0.00    +0.147 A 
ATOM      6  C   UNL     1      10.675   1.832  23.881  0.00  0.00    +0.092 A 
ATOM      7  C   UNL     1      10.625   3.174  23.505  0.00  0.00    +0.124 A 
ATOM      8  C   UNL     1       9.472   3.732  22.980  0.00  0.00    +0.091 A 
ATOM      9  O   UNL     1       9.614  -0.257  24.154  0.00  0.00    -0.451 OA
ATOM     10  C   UNL     1       8.350   2.932  22.809  0.00  0.00    +0.135 A 
ATOM     11  C   UNL     1       8.553  -1.150  23.949  0.00  0.00    +0.181 A 
ENDROOT
BRANCH  11  12
ATOM     12  C   UNL     1       8.840  -2.468  24.645  0.00  0.00    +0.025 A 
ATOM     13  C   UNL     1       8.765  -2.510  26.065  0.00  0.00    +0.015 A 
ATOM     14  C   UNL     1       8.746  -3.708  26.789  0.00  0.00    +0.050 A 
ATOM     15  C   UNL     1       8.834  -4.901  26.105  0.00  0.00    +0.158 A 
ATOM     16  C   UNL     1       9.037  -4.898  24.730  0.00  0.00    +0.159 A 
ATOM     17  C   UNL     1       9.042  -3.701  23.997  0.00  0.00    +0.060 A 
BRANCH  15  18
ATOM     18  O   UNL     1       8.696  -6.073  26.790  0.00  0.00    -0.503 OA
ATOM     19  H   UNL     1       9.147  -5.917  27.643  0.00  0.00    +0.292 HD
ENDBRANCH  15  18
BRANCH  16  20
ATOM     20  O   UNL     1       9.203  -6.118  24.129  0.00  0.00    -0.503 OA
ATOM     21  H   UNL     1       8.467  -6.242  23.506  0.00  0.00    +0.292 HD
ENDBRANCH  16  20
ENDBRANCH  11  12
BRANCH   7  22
ATOM     22  O   UNL     1      11.702   3.999  23.635  0.00  0.00    -0.507 OA
ATOM     23  H   UNL     1      12.095   3.876  24.514  0.00  0.00    +0.292 HD
ENDBRANCH   7  22
BRANCH  10  24
ATOM     24  O   UNL     1       7.227   3.497  22.276  0.00  0.00    -0.506 OA
ATOM     25  H   UNL     1       6.966   3.026  21.470  0.00  0.00    +0.292 HD
ENDBRANCH  10  24
BRANCH   1  26
ATOM     26  O   UNL     1       6.392  -1.644  22.937  0.00  0.00    -0.452 OA
BRANCH  26  30
ATOM     27  C   UNL     1       4.423  -2.764  26.593  0.00  0.00    +0.252 C 
ATOM     28  C   UNL     1       4.083  -3.606  25.343  0.00  0.00    +0.266 C 
ATOM     29  C   UNL     1       5.163  -3.426  24.253  0.00  0.00    +0.289 C 
ATOM     30  C   UNL     1       5.400  -1.911  23.974  0.00  0.00    +0.353 C 
ATOM     31  O   UNL     1       5.636  -1.142  25.162  0.00  0.00    -0.329 OA
ATOM     32  C   UNL     1       4.621  -1.293  26.171  0.00  0.00    +0.192 C 
BRANCH  27  33
ATOM     33  O   UNL     1       5.640  -3.266  27.184  0.00  0.00    -0.455 OA
BRANCH  33  35
ATOM     34  C   UNL     1       4.271  -3.818  29.009  0.00  0.00    +0.136 C 
ATOM     35  C   UNL     1       5.479  -4.162  28.196  0.00  0.00    +0.304 C 
ATOM     36  O   UNL     1       6.251  -5.076  28.448  0.00  0.00    -0.251 OA
ENDBRANCH  33  35
ENDBRANCH  27  33
BRANCH  28  37
ATOM     37  O   UNL     1       2.791  -3.198  24.840  0.00  0.00    -0.454 OA
BRANCH  37  38
ATOM     38  C   UNL     1       1.817  -4.152  24.846  0.00  0.00    +0.304 C 
ATOM     39  C   UNL     1       0.924  -3.985  26.036  0.00  0.00    +0.136 C 
ATOM     40  O   UNL     1       1.680  -5.042  24.021  0.00  0.00    -0.251 OA
ENDBRANCH  37  38
ENDBRANCH  28  37
BRANCH  29  41
ATOM     41  O   UNL     1       4.782  -4.132  23.048  0.00  0.00    -0.451 OA
BRANCH  41  42
ATOM     42  C   UNL     1       5.397  -5.339  22.874  0.00  0.00    +0.305 C 
ATOM     43  C   UNL     1       6.425  -5.263  21.792  0.00  0.00    +0.136 C 
ATOM     44  O   UNL     1       5.176  -6.367  23.494  0.00  0.00    -0.251 OA
ENDBRANCH  41  42
ENDBRANCH  29  41
BRANCH  32  45
ATOM     45  C   UNL     1       5.044  -0.391  27.339  0.00  0.00    +0.191 C 
BRANCH  45  46
ATOM     46  O   UNL     1       6.469  -0.443  27.476  0.00  0.00    -0.392 OA
ATOM     47  H   UNL     1       6.656  -1.343  27.812  0.00  0.00    +0.210 HD
ENDBRANCH  45  46
ENDBRANCH  32  45
ENDBRANCH  26  30
ENDBRANCH   1  26
TORSDOF 15
ENDMDL
MODEL 6
REMARK VINA RESULT:      -6.6      2.853      6.233
REMARK  Name = 
REMARK  18 active torsions:
REMARK  status: ('A' for Active; 'I' for Inactive)
REMARK    1  A    between atoms: C_1  and  C_2
REMARK    2  A    between atoms: C_2  and  O_4
REMARK    3  A    between atoms: O_4  and  C_5
REMARK    4  A    between atoms: C_7  and  C_43
REMARK    5  A    between atoms: C_9  and  O_21
REMARK    6  A    between atoms: C_11  and  O_17
REMARK    7  A    between atoms: C_12  and  O_13
REMARK    8  A    between atoms: O_13  and  C_14
REMARK    9  A    between atoms: C_14  and  C_16
REMARK   10  A    between atoms: O_17  and  C_18
REMARK   11  A    between atoms: C_18  and  C_20
REMARK   12  A    between atoms: O_21  and  C_22
REMARK   13  A    between atoms: C_23  and  C_35
REMARK   14  A    between atoms: C_27  and  O_34
REMARK   15  A    between atoms: C_29  and  O_33
REMARK   16  A    between atoms: C_37  and  O_42
REMARK   17  A    between atoms: C_38  and  O_41
REMARK   18  A    between atoms: C_43  and  O_44
REMARK                            x       y       z     vdW  Elec       q    Type
REMARK                         _______ _______ _______ _____ _____    ______ ____
ROOT
ATOM      1  C   UNL     1       5.374   0.475  25.704  0.00  0.00    +0.214 A 
ATOM      2  C   UNL     1       4.256   0.916  26.607  0.00  0.00    +0.238 A 
ATOM      3  O   UNL     1       4.034   0.376  27.681  0.00  0.00    -0.283 OA
ATOM      4  C   UNL     1       3.436   2.049  26.214  0.00  0.00    +0.109 A 
ATOM      5  C   UNL     1       3.846   2.769  25.105  0.00  0.00    +0.147 A 
ATOM      6  C   UNL     1       3.097   3.863  24.668  0.00  0.00    +0.092 A 
ATOM      7  C   UNL     1       1.950   4.229  25.373  0.00  0.00    +0.124 A 
ATOM      8  C   UNL     1       1.544   3.531  26.497  0.00  0.00    +0.091 A 
ATOM      9  O   UNL     1       4.993   2.482  24.420  0.00  0.00    -0.451 OA
ATOM     10  C   UNL     1       2.286   2.435  26.920  0.00  0.00    +0.135 A 
ATOM     11  C   UNL     1       5.757   1.349  24.735  0.00  0.00    +0.181 A 
ENDROOT
BRANCH  11  12
ATOM     12  C   UNL     1       7.038   1.343  23.921  0.00  0.00    +0.025 A 
ATOM     13  C   UNL     1       6.940   1.493  22.510  0.00  0.00    +0.015 A 
ATOM     14  C   UNL     1       8.047   1.767  21.697  0.00  0.00    +0.050 A 
ATOM     15  C   UNL     1       9.292   1.866  22.279  0.00  0.00    +0.158 A 
ATOM     16  C   UNL     1       9.447   1.599  23.634  0.00  0.00    +0.159 A 
ATOM     17  C   UNL     1       8.339   1.338  24.456  0.00  0.00    +0.060 A 
BRANCH  15  18
ATOM     18  O   UNL     1      10.355   2.250  21.515  0.00  0.00    -0.503 OA
ATOM     19  H   UNL     1      10.741   3.012  21.990  0.00  0.00    +0.292 HD
ENDBRANCH  15  18
BRANCH  16  20
ATOM     20  O   UNL     1      10.725   1.631  24.127  0.00  0.00    -0.503 OA
ATOM     21  H   UNL     1      11.012   2.560  24.142  0.00  0.00    +0.292 HD
ENDBRANCH  16  20
ENDBRANCH  11  12
BRANCH   7  22
ATOM     22  O   UNL     1       1.177   5.285  24.992  0.00  0.00    -0.507 OA
ATOM     23  H   UNL     1       1.547   5.677  24.185  0.00  0.00    +0.292 HD
ENDBRANCH   7  22
BRANCH  10  24
ATOM     24  O   UNL     1       1.860   1.751  28.021  0.00  0.00    -0.506 OA
ATOM     25  H   UNL     1       1.748   2.358  28.770  0.00  0.00    +0.292 HD
ENDBRANCH  10  24
BRANCH   1  26
ATOM     26  O   UNL     1       6.013  -0.729  25.982  0.00  0.00    -0.452 OA
BRANCH  26  30
ATOM     27  C   UNL     1       4.674  -4.621  24.733  0.00  0.00    +0.252 C 
ATOM     28  C   UNL     1       6.088  -4.201  24.275  0.00  0.00    +0.266 C 
ATOM     29  C   UNL     1       6.622  -3.042  25.147  0.00  0.00    +0.289 C 
ATOM     30  C   UNL     1       5.582  -1.883  25.198  0.00  0.00    +0.353 C 
ATOM     31  O   UNL     1       4.261  -2.316  25.549  0.00  0.00    -0.329 OA
ATOM     32  C   UNL     1       3.753  -3.382  24.727  0.00  0.00    +0.192 C 
BRANCH  27  33
ATOM     33  O   UNL     1       4.750  -5.161  26.069  0.00  0.00    -0.455 OA
BRANCH  33  35
ATOM     34  C   UNL     1       4.114  -7.143  24.984  0.00  0.00    +0.136 C 
ATOM     35  C   UNL     1       4.803  -6.518  26.156  0.00  0.00    +0.304 C 
ATOM     36  O   UNL     1       5.285  -7.139  27.093  0.00  0.00    -0.251 OA
ENDBRANCH  33  35
ENDBRANCH  27  33
BRANCH  28  37
ATOM     37  O   UNL     1       6.032  -3.800  22.888  0.00  0.00    -0.454 OA
BRANCH  37  38
ATOM     38  C   UNL     1       6.336  -4.764  21.973  0.00  0.00    +0.304 C 
ATOM     39  C   UNL     1       7.393  -5.680  22.506  0.00  0.00    +0.136 C 
ATOM     40  O   UNL     1       5.846  -4.877  20.859  0.00  0.00    -0.251 OA
ENDBRANCH  37  38
ENDBRANCH  28  37
BRANCH  29  41
ATOM     41  O   UNL     1       7.900  -2.585  24.643  0.00  0.00    -0.451 OA
BRANCH  41  42
ATOM     42  C   UNL     1       8.963  -3.372  24.983  0.00  0.00    +0.305 C 
ATOM     43  C   UNL     1       8.831  -3.872  26.385  0.00  0.00    +0.136 C 
ATOM     44  O   UNL     1       9.913  -3.661  24.273  0.00  0.00    -0.251 OA
ENDBRANCH  41  42
ENDBRANCH  29  41
BRANCH  32  45
ATOM     45  C   UNL     1       2.342  -3.687  25.247  0.00  0.00    +0.191 C 
BRANCH  45  46
ATOM     46  O   UNL     1       2.365  -3.701  26.679  0.00  0.00    -0.392 OA
ATOM     47  H   UNL     1       2.263  -2.763  26.941  0.00  0.00    +0.210 HD
ENDBRANCH  45  46
ENDBRANCH  32  45
ENDBRANCH  26  30
ENDBRANCH   1  26
TORSDOF 15
ENDMDL
MODEL 7
REMARK VINA RESULT:      -6.6      1.750      2.544
REMARK  Name = 
REMARK  18 active torsions:
REMARK  status: ('A' for Active; 'I' for Inactive)
REMARK    1  A    between atoms: C_1  and  C_2
REMARK    2  A    between atoms: C_2  and  O_4
REMARK    3  A    between atoms: O_4  and  C_5
REMARK    4  A    between atoms: C_7  and  C_43
REMARK    5  A    between atoms: C_9  and  O_21
REMARK    6  A    between atoms: C_11  and  O_17
REMARK    7  A    between atoms: C_12  and  O_13
REMARK    8  A    between atoms: O_13  and  C_14
REMARK    9  A    between atoms: C_14  and  C_16
REMARK   10  A    between atoms: O_17  and  C_18
REMARK   11  A    between atoms: C_18  and  C_20
REMARK   12  A    between atoms: O_21  and  C_22
REMARK   13  A    between atoms: C_23  and  C_35
REMARK   14  A    between atoms: C_27  and  O_34
REMARK   15  A    between atoms: C_29  and  O_33
REMARK   16  A    between atoms: C_37  and  O_42
REMARK   17  A    between atoms: C_38  and  O_41
REMARK   18  A    between atoms: C_43  and  O_44
REMARK                            x       y       z     vdW  Elec       q    Type
REMARK                         _______ _______ _______ _____ _____    ______ ____
ROOT
ATOM      1  C   UNL     1       6.125  -0.956  24.202  0.00  0.00    +0.214 A 
ATOM      2  C   UNL     1       6.467   0.329  24.902  0.00  0.00    +0.238 A 
ATOM      3  O   UNL     1       5.820   0.749  25.849  0.00  0.00    -0.283 OA
ATOM      4  C   UNL     1       7.632   1.081  24.466  0.00  0.00    +0.109 A 
ATOM      5  C   UNL     1       8.463   0.475  23.539  0.00  0.00    +0.147 A 
ATOM      6  C   UNL     1       9.594   1.147  23.071  0.00  0.00    +0.092 A 
ATOM      7  C   UNL     1       9.881   2.420  23.564  0.00  0.00    +0.124 A 
ATOM      8  C   UNL     1       9.072   3.026  24.509  0.00  0.00    +0.091 A 
ATOM      9  O   UNL     1       8.251  -0.792  23.074  0.00  0.00    -0.451 OA
ATOM     10  C   UNL     1       7.941   2.358  24.960  0.00  0.00    +0.135 A 
ATOM     11  C   UNL     1       7.094  -1.504  23.422  0.00  0.00    +0.181 A 
ENDROOT
BRANCH  11  12
ATOM     12  C   UNL     1       7.176  -2.921  22.886  0.00  0.00    +0.025 A 
ATOM     13  C   UNL     1       7.869  -3.894  23.659  0.00  0.00    +0.015 A 
ATOM     14  C   UNL     1       7.783  -5.269  23.404  0.00  0.00    +0.050 A 
ATOM     15  C   UNL     1       7.019  -5.702  22.342  0.00  0.00    +0.158 A 
ATOM     16  C   UNL     1       6.431  -4.777  21.488  0.00  0.00    +0.159 A 
ATOM     17  C   UNL     1       6.502  -3.399  21.746  0.00  0.00    +0.060 A 
BRANCH  15  18
ATOM     18  O   UNL     1       6.833  -7.042  22.159  0.00  0.00    -0.503 OA
ATOM     19  H   UNL     1       6.287  -7.323  22.919  0.00  0.00    +0.292 HD
ENDBRANCH  15  18
BRANCH  16  20
ATOM     20  O   UNL     1       5.760  -5.278  20.404  0.00  0.00    -0.503 OA
ATOM     21  H   UNL     1       6.367  -5.867  19.926  0.00  0.00    +0.292 HD
ENDBRANCH  16  20
ENDBRANCH  11  12
BRANCH   7  22
ATOM     22  O   UNL     1      10.968   3.127  23.142  0.00  0.00    -0.507 OA
ATOM     23  H   UNL     1      11.079   3.002  22.186  0.00  0.00    +0.292 HD
ENDBRANCH   7  22
BRANCH  10  24
ATOM     24  O   UNL     1       7.147   2.979  25.881  0.00  0.00    -0.506 OA
ATOM     25  H   UNL     1       6.214   2.780  25.708  0.00  0.00    +0.292 HD
ENDBRANCH  10  24
BRANCH   1  26
ATOM     26  O   UNL     1       4.901  -1.555  24.483  0.00  0.00    -0.452 OA
BRANCH  26  30
ATOM     27  C   UNL     1       3.898  -5.284  26.376  0.00  0.00    +0.252 C 
ATOM     28  C   UNL     1       4.547  -4.209  27.276  0.00  0.00    +0.266 C 
ATOM     29  C   UNL     1       4.423  -2.810  26.631  0.00  0.00    +0.289 C 
ATOM     30  C   UNL     1       4.956  -2.843  25.166  0.00  0.00    +0.353 C 
ATOM     31  O   UNL     1       4.393  -3.901  24.378  0.00  0.00    -0.329 OA
ATOM     32  C   UNL     1       4.525  -5.208  24.968  0.00  0.00    +0.192 C 
BRANCH  27  33
ATOM     33  O   UNL     1       2.479  -5.035  26.289  0.00  0.00    -0.455 OA
BRANCH  33  35
ATOM     34  C   UNL     1       0.662  -6.506  26.082  0.00  0.00    +0.136 C 
ATOM     35  C   UNL     1       1.685  -5.894  26.986  0.00  0.00    +0.304 C 
ATOM     36  O   UNL     1       1.754  -6.085  28.192  0.00  0.00    -0.251 OA
ENDBRANCH  33  35
ENDBRANCH  27  33
BRANCH  28  37
ATOM     37  O   UNL     1       5.937  -4.545  27.481  0.00  0.00    -0.454 OA
BRANCH  37  38
ATOM     38  C   UNL     1       6.195  -5.453  28.464  0.00  0.00    +0.304 C 
ATOM     39  C   UNL     1       5.317  -5.205  29.652  0.00  0.00    +0.136 C 
ATOM     40  O   UNL     1       7.033  -6.341  28.420  0.00  0.00    -0.251 OA
ENDBRANCH  37  38
ENDBRANCH  28  37
BRANCH  29  41
ATOM     41  O   UNL     1       5.126  -1.827  27.428  0.00  0.00    -0.451 OA
BRANCH  41  42
ATOM     42  C   UNL     1       4.326  -1.065  28.230  0.00  0.00    +0.305 C 
ATOM     43  C   UNL     1       3.057  -0.703  27.530  0.00  0.00    +0.136 C 
ATOM     44  O   UNL     1       4.569  -0.705  29.371  0.00  0.00    -0.251 OA
ENDBRANCH  41  42
ENDBRANCH  29  41
BRANCH  32  45
ATOM     45  C   UNL     1       3.883  -6.189  23.977  0.00  0.00    +0.191 C 
BRANCH  45  46
ATOM     46  O   UNL     1       4.525  -7.463  24.100  0.00  0.00    -0.392 OA
ATOM     47  H   UNL     1       5.087  -7.539  23.303  0.00  0.00    +0.210 HD
ENDBRANCH  45  46
ENDBRANCH  32  45
ENDBRANCH  26  30
ENDBRANCH   1  26
TORSDOF 15
ENDMDL
MODEL 8
REMARK VINA RESULT:      -6.5      2.643      5.585
REMARK  Name = 
REMARK  18 active torsions:
REMARK  status: ('A' for Active; 'I' for Inactive)
REMARK    1  A    between atoms: C_1  and  C_2
REMARK    2  A    between atoms: C_2  and  O_4
REMARK    3  A    between atoms: O_4  and  C_5
REMARK    4  A    between atoms: C_7  and  C_43
REMARK    5  A    between atoms: C_9  and  O_21
REMARK    6  A    between atoms: C_11  and  O_17
REMARK    7  A    between atoms: C_12  and  O_13
REMARK    8  A    between atoms: O_13  and  C_14
REMARK    9  A    between atoms: C_14  and  C_16
REMARK   10  A    between atoms: O_17  and  C_18
REMARK   11  A    between atoms: C_18  and  C_20
REMARK   12  A    between atoms: O_21  and  C_22
REMARK   13  A    between atoms: C_23  and  C_35
REMARK   14  A    between atoms: C_27  and  O_34
REMARK   15  A    between atoms: C_29  and  O_33
REMARK   16  A    between atoms: C_37  and  O_42
REMARK   17  A    between atoms: C_38  and  O_41
REMARK   18  A    between atoms: C_43  and  O_44
REMARK                            x       y       z     vdW  Elec       q    Type
REMARK                         _______ _______ _______ _____ _____    ______ ____
ROOT
ATOM      1  C   UNL     1       5.457   0.432  25.810  0.00  0.00    +0.214 A 
ATOM      2  C   UNL     1       4.736   0.464  27.127  0.00  0.00    +0.238 A 
ATOM      3  O   UNL     1       4.107  -0.495  27.550  0.00  0.00    -0.283 OA
ATOM      4  C   UNL     1       4.821   1.659  27.950  0.00  0.00    +0.109 A 
ATOM      5  C   UNL     1       5.710   2.640  27.546  0.00  0.00    +0.147 A 
ATOM      6  C   UNL     1       5.833   3.818  28.286  0.00  0.00    +0.092 A 
ATOM      7  C   UNL     1       5.066   3.980  29.440  0.00  0.00    +0.124 A 
ATOM      8  C   UNL     1       4.191   2.996  29.867  0.00  0.00    +0.091 A 
ATOM      9  O   UNL     1       6.522   2.498  26.457  0.00  0.00    -0.451 OA
ATOM     10  C   UNL     1       4.064   1.832  29.120  0.00  0.00    +0.135 A 
ATOM     11  C   UNL     1       6.402   1.389  25.607  0.00  0.00    +0.181 A 
ENDROOT
BRANCH  11  12
ATOM     12  C   UNL     1       7.504   1.411  24.565  0.00  0.00    +0.025 A 
ATOM     13  C   UNL     1       7.146   1.662  23.211  0.00  0.00    +0.015 A 
ATOM     14  C   UNL     1       8.088   1.966  22.220  0.00  0.00    +0.050 A 
ATOM     15  C   UNL     1       9.424   1.997  22.558  0.00  0.00    +0.158 A 
ATOM     16  C   UNL     1       9.823   1.632  23.838  0.00  0.00    +0.159 A 
ATOM     17  C   UNL     1       8.883   1.340  24.839  0.00  0.00    +0.060 A 
BRANCH  15  18
ATOM     18  O   UNL     1      10.336   2.408  21.630  0.00  0.00    -0.503 OA
ATOM     19  H   UNL     1       9.804   2.840  20.933  0.00  0.00    +0.292 HD
ENDBRANCH  15  18
BRANCH  16  20
ATOM     20  O   UNL     1      11.172   1.601  24.078  0.00  0.00    -0.503 OA
ATOM     21  H   UNL     1      11.519   0.773  23.706  0.00  0.00    +0.292 HD
ENDBRANCH  16  20
ENDBRANCH  11  12
BRANCH   7  22
ATOM     22  O   UNL     1       5.140   5.108  30.201  0.00  0.00    -0.507 OA
ATOM     23  H   UNL     1       6.016   5.157  30.616  0.00  0.00    +0.292 HD
ENDBRANCH   7  22
BRANCH  10  24
ATOM     24  O   UNL     1       3.184   0.880  29.548  0.00  0.00    -0.506 OA
ATOM     25  H   UNL     1       2.596   1.248  30.226  0.00  0.00    +0.292 HD
ENDBRANCH  10  24
BRANCH   1  26
ATOM     26  O   UNL     1       5.200  -0.624  24.941  0.00  0.00    -0.452 OA
BRANCH  26  30
ATOM     27  C   UNL     1       7.526  -4.164  24.196  0.00  0.00    +0.252 C 
ATOM     28  C   UNL     1       6.300  -4.329  25.123  0.00  0.00    +0.266 C 
ATOM     29  C   UNL     1       5.314  -3.155  24.936  0.00  0.00    +0.289 C 
ATOM     30  C   UNL     1       6.061  -1.795  25.079  0.00  0.00    +0.353 C 
ATOM     31  O   UNL     1       7.238  -1.702  24.264  0.00  0.00    -0.329 OA
ATOM     32  C   UNL     1       8.169  -2.784  24.451  0.00  0.00    +0.192 C 
BRANCH  27  33
ATOM     33  O   UNL     1       7.095  -4.252  22.821  0.00  0.00    -0.455 OA
BRANCH  33  35
ATOM     34  C   UNL     1       6.054  -5.750  21.345  0.00  0.00    +0.136 C 
ATOM     35  C   UNL     1       7.221  -5.475  22.239  0.00  0.00    +0.304 C 
ATOM     36  O   UNL     1       8.124  -6.268  22.469  0.00  0.00    -0.251 OA
ENDBRANCH  33  35
ENDBRANCH  27  33
BRANCH  28  37
ATOM     37  O   UNL     1       6.754  -4.390  26.493  0.00  0.00    -0.454 OA
BRANCH  37  38
ATOM     38  C   UNL     1       6.596  -5.588  27.124  0.00  0.00    +0.304 C 
ATOM     39  C   UNL     1       5.492  -6.375  26.489  0.00  0.00    +0.136 C 
ATOM     40  O   UNL     1       7.236  -5.982  28.088  0.00  0.00    -0.251 OA
ENDBRANCH  37  38
ENDBRANCH  28  37
BRANCH  29  41
ATOM     41  O   UNL     1       4.224  -3.262  25.882  0.00  0.00    -0.451 OA
BRANCH  41  42
ATOM     42  C   UNL     1       2.982  -3.333  25.319  0.00  0.00    +0.305 C 
ATOM     43  C   UNL     1       2.896  -4.477  24.360  0.00  0.00    +0.136 C 
ATOM     44  O   UNL     1       2.038  -2.592  25.538  0.00  0.00    -0.251 OA
ENDBRANCH  41  42
ENDBRANCH  29  41
BRANCH  32  45
ATOM     45  C   UNL     1       9.350  -2.497  23.514  0.00  0.00    +0.191 C 
BRANCH  45  46
ATOM     46  O   UNL     1       8.848  -2.003  22.268  0.00  0.00    -0.392 OA
ATOM     47  H   UNL     1       8.995  -2.732  21.631  0.00  0.00    +0.210 HD
ENDBRANCH  45  46
ENDBRANCH  32  45
ENDBRANCH  26  30
ENDBRANCH   1  26
TORSDOF 15
ENDMDL
MODEL 9
REMARK VINA RESULT:      -6.5      2.142      4.907
REMARK  Name = 
REMARK  18 active torsions:
REMARK  status: ('A' for Active; 'I' for Inactive)
REMARK    1  A    between atoms: C_1  and  C_2
REMARK    2  A    between atoms: C_2  and  O_4
REMARK    3  A    between atoms: O_4  and  C_5
REMARK    4  A    between atoms: C_7  and  C_43
REMARK    5  A    between atoms: C_9  and  O_21
REMARK    6  A    between atoms: C_11  and  O_17
REMARK    7  A    between atoms: C_12  and  O_13
REMARK    8  A    between atoms: O_13  and  C_14
REMARK    9  A    between atoms: C_14  and  C_16
REMARK   10  A    between atoms: O_17  and  C_18
REMARK   11  A    between atoms: C_18  and  C_20
REMARK   12  A    between atoms: O_21  and  C_22
REMARK   13  A    between atoms: C_23  and  C_35
REMARK   14  A    between atoms: C_27  and  O_34
REMARK   15  A    between atoms: C_29  and  O_33
REMARK   16  A    between atoms: C_37  and  O_42
REMARK   17  A    between atoms: C_38  and  O_41
REMARK   18  A    between atoms: C_43  and  O_44
REMARK                            x       y       z     vdW  Elec       q    Type
REMARK                         _______ _______ _______ _____ _____    ______ ____
ROOT
ATOM      1  C   UNL     1       6.401  -0.076  24.483  0.00  0.00    +0.214 A 
ATOM      2  C   UNL     1       7.191   0.126  23.221  0.00  0.00    +0.238 A 
ATOM      3  O   UNL     1       6.897  -0.428  22.172  0.00  0.00    -0.283 OA
ATOM      4  C   UNL     1       8.318   1.043  23.232  0.00  0.00    +0.109 A 
ATOM      5  C   UNL     1       8.492   1.814  24.369  0.00  0.00    +0.147 A 
ATOM      6  C   UNL     1       9.562   2.708  24.448  0.00  0.00    +0.092 A 
ATOM      7  C   UNL     1      10.433   2.826  23.365  0.00  0.00    +0.124 A 
ATOM      8  C   UNL     1      10.254   2.078  22.214  0.00  0.00    +0.091 A 
ATOM      9  O   UNL     1       7.631   1.773  25.428  0.00  0.00    -0.451 OA
ATOM     10  C   UNL     1       9.197   1.181  22.146  0.00  0.00    +0.135 A 
ATOM     11  C   UNL     1       6.583   0.842  25.471  0.00  0.00    +0.181 A 
ENDROOT
BRANCH  11  12
ATOM     12  C   UNL     1       5.705   1.102  26.681  0.00  0.00    +0.025 A 
ATOM     13  C   UNL     1       4.420   1.675  26.469  0.00  0.00    +0.015 A 
ATOM     14  C   UNL     1       3.433   1.713  27.462  0.00  0.00    +0.050 A 
ATOM     15  C   UNL     1       3.722   1.201  28.708  0.00  0.00    +0.158 A 
ATOM     16  C   UNL     1       5.005   0.749  28.991  0.00  0.00    +0.159 A 
ATOM     17  C   UNL     1       5.995   0.696  27.997  0.00  0.00    +0.060 A 
BRANCH  15  18
ATOM     18  O   UNL     1       2.730   1.125  29.642  0.00  0.00    -0.503 OA
ATOM     19  H   UNL     1       2.100   1.830  29.394  0.00  0.00    +0.292 HD
ENDBRANCH  15  18
BRANCH  16  20
ATOM     20  O   UNL     1       5.244   0.336  30.275  0.00  0.00    -0.503 OA
ATOM     21  H   UNL     1       4.432  -0.085  30.606  0.00  0.00    +0.292 HD
ENDBRANCH  16  20
ENDBRANCH  11  12
BRANCH   7  22
ATOM     22  O   UNL     1      11.496   3.678  23.386  0.00  0.00    -0.507 OA
ATOM     23  H   UNL     1      12.170   3.333  23.994  0.00  0.00    +0.292 HD
ENDBRANCH   7  22
BRANCH  10  24
ATOM     24  O   UNL     1       9.047   0.442  21.008  0.00  0.00    -0.506 OA
ATOM     25  H   UNL     1       9.906   0.309  20.579  0.00  0.00    +0.292 HD
ENDBRANCH  10  24
BRANCH   1  26
ATOM     26  O   UNL     1       5.465  -1.104  24.520  0.00  0.00    -0.452 OA
BRANCH  26  30
ATOM     27  C   UNL     1       7.276  -4.999  24.300  0.00  0.00    +0.252 C 
ATOM     28  C   UNL     1       5.763  -4.961  24.612  0.00  0.00    +0.266 C 
ATOM     29  C   UNL     1       5.156  -3.599  24.206  0.00  0.00    +0.289 C 
ATOM     30  C   UNL     1       5.981  -2.434  24.831  0.00  0.00    +0.353 C 
ATOM     31  O   UNL     1       7.391  -2.539  24.590  0.00  0.00    -0.329 OA
ATOM     32  C   UNL     1       7.963  -3.799  24.986  0.00  0.00    +0.192 C 
BRANCH  27  33
ATOM     33  O   UNL     1       7.466  -4.915  22.871  0.00  0.00    -0.455 OA
BRANCH  33  35
ATOM     34  C   UNL     1       6.183  -5.415  20.971  0.00  0.00    +0.136 C 
ATOM     35  C   UNL     1       6.947  -5.941  22.145  0.00  0.00    +0.304 C 
ATOM     36  O   UNL     1       7.033  -7.124  22.447  0.00  0.00    -0.251 OA
ENDBRANCH  33  35
ENDBRANCH  27  33
BRANCH  28  37
ATOM     37  O   UNL     1       5.570  -5.194  26.025  0.00  0.00    -0.454 OA
BRANCH  37  38
ATOM     38  C   UNL     1       5.257  -6.471  26.384  0.00  0.00    +0.304 C 
ATOM     39  C   UNL     1       4.453  -7.137  25.311  0.00  0.00    +0.136 C 
ATOM     40  O   UNL     1       5.558  -7.016  27.436  0.00  0.00    -0.251 OA
ENDBRANCH  37  38
ENDBRANCH  28  37
BRANCH  29  41
ATOM     41  O   UNL     1       3.765  -3.534  24.600  0.00  0.00    -0.451 OA
BRANCH  41  42
ATOM     42  C   UNL     1       2.941  -4.392  23.930  0.00  0.00    +0.305 C 
ATOM     43  C   UNL     1       1.666  -4.603  24.682  0.00  0.00    +0.136 C 
ATOM     44  O   UNL     1       3.167  -4.936  22.861  0.00  0.00    -0.251 OA
ENDBRANCH  41  42
ENDBRANCH  29  41
BRANCH  32  45
ATOM     45  C   UNL     1       9.460  -3.708  24.664  0.00  0.00    +0.191 C 
BRANCH  45  46
ATOM     46  O   UNL     1      10.028  -5.022  24.706  0.00  0.00    -0.392 OA
ATOM     47  H   UNL     1       9.344  -5.604  24.317  0.00  0.00    +0.210 HD
ENDBRANCH  45  46
ENDBRANCH  32  45
ENDBRANCH  26  30
ENDBRANCH   1  26
TORSDOF 15
ENDMDL
