MODEL 1
REMARK VINA RESULT:      -7.5      0.000      0.000
REMARK  Name = 
REMARK  14 active torsions:
REMARK  status: ('A' for Active; 'I' for Inactive)
REMARK    1  A    between atoms: C_4  and  O_43
REMARK    2  A    between atoms: C_6  and  C_7
REMARK    3  A    between atoms: C_8  and  O_20
REMARK    4  A    between atoms: C_12  and  O_19
REMARK    5  A    between atoms: C_14  and  O_18
REMARK    6  A    between atoms: O_20  and  C_21
REMARK    7  A    between atoms: C_23  and  O_42
REMARK    8  A    between atoms: C_25  and  O_41
REMARK    9  A    between atoms: C_27  and  O_40
REMARK   10  A    between atoms: C_29  and  C_32
REMARK   11  A    between atoms: C_32  and  O_33
REMARK   12  A    between atoms: O_33  and  C_34
REMARK   13  A    between atoms: C_34  and  C_36
REMARK   14  A    between atoms: C_36  and  C_37
REMARK                            x       y       z     vdW  Elec       q    Type
REMARK                         _______ _______ _______ _____ _____    ______ ____
ROOT
ATOM      1  C   UNL     1       5.705  -2.085  24.823  0.00  0.00    +0.181 A 
ATOM      2  O   UNL     1       4.958  -3.133  25.373  0.00  0.00    -0.451 OA
ATOM      3  C   UNL     1       4.893  -4.332  24.727  0.00  0.00    +0.147 A 
ATOM      4  C   UNL     1       5.323  -4.491  23.425  0.00  0.00    +0.109 A 
ATOM      5  C   UNL     1       5.200  -5.725  22.768  0.00  0.00    +0.135 A 
ATOM      6  C   UNL     1       4.674  -6.814  23.440  0.00  0.00    +0.091 A 
ATOM      7  C   UNL     1       4.264  -6.653  24.759  0.00  0.00    +0.124 A 
ATOM      8  C   UNL     1       5.929  -3.356  22.764  0.00  0.00    +0.238 A 
ATOM      9  O   UNL     1       6.220  -3.515  21.578  0.00  0.00    -0.283 OA
ATOM     10  C   UNL     1       4.367  -5.424  25.410  0.00  0.00    +0.092 A 
ATOM     11  C   UNL     1       6.214  -2.113  23.563  0.00  0.00    +0.214 A 
ENDROOT
BRANCH   1  13
ATOM     12  C   UNL     1       5.188   0.143  25.885  0.00  0.00    +0.011 A 
ATOM     13  C   UNL     1       5.928  -1.043  25.873  0.00  0.00    +0.024 A 
ATOM     14  C   UNL     1       7.066  -1.097  26.687  0.00  0.00    +0.056 A 
ATOM     15  C   UNL     1       7.484   0.047  27.382  0.00  0.00    +0.110 A 
ATOM     16  C   UNL     1       6.821   1.292  27.347  0.00  0.00    -0.066 A 
ATOM     17  O   UNL     1       7.292   2.332  27.938  0.00  0.00    -0.871 OA
ATOM     18  C   UNL     1       5.637   1.275  26.604  0.00  0.00    -0.004 A 
BRANCH  15  19
ATOM     19  O   UNL     1       8.654   0.011  28.109  0.00  0.00    -0.507 OA
ATOM     20  H   UNL     1       9.091   0.803  27.702  0.00  0.00    +0.292 HD
ENDBRANCH  15  19
ENDBRANCH   1  13
BRANCH   5  21
ATOM     21  O   UNL     1       5.585  -5.929  21.469  0.00  0.00    -0.506 OA
ATOM     22  H   UNL     1       6.523  -5.637  21.389  0.00  0.00    +0.292 HD
ENDBRANCH   5  21
BRANCH   7  23
ATOM     23  O   UNL     1       3.739  -7.704  25.451  0.00  0.00    -0.507 OA
ATOM     24  H   UNL     1       4.331  -8.466  25.334  0.00  0.00    +0.292 HD
ENDBRANCH   7  23
BRANCH  11  25
ATOM     25  O   UNL     1       6.973  -1.075  23.025  0.00  0.00    -0.453 OA
BRANCH  25  26
ATOM     26  C   UNL     1       8.419  -1.188  23.067  0.00  0.00    +0.340 C 
ATOM     27  O   UNL     1       8.895  -0.231  24.011  0.00  0.00    -0.330 OA
ATOM     28  C   UNL     1       9.906   0.742  23.683  0.00  0.00    +0.191 C 
ATOM     29  C   UNL     1      10.114   1.090  22.181  0.00  0.00    +0.178 C 
ATOM     30  C   UNL     1       9.072   0.444  21.296  0.00  0.00    +0.180 C 
ATOM     31  C   UNL     1       9.007  -1.026  21.648  0.00  0.00    +0.214 C 
BRANCH  29  32
ATOM     32  O   UNL     1      10.163   2.470  21.840  0.00  0.00    -0.386 OA
ATOM     33  H   UNL     1       9.536   2.603  21.097  0.00  0.00    +0.210 HD
ENDBRANCH  29  32
BRANCH  30  34
ATOM     34  O   UNL     1       7.805   1.107  21.427  0.00  0.00    -0.386 OA
ATOM     35  H   UNL     1       7.867   2.023  21.086  0.00  0.00    +0.210 HD
ENDBRANCH  30  34
BRANCH  31  36
ATOM     36  O   UNL     1      10.311  -1.631  21.563  0.00  0.00    -0.383 OA
ATOM     37  H   UNL     1      10.351  -2.048  20.681  0.00  0.00    +0.210 HD
ENDBRANCH  31  36
BRANCH  28  38
ATOM     38  C   UNL     1       9.567   1.933  24.587  0.00  0.00    +0.266 C 
BRANCH  38  39
ATOM     39  O   UNL     1       8.234   2.389  24.381  0.00  0.00    -0.462 OA
BRANCH  39  40
ATOM     40  C   UNL     1       8.121   3.638  23.835  0.00  0.00    +0.313 C 
ATOM     41  O   UNL     1       7.658   3.874  22.722  0.00  0.00    -0.250 OA
BRANCH  40  42
ATOM     42  C   UNL     1       8.827   4.643  24.671  0.00  0.00    +0.172 C 
BRANCH  42  43
ATOM     43  C   UNL     1       9.732   5.514  23.844  0.00  0.00    +0.052 C 
ATOM     44  O   UNL     1      10.858   4.992  23.584  0.00  0.00    -0.549 OA
ATOM     45  O   UNL     1       9.319   6.667  23.545  0.00  0.00    -0.549 OA
ENDBRANCH  42  43
ENDBRANCH  40  42
ENDBRANCH  39  40
ENDBRANCH  38  39
ENDBRANCH  28  38
ENDBRANCH  25  26
ENDBRANCH  11  25
TORSDOF 14
ENDMDL
MODEL 2
REMARK VINA RESULT:      -7.0      2.159      8.036
REMARK  Name = 
REMARK  14 active torsions:
REMARK  status: ('A' for Active; 'I' for Inactive)
REMARK    1  A    between atoms: C_4  and  O_43
REMARK    2  A    between atoms: C_6  and  C_7
REMARK    3  A    between atoms: C_8  and  O_20
REMARK    4  A    between atoms: C_12  and  O_19
REMARK    5  A    between atoms: C_14  and  O_18
REMARK    6  A    between atoms: O_20  and  C_21
REMARK    7  A    between atoms: C_23  and  O_42
REMARK    8  A    between atoms: C_25  and  O_41
REMARK    9  A    between atoms: C_27  and  O_40
REMARK   10  A    between atoms: C_29  and  C_32
REMARK   11  A    between atoms: C_32  and  O_33
REMARK   12  A    between atoms: O_33  and  C_34
REMARK   13  A    between atoms: C_34  and  C_36
REMARK   14  A    between atoms: C_36  and  C_37
REMARK                            x       y       z     vdW  Elec       q    Type
REMARK                         _______ _______ _______ _____ _____    ______ ____
ROOT
ATOM      1  C   UNL     1       8.572  -2.036  24.634  0.00  0.00    +0.181 A 
ATOM      2  O   UNL     1       8.887  -0.789  25.187  0.00  0.00    -0.451 OA
ATOM      3  C   UNL     1       8.884   0.323  24.398  0.00  0.00    +0.147 A 
ATOM      4  C   UNL     1       8.831   0.249  23.021  0.00  0.00    +0.109 A 
ATOM      5  C   UNL     1       8.878   1.407  22.231  0.00  0.00    +0.135 A 
ATOM      6  C   UNL     1       8.943   2.650  22.834  0.00  0.00    +0.091 A 
ATOM      7  C   UNL     1       8.973   2.720  24.223  0.00  0.00    +0.124 A 
ATOM      8  C   UNL     1       8.698  -1.058  22.413  0.00  0.00    +0.238 A 
ATOM      9  O   UNL     1       8.742  -1.088  21.183  0.00  0.00    -0.283 OA
ATOM     10  C   UNL     1       8.945   1.570  25.012  0.00  0.00    +0.092 A 
ATOM     11  C   UNL     1       8.461  -2.253  23.298  0.00  0.00    +0.214 A 
ENDROOT
BRANCH   1  13
ATOM     12  C   UNL     1       9.017  -4.173  25.898  0.00  0.00    +0.011 A 
ATOM     13  C   UNL     1       8.276  -2.998  25.742  0.00  0.00    +0.024 A 
ATOM     14  C   UNL     1       7.080  -2.893  26.463  0.00  0.00    +0.056 A 
ATOM     15  C   UNL     1       6.617  -3.985  27.211  0.00  0.00    +0.110 A 
ATOM     16  C   UNL     1       7.285  -5.223  27.319  0.00  0.00    -0.066 A 
ATOM     17  O   UNL     1       6.776  -6.219  27.951  0.00  0.00    -0.871 OA
ATOM     18  C   UNL     1       8.521  -5.251  26.666  0.00  0.00    -0.004 A 
BRANCH  15  19
ATOM     19  O   UNL     1       5.397  -3.905  27.845  0.00  0.00    -0.507 OA
ATOM     20  H   UNL     1       5.665  -4.314  28.708  0.00  0.00    +0.292 HD
ENDBRANCH  15  19
ENDBRANCH   1  13
BRANCH   5  21
ATOM     21  O   UNL     1       8.857   1.387  20.861  0.00  0.00    -0.506 OA
ATOM     22  H   UNL     1       7.968   1.700  20.574  0.00  0.00    +0.292 HD
ENDBRANCH   5  21
BRANCH   7  23
ATOM     23  O   UNL     1       9.038   3.928  24.852  0.00  0.00    -0.507 OA
ATOM     24  H   UNL     1       9.420   3.787  25.734  0.00  0.00    +0.292 HD
ENDBRANCH   7  23
BRANCH  11  25
ATOM     25  O   UNL     1       8.129  -3.491  22.752  0.00  0.00    -0.453 OA
BRANCH  25  26
ATOM     26  C   UNL     1       6.911  -3.594  21.971  0.00  0.00    +0.340 C 
ATOM     27  O   UNL     1       5.821  -3.278  22.834  0.00  0.00    -0.330 OA
ATOM     28  C   UNL     1       4.689  -4.153  23.002  0.00  0.00    +0.191 C 
ATOM     29  C   UNL     1       4.878  -5.657  22.650  0.00  0.00    +0.178 C 
ATOM     30  C   UNL     1       6.319  -5.991  22.332  0.00  0.00    +0.180 C 
ATOM     31  C   UNL     1       6.816  -4.989  21.313  0.00  0.00    +0.214 C 
BRANCH  29  32
ATOM     32  O   UNL     1       4.426  -6.606  23.608  0.00  0.00    -0.386 OA
ATOM     33  H   UNL     1       3.653  -6.207  24.063  0.00  0.00    +0.210 HD
ENDBRANCH  29  32
BRANCH  30  34
ATOM     34  O   UNL     1       7.115  -6.017  23.527  0.00  0.00    -0.386 OA
ATOM     35  H   UNL     1       7.581  -5.164  23.640  0.00  0.00    +0.210 HD
ENDBRANCH  30  34
BRANCH  31  36
ATOM     36  O   UNL     1       5.949  -4.955  20.164  0.00  0.00    -0.383 OA
ATOM     37  H   UNL     1       5.096  -5.321  20.467  0.00  0.00    +0.210 HD
ENDBRANCH  31  36
BRANCH  28  38
ATOM     38  C   UNL     1       4.227  -3.874  24.437  0.00  0.00    +0.266 C 
BRANCH  38  39
ATOM     39  O   UNL     1       2.890  -4.310  24.655  0.00  0.00    -0.462 OA
BRANCH  39  40
ATOM     40  C   UNL     1       2.508  -4.393  25.966  0.00  0.00    +0.313 C 
ATOM     41  O   UNL     1       2.590  -3.473  26.776  0.00  0.00    -0.250 OA
BRANCH  40  42
ATOM     42  C   UNL     1       2.185  -5.796  26.332  0.00  0.00    +0.172 C 
BRANCH  42  43
ATOM     43  C   UNL     1       3.351  -6.478  26.991  0.00  0.00    +0.052 C 
ATOM     44  O   UNL     1       3.432  -6.275  28.240  0.00  0.00    -0.549 OA
ATOM     45  O   UNL     1       4.145  -7.121  26.252  0.00  0.00    -0.549 OA
ENDBRANCH  42  43
ENDBRANCH  40  42
ENDBRANCH  39  40
ENDBRANCH  38  39
ENDBRANCH  28  38
ENDBRANCH  25  26
ENDBRANCH  11  25
TORSDOF 14
ENDMDL
MODEL 3
REMARK VINA RESULT:      -6.8      1.674      4.576
REMARK  Name = 
REMARK  14 active torsions:
REMARK  status: ('A' for Active; 'I' for Inactive)
REMARK    1  A    between atoms: C_4  and  O_43
REMARK    2  A    between atoms: C_6  and  C_7
REMARK    3  A    between atoms: C_8  and  O_20
REMARK    4  A    between atoms: C_12  and  O_19
REMARK    5  A    between atoms: C_14  and  O_18
REMARK    6  A    between atoms: O_20  and  C_21
REMARK    7  A    between atoms: C_23  and  O_42
REMARK    8  A    between atoms: C_25  and  O_41
REMARK    9  A    between atoms: C_27  and  O_40
REMARK   10  A    between atoms: C_29  and  C_32
REMARK   11  A    between atoms: C_32  and  O_33
REMARK   12  A    between atoms: O_33  and  C_34
REMARK   13  A    between atoms: C_34  and  C_36
REMARK   14  A    between atoms: C_36  and  C_37
REMARK                            x       y       z     vdW  Elec       q    Type
REMARK                         _______ _______ _______ _____ _____    ______ ____
ROOT
ATOM      1  C   UNL     1       8.160  -1.874  24.064  0.00  0.00    +0.181 A 
ATOM      2  O   UNL     1       8.156  -2.869  23.079  0.00  0.00    -0.451 OA
ATOM      3  C   UNL     1       7.165  -3.806  23.066  0.00  0.00    +0.147 A 
ATOM      4  C   UNL     1       6.298  -3.976  24.126  0.00  0.00    +0.109 A 
ATOM      5  C   UNL     1       5.317  -4.978  24.106  0.00  0.00    +0.135 A 
ATOM      6  C   UNL     1       5.186  -5.792  22.994  0.00  0.00    +0.091 A 
ATOM      7  C   UNL     1       6.048  -5.601  21.919  0.00  0.00    +0.124 A 
ATOM      8  C   UNL     1       6.411  -3.072  25.251  0.00  0.00    +0.238 A 
ATOM      9  O   UNL     1       5.678  -3.311  26.210  0.00  0.00    -0.283 OA
ATOM     10  C   UNL     1       7.036  -4.617  21.943  0.00  0.00    +0.092 A 
ATOM     11  C   UNL     1       7.345  -1.896  25.151  0.00  0.00    +0.214 A 
ENDROOT
BRANCH   1  13
ATOM     12  C   UNL     1      10.145  -0.372  24.473  0.00  0.00    +0.011 A 
ATOM     13  C   UNL     1       9.094  -0.782  23.647  0.00  0.00    +0.024 A 
ATOM     14  C   UNL     1       8.770   0.045  22.564  0.00  0.00    +0.056 A 
ATOM     15  C   UNL     1       9.415   1.281  22.411  0.00  0.00    +0.110 A 
ATOM     16  C   UNL     1      10.413   1.776  23.276  0.00  0.00    -0.066 A 
ATOM     17  O   UNL     1      10.913   2.952  23.137  0.00  0.00    -0.871 OA
ATOM     18  C   UNL     1      10.776   0.879  24.284  0.00  0.00    -0.004 A 
BRANCH  15  19
ATOM     19  O   UNL     1       9.028   2.127  21.395  0.00  0.00    -0.507 OA
ATOM     20  H   UNL     1       8.177   1.674  21.158  0.00  0.00    +0.292 HD
ENDBRANCH  15  19
ENDBRANCH   1  13
BRANCH   5  21
ATOM     21  O   UNL     1       4.451  -5.207  25.142  0.00  0.00    -0.506 OA
ATOM     22  H   UNL     1       3.751  -4.515  25.102  0.00  0.00    +0.292 HD
ENDBRANCH   5  21
BRANCH   7  23
ATOM     23  O   UNL     1       5.949  -6.385  20.808  0.00  0.00    -0.507 OA
ATOM     24  H   UNL     1       6.842  -6.691  20.577  0.00  0.00    +0.292 HD
ENDBRANCH   7  23
BRANCH  11  25
ATOM     25  O   UNL     1       7.339  -0.894  26.119  0.00  0.00    -0.453 OA
BRANCH  25  26
ATOM     26  C   UNL     1       6.306   0.122  26.051  0.00  0.00    +0.340 C 
ATOM     27  O   UNL     1       6.878   1.274  25.435  0.00  0.00    -0.330 OA
ATOM     28  C   UNL     1       6.827   2.580  26.041  0.00  0.00    +0.191 C 
ATOM     29  C   UNL     1       6.607   2.656  27.579  0.00  0.00    +0.178 C 
ATOM     30  C   UNL     1       6.647   1.290  28.229  0.00  0.00    +0.180 C 
ATOM     31  C   UNL     1       5.718   0.379  27.456  0.00  0.00    +0.214 C 
BRANCH  29  32
ATOM     32  O   UNL     1       7.485   3.500  28.315  0.00  0.00    -0.386 OA
ATOM     33  H   UNL     1       7.658   4.289  27.758  0.00  0.00    +0.210 HD
ENDBRANCH  29  32
BRANCH  30  34
ATOM     34  O   UNL     1       7.992   0.792  28.296  0.00  0.00    -0.386 OA
ATOM     35  H   UNL     1       7.986  -0.181  28.397  0.00  0.00    +0.210 HD
ENDBRANCH  30  34
BRANCH  31  36
ATOM     36  O   UNL     1       4.400   0.952  27.363  0.00  0.00    -0.383 OA
ATOM     37  H   UNL     1       3.997   0.827  28.244  0.00  0.00    +0.210 HD
ENDBRANCH  31  36
BRANCH  28  38
ATOM     38  C   UNL     1       8.101   3.264  25.531  0.00  0.00    +0.266 C 
BRANCH  38  39
ATOM     39  O   UNL     1       8.084   4.665  25.781  0.00  0.00    -0.462 OA
BRANCH  39  40
ATOM     40  C   UNL     1       7.522   5.429  24.795  0.00  0.00    +0.313 C 
ATOM     41  O   UNL     1       6.420   5.966  24.871  0.00  0.00    -0.250 OA
BRANCH  40  42
ATOM     42  C   UNL     1       8.321   5.344  23.545  0.00  0.00    +0.172 C 
BRANCH  42  43
ATOM     43  C   UNL     1       7.441   5.207  22.335  0.00  0.00    +0.052 C 
ATOM     44  O   UNL     1       6.991   4.036  22.150  0.00  0.00    -0.549 OA
ATOM     45  O   UNL     1       7.285   6.226  21.607  0.00  0.00    -0.549 OA
ENDBRANCH  42  43
ENDBRANCH  40  42
ENDBRANCH  39  40
ENDBRANCH  38  39
ENDBRANCH  28  38
ENDBRANCH  25  26
ENDBRANCH  11  25
TORSDOF 14
ENDMDL
MODEL 4
REMARK VINA RESULT:      -6.7      2.116      8.717
REMARK  Name = 
REMARK  14 active torsions:
REMARK  status: ('A' for Active; 'I' for Inactive)
REMARK    1  A    between atoms: C_4  and  O_43
REMARK    2  A    between atoms: C_6  and  C_7
REMARK    3  A    between atoms: C_8  and  O_20
REMARK    4  A    between atoms: C_12  and  O_19
REMARK    5  A    between atoms: C_14  and  O_18
REMARK    6  A    between atoms: O_20  and  C_21
REMARK    7  A    between atoms: C_23  and  O_42
REMARK    8  A    between atoms: C_25  and  O_41
REMARK    9  A    between atoms: C_27  and  O_40
REMARK   10  A    between atoms: C_29  and  C_32
REMARK   11  A    between atoms: C_32  and  O_33
REMARK   12  A    between atoms: O_33  and  C_34
REMARK   13  A    between atoms: C_34  and  C_36
REMARK   14  A    between atoms: C_36  and  C_37
REMARK                            x       y       z     vdW  Elec       q    Type
REMARK                         _______ _______ _______ _____ _____    ______ ____
ROOT
ATOM      1  C   UNL     1       6.846  -0.637  23.842  0.00  0.00    +0.181 A 
ATOM      2  O   UNL     1       7.950  -0.051  23.213  0.00  0.00    -0.451 OA
ATOM      3  C   UNL     1       8.324   1.218  23.542  0.00  0.00    +0.147 A 
ATOM      4  C   UNL     1       7.516   2.053  24.288  0.00  0.00    +0.109 A 
ATOM      5  C   UNL     1       7.904   3.371  24.573  0.00  0.00    +0.135 A 
ATOM      6  C   UNL     1       9.130   3.838  24.134  0.00  0.00    +0.091 A 
ATOM      7  C   UNL     1       9.950   2.984  23.402  0.00  0.00    +0.124 A 
ATOM      8  C   UNL     1       6.268   1.523  24.792  0.00  0.00    +0.238 A 
ATOM      9  O   UNL     1       5.539   2.324  25.377  0.00  0.00    -0.283 OA
ATOM     10  C   UNL     1       9.560   1.680  23.101  0.00  0.00    +0.092 A 
ATOM     11  C   UNL     1       5.979   0.055  24.626  0.00  0.00    +0.214 A 
ENDROOT
BRANCH   1  13
ATOM     12  C   UNL     1       7.914  -2.909  24.093  0.00  0.00    +0.011 A 
ATOM     13  C   UNL     1       6.875  -2.114  23.599  0.00  0.00    +0.024 A 
ATOM     14  C   UNL     1       6.031  -2.685  22.639  0.00  0.00    +0.056 A 
ATOM     15  C   UNL     1       6.314  -3.962  22.131  0.00  0.00    +0.110 A 
ATOM     16  C   UNL     1       7.406  -4.760  22.532  0.00  0.00    -0.066 A 
ATOM     17  O   UNL     1       7.665  -5.888  21.975  0.00  0.00    -0.871 OA
ATOM     18  C   UNL     1       8.164  -4.194  23.561  0.00  0.00    -0.004 A 
BRANCH  15  19
ATOM     19  O   UNL     1       5.530  -4.479  21.123  0.00  0.00    -0.507 OA
ATOM     20  H   UNL     1       4.691  -4.582  21.642  0.00  0.00    +0.292 HD
ENDBRANCH  15  19
ENDBRANCH   1  13
BRANCH   5  21
ATOM     21  O   UNL     1       7.129   4.249  25.284  0.00  0.00    -0.506 OA
ATOM     22  H   UNL     1       6.821   3.782  26.095  0.00  0.00    +0.292 HD
ENDBRANCH   5  21
BRANCH   7  23
ATOM     23  O   UNL     1      11.164   3.412  22.952  0.00  0.00    -0.507 OA
ATOM     24  H   UNL     1      11.010   4.072  22.256  0.00  0.00    +0.292 HD
ENDBRANCH   7  23
BRANCH  11  25
ATOM     25  O   UNL     1       4.891  -0.536  25.266  0.00  0.00    -0.453 OA
BRANCH  25  26
ATOM     26  C   UNL     1       4.980  -0.774  26.694  0.00  0.00    +0.340 C 
ATOM     27  O   UNL     1       5.792  -1.931  26.886  0.00  0.00    -0.330 OA
ATOM     28  C   UNL     1       5.354  -3.063  27.661  0.00  0.00    +0.191 C 
ATOM     29  C   UNL     1       3.824  -3.252  27.864  0.00  0.00    +0.178 C 
ATOM     30  C   UNL     1       3.014  -2.269  27.048  0.00  0.00    +0.180 C 
ATOM     31  C   UNL     1       3.566  -0.884  27.305  0.00  0.00    +0.214 C 
BRANCH  29  32
ATOM     32  O   UNL     1       3.295  -4.549  27.611  0.00  0.00    -0.386 OA
ATOM     33  H   UNL     1       3.751  -4.894  26.814  0.00  0.00    +0.210 HD
ENDBRANCH  29  32
BRANCH  30  34
ATOM     34  O   UNL     1       3.024  -2.627  25.657  0.00  0.00    -0.386 OA
ATOM     35  H   UNL     1       3.614  -2.024  25.159  0.00  0.00    +0.210 HD
ENDBRANCH  30  34
BRANCH  31  36
ATOM     36  O   UNL     1       3.593  -0.599  28.716  0.00  0.00    -0.383 OA
ATOM     37  H   UNL     1       4.385  -0.045  28.857  0.00  0.00    +0.210 HD
ENDBRANCH  31  36
BRANCH  28  38
ATOM     38  C   UNL     1       6.076  -4.248  27.007  0.00  0.00    +0.266 C 
BRANCH  38  39
ATOM     39  O   UNL     1       5.444  -4.648  25.797  0.00  0.00    -0.462 OA
BRANCH  39  40
ATOM     40  C   UNL     1       5.146  -5.981  25.706  0.00  0.00    +0.313 C 
ATOM     41  O   UNL     1       5.405  -6.814  26.571  0.00  0.00    -0.250 OA
BRANCH  40  42
ATOM     42  C   UNL     1       4.669  -6.321  24.341  0.00  0.00    +0.172 C 
BRANCH  42  43
ATOM     43  C   UNL     1       3.364  -5.645  24.027  0.00  0.00    +0.052 C 
ATOM     44  O   UNL     1       2.547  -5.618  24.996  0.00  0.00    -0.549 OA
ATOM     45  O   UNL     1       3.188  -5.233  22.847  0.00  0.00    -0.549 OA
ENDBRANCH  42  43
ENDBRANCH  40  42
ENDBRANCH  39  40
ENDBRANCH  38  39
ENDBRANCH  28  38
ENDBRANCH  25  26
ENDBRANCH  11  25
TORSDOF 14
ENDMDL
MODEL 5
REMARK VINA RESULT:      -6.6      2.250      8.635
REMARK  Name = 
REMARK  14 active torsions:
REMARK  status: ('A' for Active; 'I' for Inactive)
REMARK    1  A    between atoms: C_4  and  O_43
REMARK    2  A    between atoms: C_6  and  C_7
REMARK    3  A    between atoms: C_8  and  O_20
REMARK    4  A    between atoms: C_12  and  O_19
REMARK    5  A    between atoms: C_14  and  O_18
REMARK    6  A    between atoms: O_20  and  C_21
REMARK    7  A    between atoms: C_23  and  O_42
REMARK    8  A    between atoms: C_25  and  O_41
REMARK    9  A    between atoms: C_27  and  O_40
REMARK   10  A    between atoms: C_29  and  C_32
REMARK   11  A    between atoms: C_32  and  O_33
REMARK   12  A    between atoms: O_33  and  C_34
REMARK   13  A    between atoms: C_34  and  C_36
REMARK   14  A    between atoms: C_36  and  C_37
REMARK                            x       y       z     vdW  Elec       q    Type
REMARK                         _______ _______ _______ _____ _____    ______ ____
ROOT
ATOM      1  C   UNL     1       8.828   2.138  23.727  0.00  0.00    +0.181 A 
ATOM      2  O   UNL     1      10.127   2.389  23.270  0.00  0.00    -0.451 OA
ATOM      3  C   UNL     1      10.696   3.611  23.479  0.00  0.00    +0.147 A 
ATOM      4  C   UNL     1       9.962   4.702  23.900  0.00  0.00    +0.109 A 
ATOM      5  C   UNL     1      10.563   5.959  24.062  0.00  0.00    +0.135 A 
ATOM      6  C   UNL     1      11.918   6.110  23.832  0.00  0.00    +0.091 A 
ATOM      7  C   UNL     1      12.657   5.002  23.430  0.00  0.00    +0.124 A 
ATOM      8  C   UNL     1       8.559   4.507  24.197  0.00  0.00    +0.238 A 
ATOM      9  O   UNL     1       7.923   5.521  24.485  0.00  0.00    -0.283 OA
ATOM     10  C   UNL     1      12.061   3.754  23.250  0.00  0.00    +0.092 A 
ATOM     11  C   UNL     1       8.000   3.109  24.194  0.00  0.00    +0.214 A 
ENDROOT
BRANCH   1  13
ATOM     12  C   UNL     1       9.649  -0.246  23.789  0.00  0.00    +0.011 A 
ATOM     13  C   UNL     1       8.587   0.661  23.720  0.00  0.00    +0.024 A 
ATOM     14  C   UNL     1       7.334   0.155  23.355  0.00  0.00    +0.056 A 
ATOM     15  C   UNL     1       7.207  -1.187  22.970  0.00  0.00    +0.110 A 
ATOM     16  C   UNL     1       8.270  -2.114  22.932  0.00  0.00    -0.066 A 
ATOM     17  O   UNL     1       8.115  -3.311  22.493  0.00  0.00    -0.871 OA
ATOM     18  C   UNL     1       9.482  -1.595  23.398  0.00  0.00    -0.004 A 
BRANCH  15  19
ATOM     19  O   UNL     1       5.989  -1.654  22.527  0.00  0.00    -0.507 OA
ATOM     20  H   UNL     1       5.616  -1.918  23.409  0.00  0.00    +0.292 HD
ENDBRANCH  15  19
ENDBRANCH   1  13
BRANCH   5  21
ATOM     21  O   UNL     1       9.875   7.079  24.450  0.00  0.00    -0.506 OA
ATOM     22  H   UNL     1      10.279   7.850  23.986  0.00  0.00    +0.292 HD
ENDBRANCH   5  21
BRANCH   7  23
ATOM     23  O   UNL     1      13.995   5.114  23.193  0.00  0.00    -0.507 OA
ATOM     24  H   UNL     1      14.452   4.443  23.727  0.00  0.00    +0.292 HD
ENDBRANCH   7  23
BRANCH  11  25
ATOM     25  O   UNL     1       6.715   2.852  24.666  0.00  0.00    -0.453 OA
BRANCH  25  26
ATOM     26  C   UNL     1       6.438   3.087  26.070  0.00  0.00    +0.340 C 
ATOM     27  O   UNL     1       7.116   2.076  26.815  0.00  0.00    -0.330 OA
ATOM     28  C   UNL     1       6.443   1.239  27.773  0.00  0.00    +0.191 C 
ATOM     29  C   UNL     1       4.901   1.080  27.639  0.00  0.00    +0.178 C 
ATOM     30  C   UNL     1       4.369   1.727  26.379  0.00  0.00    +0.180 C 
ATOM     31  C   UNL     1       4.914   3.137  26.312  0.00  0.00    +0.214 C 
BRANCH  29  32
ATOM     32  O   UNL     1       4.382  -0.244  27.686  0.00  0.00    -0.386 OA
ATOM     33  H   UNL     1       5.038  -0.824  27.243  0.00  0.00    +0.210 HD
ENDBRANCH  29  32
BRANCH  30  34
ATOM     34  O   UNL     1       4.701   0.943  25.221  0.00  0.00    -0.386 OA
ATOM     35  H   UNL     1       4.653  -0.011  25.436  0.00  0.00    +0.210 HD
ENDBRANCH  30  34
BRANCH  31  36
ATOM     36  O   UNL     1       4.610   3.859  27.520  0.00  0.00    -0.383 OA
ATOM     37  H   UNL     1       3.877   4.462  27.290  0.00  0.00    +0.210 HD
ENDBRANCH  31  36
BRANCH  28  38
ATOM     38  C   UNL     1       7.238  -0.071  27.731  0.00  0.00    +0.266 C 
BRANCH  38  39
ATOM     39  O   UNL     1       6.945  -0.829  26.563  0.00  0.00    -0.462 OA
BRANCH  39  40
ATOM     40  C   UNL     1       7.292  -2.151  26.621  0.00  0.00    +0.313 C 
ATOM     41  O   UNL     1       8.430  -2.582  26.450  0.00  0.00    -0.250 OA
BRANCH  40  42
ATOM     42  C   UNL     1       6.083  -3.009  26.703  0.00  0.00    +0.172 C 
BRANCH  42  43
ATOM     43  C   UNL     1       5.278  -2.953  25.434  0.00  0.00    +0.052 C 
ATOM     44  O   UNL     1       5.546  -3.877  24.609  0.00  0.00    -0.549 OA
ATOM     45  O   UNL     1       4.478  -1.988  25.292  0.00  0.00    -0.549 OA
ENDBRANCH  42  43
ENDBRANCH  40  42
ENDBRANCH  39  40
ENDBRANCH  38  39
ENDBRANCH  28  38
ENDBRANCH  25  26
ENDBRANCH  11  25
TORSDOF 14
ENDMDL
MODEL 6
REMARK VINA RESULT:      -6.6      2.291      5.158
REMARK  Name = 
REMARK  14 active torsions:
REMARK  status: ('A' for Active; 'I' for Inactive)
REMARK    1  A    between atoms: C_4  and  O_43
REMARK    2  A    between atoms: C_6  and  C_7
REMARK    3  A    between atoms: C_8  and  O_20
REMARK    4  A    between atoms: C_12  and  O_19
REMARK    5  A    between atoms: C_14  and  O_18
REMARK    6  A    between atoms: O_20  and  C_21
REMARK    7  A    between atoms: C_23  and  O_42
REMARK    8  A    between atoms: C_25  and  O_41
REMARK    9  A    between atoms: C_27  and  O_40
REMARK   10  A    between atoms: C_29  and  C_32
REMARK   11  A    between atoms: C_32  and  O_33
REMARK   12  A    between atoms: O_33  and  C_34
REMARK   13  A    between atoms: C_34  and  C_36
REMARK   14  A    between atoms: C_36  and  C_37
REMARK                            x       y       z     vdW  Elec       q    Type
REMARK                         _______ _______ _______ _____ _____    ______ ____
ROOT
ATOM      1  C   UNL     1       6.614  -1.005  26.931  0.00  0.00    +0.181 A 
ATOM      2  O   UNL     1       5.561  -1.852  27.295  0.00  0.00    -0.451 OA
ATOM      3  C   UNL     1       5.769  -3.197  27.377  0.00  0.00    +0.147 A 
ATOM      4  C   UNL     1       6.907  -3.798  26.876  0.00  0.00    +0.109 A 
ATOM      5  C   UNL     1       7.075  -5.189  26.931  0.00  0.00    +0.135 A 
ATOM      6  C   UNL     1       6.106  -5.977  27.528  0.00  0.00    +0.091 A 
ATOM      7  C   UNL     1       4.973  -5.364  28.052  0.00  0.00    +0.124 A 
ATOM      8  C   UNL     1       7.935  -2.949  26.315  0.00  0.00    +0.238 A 
ATOM      9  O   UNL     1       8.892  -3.529  25.802  0.00  0.00    -0.283 OA
ATOM     10  C   UNL     1       4.793  -3.982  27.983  0.00  0.00    +0.092 A 
ATOM     11  C   UNL     1       7.801  -1.455  26.447  0.00  0.00    +0.214 A 
ENDROOT
BRANCH   1  13
ATOM     12  C   UNL     1       5.431   1.167  26.437  0.00  0.00    +0.011 A 
ATOM     13  C   UNL     1       6.246   0.404  27.277  0.00  0.00    +0.024 A 
ATOM     14  C   UNL     1       6.936   1.081  28.291  0.00  0.00    +0.056 A 
ATOM     15  C   UNL     1       6.879   2.481  28.359  0.00  0.00    +0.110 A 
ATOM     16  C   UNL     1       6.146   3.297  27.472  0.00  0.00    -0.066 A 
ATOM     17  O   UNL     1       6.194   4.580  27.530  0.00  0.00    -0.871 OA
ATOM     18  C   UNL     1       5.395   2.577  26.539  0.00  0.00    -0.004 A 
BRANCH  15  19
ATOM     19  O   UNL     1       7.631   3.145  29.303  0.00  0.00    -0.507 OA
ATOM     20  H   UNL     1       8.282   2.420  29.493  0.00  0.00    +0.292 HD
ENDBRANCH  15  19
ENDBRANCH   1  13
BRANCH   5  21
ATOM     21  O   UNL     1       8.170  -5.838  26.424  0.00  0.00    -0.506 OA
ATOM     22  H   UNL     1       7.897  -6.762  26.217  0.00  0.00    +0.292 HD
ENDBRANCH   5  21
BRANCH   7  23
ATOM     23  O   UNL     1       3.998  -6.109  28.646  0.00  0.00    -0.507 OA
ATOM     24  H   UNL     1       4.253  -6.254  29.572  0.00  0.00    +0.292 HD
ENDBRANCH   7  23
BRANCH  11  25
ATOM     25  O   UNL     1       8.854  -0.610  26.103  0.00  0.00    -0.453 OA
BRANCH  25  26
ATOM     26  C   UNL     1       8.673   0.292  24.982  0.00  0.00    +0.340 C 
ATOM     27  O   UNL     1       7.719  -0.302  24.104  0.00  0.00    -0.330 OA
ATOM     28  C   UNL     1       7.981  -0.509  22.703  0.00  0.00    +0.191 C 
ATOM     29  C   UNL     1       9.467  -0.559  22.245  0.00  0.00    +0.178 C 
ATOM     30  C   UNL     1      10.426  -0.543  23.415  0.00  0.00    +0.180 C 
ATOM     31  C   UNL     1      10.035   0.602  24.323  0.00  0.00    +0.214 C 
BRANCH  29  32
ATOM     32  O   UNL     1       9.846  -1.642  21.403  0.00  0.00    -0.386 OA
ATOM     33  H   UNL     1       9.639  -1.374  20.482  0.00  0.00    +0.210 HD
ENDBRANCH  29  32
BRANCH  30  34
ATOM     34  O   UNL     1      10.435  -1.812  24.088  0.00  0.00    -0.386 OA
ATOM     35  H   UNL     1      10.290  -2.536  23.444  0.00  0.00    +0.210 HD
ENDBRANCH  30  34
BRANCH  31  36
ATOM     36  O   UNL     1       9.978   1.840  23.588  0.00  0.00    -0.383 OA
ATOM     37  H   UNL     1      10.816   1.888  23.088  0.00  0.00    +0.210 HD
ENDBRANCH  31  36
BRANCH  28  38
ATOM     38  C   UNL     1       7.152  -1.752  22.360  0.00  0.00    +0.266 C 
BRANCH  38  39
ATOM     39  O   UNL     1       7.778  -2.946  22.815  0.00  0.00    -0.462 OA
BRANCH  39  40
ATOM     40  C   UNL     1       6.952  -4.030  22.937  0.00  0.00    +0.313 C 
ATOM     41  O   UNL     1       7.296  -5.124  23.377  0.00  0.00    -0.250 OA
BRANCH  40  42
ATOM     42  C   UNL     1       5.650  -3.776  22.268  0.00  0.00    +0.172 C 
BRANCH  42  43
ATOM     43  C   UNL     1       4.493  -4.183  23.138  0.00  0.00    +0.052 C 
ATOM     44  O   UNL     1       4.345  -3.466  24.173  0.00  0.00    -0.549 OA
ATOM     45  O   UNL     1       3.835  -5.203  22.795  0.00  0.00    -0.549 OA
ENDBRANCH  42  43
ENDBRANCH  40  42
ENDBRANCH  39  40
ENDBRANCH  38  39
ENDBRANCH  28  38
ENDBRANCH  25  26
ENDBRANCH  11  25
TORSDOF 14
ENDMDL
MODEL 7
REMARK VINA RESULT:      -6.6      2.330      8.825
REMARK  Name = 
REMARK  14 active torsions:
REMARK  status: ('A' for Active; 'I' for Inactive)
REMARK    1  A    between atoms: C_4  and  O_43
REMARK    2  A    between atoms: C_6  and  C_7
REMARK    3  A    between atoms: C_8  and  O_20
REMARK    4  A    between atoms: C_12  and  O_19
REMARK    5  A    between atoms: C_14  and  O_18
REMARK    6  A    between atoms: O_20  and  C_21
REMARK    7  A    between atoms: C_23  and  O_42
REMARK    8  A    between atoms: C_25  and  O_41
REMARK    9  A    between atoms: C_27  and  O_40
REMARK   10  A    between atoms: C_29  and  C_32
REMARK   11  A    between atoms: C_32  and  O_33
REMARK   12  A    between atoms: O_33  and  C_34
REMARK   13  A    between atoms: C_34  and  C_36
REMARK   14  A    between atoms: C_36  and  C_37
REMARK                            x       y       z     vdW  Elec       q    Type
REMARK                         _______ _______ _______ _____ _____    ______ ____
ROOT
ATOM      1  C   UNL     1       9.278   1.700  23.455  0.00  0.00    +0.181 A 
ATOM      2  O   UNL     1      10.540   2.141  23.039  0.00  0.00    -0.451 OA
ATOM      3  C   UNL     1      10.947   3.409  23.334  0.00  0.00    +0.147 A 
ATOM      4  C   UNL     1      10.077   4.369  23.808  0.00  0.00    +0.109 A 
ATOM      5  C   UNL     1      10.511   5.679  24.059  0.00  0.00    +0.135 A 
ATOM      6  C   UNL     1      11.839   6.013  23.864  0.00  0.00    +0.091 A 
ATOM      7  C   UNL     1      12.717   5.035  23.409  0.00  0.00    +0.124 A 
ATOM      8  C   UNL     1       8.706   3.981  24.066  0.00  0.00    +0.238 A 
ATOM      9  O   UNL     1       7.944   4.886  24.404  0.00  0.00    -0.283 OA
ATOM     10  C   UNL     1      12.285   3.736  23.141  0.00  0.00    +0.092 A 
ATOM     11  C   UNL     1       8.329   2.527  23.966  0.00  0.00    +0.214 A 
ENDROOT
BRANCH   1  13
ATOM     12  C   UNL     1       8.733  -0.423  22.205  0.00  0.00    +0.011 A 
ATOM     13  C   UNL     1       9.227   0.207  23.351  0.00  0.00    +0.024 A 
ATOM     14  C   UNL     1       9.397  -0.583  24.495  0.00  0.00    +0.056 A 
ATOM     15  C   UNL     1       8.971  -1.919  24.491  0.00  0.00    +0.110 A 
ATOM     16  C   UNL     1       8.379  -2.568  23.386  0.00  0.00    -0.066 A 
ATOM     17  O   UNL     1       7.932  -3.770  23.462  0.00  0.00    -0.871 OA
ATOM     18  C   UNL     1       8.319  -1.774  22.237  0.00  0.00    -0.004 A 
BRANCH  15  19
ATOM     19  O   UNL     1       9.060  -2.663  25.647  0.00  0.00    -0.507 OA
ATOM     20  H   UNL     1       8.284  -2.267  26.123  0.00  0.00    +0.292 HD
ENDBRANCH  15  19
ENDBRANCH   1  13
BRANCH   5  21
ATOM     21  O   UNL     1       9.683   6.677  24.503  0.00  0.00    -0.506 OA
ATOM     22  H   UNL     1      10.181   7.525  24.439  0.00  0.00    +0.292 HD
ENDBRANCH   5  21
BRANCH   7  23
ATOM     23  O   UNL     1      14.032   5.329  23.204  0.00  0.00    -0.507 OA
ATOM     24  H   UNL     1      14.557   4.816  23.841  0.00  0.00    +0.292 HD
ENDBRANCH   7  23
BRANCH  11  25
ATOM     25  O   UNL     1       7.081   2.081  24.396  0.00  0.00    -0.453 OA
BRANCH  25  26
ATOM     26  C   UNL     1       6.881   1.864  25.816  0.00  0.00    +0.340 C 
ATOM     27  O   UNL     1       6.704   0.462  26.014  0.00  0.00    -0.330 OA
ATOM     28  C   UNL     1       5.569  -0.083  26.712  0.00  0.00    +0.191 C 
ATOM     29  C   UNL     1       4.288   0.795  26.807  0.00  0.00    +0.178 C 
ATOM     30  C   UNL     1       4.399   2.057  25.979  0.00  0.00    +0.180 C 
ATOM     31  C   UNL     1       5.709   2.729  26.327  0.00  0.00    +0.214 C 
BRANCH  29  32
ATOM     32  O   UNL     1       3.053   0.174  26.467  0.00  0.00    -0.386 OA
ATOM     33  H   UNL     1       3.141  -0.777  26.689  0.00  0.00    +0.210 HD
ENDBRANCH  29  32
BRANCH  30  34
ATOM     34  O   UNL     1       4.275   1.764  24.579  0.00  0.00    -0.386 OA
ATOM     35  H   UNL     1       3.871   0.882  24.454  0.00  0.00    +0.210 HD
ENDBRANCH  30  34
BRANCH  31  36
ATOM     36  O   UNL     1       5.812   2.943  27.748  0.00  0.00    -0.383 OA
ATOM     37  H   UNL     1       5.104   3.579  27.971  0.00  0.00    +0.210 HD
ENDBRANCH  31  36
BRANCH  28  38
ATOM     38  C   UNL     1       5.369  -1.457  26.061  0.00  0.00    +0.266 C 
BRANCH  38  39
ATOM     39  O   UNL     1       6.271  -2.425  26.585  0.00  0.00    -0.462 OA
BRANCH  39  40
ATOM     40  C   UNL     1       5.685  -3.541  27.117  0.00  0.00    +0.313 C 
ATOM     41  O   UNL     1       4.933  -3.539  28.089  0.00  0.00    -0.250 OA
BRANCH  40  42
ATOM     42  C   UNL     1       6.245  -4.772  26.504  0.00  0.00    +0.172 C 
BRANCH  42  43
ATOM     43  C   UNL     1       7.383  -5.326  27.315  0.00  0.00    +0.052 C 
ATOM     44  O   UNL     1       7.025  -6.126  28.232  0.00  0.00    -0.549 OA
ATOM     45  O   UNL     1       8.544  -4.912  27.052  0.00  0.00    -0.549 OA
ENDBRANCH  42  43
ENDBRANCH  40  42
ENDBRANCH  39  40
ENDBRANCH  38  39
ENDBRANCH  28  38
ENDBRANCH  25  26
ENDBRANCH  11  25
TORSDOF 14
ENDMDL
MODEL 8
REMARK VINA RESULT:      -6.5      2.046      7.569
REMARK  Name = 
REMARK  14 active torsions:
REMARK  status: ('A' for Active; 'I' for Inactive)
REMARK    1  A    between atoms: C_4  and  O_43
REMARK    2  A    between atoms: C_6  and  C_7
REMARK    3  A    between atoms: C_8  and  O_20
REMARK    4  A    between atoms: C_12  and  O_19
REMARK    5  A    between atoms: C_14  and  O_18
REMARK    6  A    between atoms: O_20  and  C_21
REMARK    7  A    between atoms: C_23  and  O_42
REMARK    8  A    between atoms: C_25  and  O_41
REMARK    9  A    between atoms: C_27  and  O_40
REMARK   10  A    between atoms: C_29  and  C_32
REMARK   11  A    between atoms: C_32  and  O_33
REMARK   12  A    between atoms: O_33  and  C_34
REMARK   13  A    between atoms: C_34  and  C_36
REMARK   14  A    between atoms: C_36  and  C_37
REMARK                            x       y       z     vdW  Elec       q    Type
REMARK                         _______ _______ _______ _____ _____    ______ ____
ROOT
ATOM      1  C   UNL     1       7.063  -0.714  25.384  0.00  0.00    +0.181 A 
ATOM      2  O   UNL     1       7.745   0.509  25.373  0.00  0.00    -0.451 OA
ATOM      3  C   UNL     1       8.477   0.867  24.280  0.00  0.00    +0.147 A 
ATOM      4  C   UNL     1       8.786  -0.027  23.275  0.00  0.00    +0.109 A 
ATOM      5  C   UNL     1       9.581   0.356  22.185  0.00  0.00    +0.135 A 
ATOM      6  C   UNL     1      10.036   1.658  22.088  0.00  0.00    +0.091 A 
ATOM      7  C   UNL     1       9.702   2.562  23.091  0.00  0.00    +0.124 A 
ATOM      8  C   UNL     1       8.246  -1.367  23.365  0.00  0.00    +0.238 A 
ATOM      9  O   UNL     1       8.616  -2.156  22.496  0.00  0.00    -0.283 OA
ATOM     10  C   UNL     1       8.928   2.181  24.187  0.00  0.00    +0.092 A 
ATOM     11  C   UNL     1       7.247  -1.679  24.447  0.00  0.00    +0.214 A 
ENDROOT
BRANCH   1  13
ATOM     12  C   UNL     1       4.728  -1.066  26.272  0.00  0.00    +0.011 A 
ATOM     13  C   UNL     1       6.059  -0.700  26.494  0.00  0.00    +0.024 A 
ATOM     14  C   UNL     1       6.353  -0.051  27.700  0.00  0.00    +0.056 A 
ATOM     15  C   UNL     1       5.315   0.305  28.573  0.00  0.00    +0.110 A 
ATOM     16  C   UNL     1       3.948   0.040  28.343  0.00  0.00    -0.066 A 
ATOM     17  O   UNL     1       3.030   0.460  29.137  0.00  0.00    -0.871 OA
ATOM     18  C   UNL     1       3.709  -0.695  27.178  0.00  0.00    -0.004 A 
BRANCH  15  19
ATOM     19  O   UNL     1       5.603   1.021  29.714  0.00  0.00    -0.507 OA
ATOM     20  H   UNL     1       4.887   0.651  30.292  0.00  0.00    +0.292 HD
ENDBRANCH  15  19
ENDBRANCH   1  13
BRANCH   5  21
ATOM     21  O   UNL     1       9.941  -0.499  21.176  0.00  0.00    -0.506 OA
ATOM     22  H   UNL     1      10.869  -0.286  20.924  0.00  0.00    +0.292 HD
ENDBRANCH   5  21
BRANCH   7  23
ATOM     23  O   UNL     1      10.135   3.853  23.030  0.00  0.00    -0.507 OA
ATOM     24  H   UNL     1      10.261   4.083  22.094  0.00  0.00    +0.292 HD
ENDBRANCH   7  23
BRANCH  11  25
ATOM     25  O   UNL     1       6.553  -2.887  24.451  0.00  0.00    -0.453 OA
BRANCH  25  26
ATOM     26  C   UNL     1       5.599  -3.136  23.387  0.00  0.00    +0.340 C 
ATOM     27  O   UNL     1       4.373  -3.538  23.995  0.00  0.00    -0.330 OA
ATOM     28  C   UNL     1       3.693  -4.755  23.633  0.00  0.00    +0.191 C 
ATOM     29  C   UNL     1       4.530  -5.878  22.957  0.00  0.00    +0.178 C 
ATOM     30  C   UNL     1       6.008  -5.556  22.939  0.00  0.00    +0.180 C 
ATOM     31  C   UNL     1       6.175  -4.159  22.383  0.00  0.00    +0.214 C 
BRANCH  29  32
ATOM     32  O   UNL     1       4.390  -7.193  23.483  0.00  0.00    -0.386 OA
ATOM     33  H   UNL     1       5.264  -7.630  23.397  0.00  0.00    +0.210 HD
ENDBRANCH  29  32
BRANCH  30  34
ATOM     34  O   UNL     1       6.582  -5.710  24.247  0.00  0.00    -0.386 OA
ATOM     35  H   UNL     1       6.422  -4.905  24.781  0.00  0.00    +0.210 HD
ENDBRANCH  30  34
BRANCH  31  36
ATOM     36  O   UNL     1       5.528  -4.039  21.102  0.00  0.00    -0.383 OA
ATOM     37  H   UNL     1       4.794  -3.409  21.235  0.00  0.00    +0.210 HD
ENDBRANCH  31  36
BRANCH  28  38
ATOM     38  C   UNL     1       2.974  -5.165  24.924  0.00  0.00    +0.266 C 
BRANCH  38  39
ATOM     39  O   UNL     1       3.652  -4.686  26.080  0.00  0.00    -0.462 OA
BRANCH  39  40
ATOM     40  C   UNL     1       4.539  -5.562  26.643  0.00  0.00    +0.313 C 
ATOM     41  O   UNL     1       4.561  -6.771  26.423  0.00  0.00    -0.250 OA
BRANCH  40  42
ATOM     42  C   UNL     1       5.326  -4.899  27.714  0.00  0.00    +0.172 C 
BRANCH  42  43
ATOM     43  C   UNL     1       6.731  -5.428  27.776  0.00  0.00    +0.052 C 
ATOM     44  O   UNL     1       7.515  -4.923  26.917  0.00  0.00    -0.549 OA
ATOM     45  O   UNL     1       6.975  -6.339  28.614  0.00  0.00    -0.549 OA
ENDBRANCH  42  43
ENDBRANCH  40  42
ENDBRANCH  39  40
ENDBRANCH  38  39
ENDBRANCH  28  38
ENDBRANCH  25  26
ENDBRANCH  11  25
TORSDOF 14
ENDMDL
MODEL 9
REMARK VINA RESULT:      -6.3      2.217      6.822
REMARK  Name = 
REMARK  14 active torsions:
REMARK  status: ('A' for Active; 'I' for Inactive)
REMARK    1  A    between atoms: C_4  and  O_43
REMARK    2  A    between atoms: C_6  and  C_7
REMARK    3  A    between atoms: C_8  and  O_20
REMARK    4  A    between atoms: C_12  and  O_19
REMARK    5  A    between atoms: C_14  and  O_18
REMARK    6  A    between atoms: O_20  and  C_21
REMARK    7  A    between atoms: C_23  and  O_42
REMARK    8  A    between atoms: C_25  and  O_41
REMARK    9  A    between atoms: C_27  and  O_40
REMARK   10  A    between atoms: C_29  and  C_32
REMARK   11  A    between atoms: C_32  and  O_33
REMARK   12  A    between atoms: O_33  and  C_34
REMARK   13  A    between atoms: C_34  and  C_36
REMARK   14  A    between atoms: C_36  and  C_37
REMARK                            x       y       z     vdW  Elec       q    Type
REMARK                         _______ _______ _______ _____ _____    ______ ____
ROOT
ATOM      1  C   UNL     1       8.686  -2.040  24.668  0.00  0.00    +0.181 A 
ATOM      2  O   UNL     1       8.986  -0.786  25.214  0.00  0.00    -0.451 OA
ATOM      3  C   UNL     1       8.940   0.326  24.426  0.00  0.00    +0.147 A 
ATOM      4  C   UNL     1       8.856   0.250  23.051  0.00  0.00    +0.109 A 
ATOM      5  C   UNL     1       8.858   1.409  22.261  0.00  0.00    +0.135 A 
ATOM      6  C   UNL     1       8.909   2.653  22.863  0.00  0.00    +0.091 A 
ATOM      7  C   UNL     1       8.970   2.724  24.251  0.00  0.00    +0.124 A 
ATOM      8  C   UNL     1       8.739  -1.059  22.446  0.00  0.00    +0.238 A 
ATOM      9  O   UNL     1       8.754  -1.088  21.215  0.00  0.00    -0.283 OA
ATOM     10  C   UNL     1       8.987   1.574  25.039  0.00  0.00    +0.092 A 
ATOM     11  C   UNL     1       8.549  -2.259  23.334  0.00  0.00    +0.214 A 
ENDROOT
BRANCH   1  13
ATOM     12  C   UNL     1       9.247  -4.136  25.955  0.00  0.00    +0.011 A 
ATOM     13  C   UNL     1       8.438  -3.009  25.781  0.00  0.00    +0.024 A 
ATOM     14  C   UNL     1       7.232  -2.969  26.491  0.00  0.00    +0.056 A 
ATOM     15  C   UNL     1       6.828  -4.081  27.245  0.00  0.00    +0.110 A 
ATOM     16  C   UNL     1       7.568  -5.276  27.370  0.00  0.00    -0.066 A 
ATOM     17  O   UNL     1       7.113  -6.295  28.006  0.00  0.00    -0.871 OA
ATOM     18  C   UNL     1       8.808  -5.236  26.728  0.00  0.00    -0.004 A 
BRANCH  15  19
ATOM     19  O   UNL     1       5.599  -4.068  27.867  0.00  0.00    -0.507 OA
ATOM     20  H   UNL     1       5.315  -4.988  27.626  0.00  0.00    +0.292 HD
ENDBRANCH  15  19
ENDBRANCH   1  13
BRANCH   5  21
ATOM     21  O   UNL     1       8.805   1.389  20.892  0.00  0.00    -0.506 OA
ATOM     22  H   UNL     1       9.732   1.342  20.560  0.00  0.00    +0.292 HD
ENDBRANCH   5  21
BRANCH   7  23
ATOM     23  O   UNL     1       9.023   3.933  24.878  0.00  0.00    -0.507 OA
ATOM     24  H   UNL     1       8.224   4.431  24.638  0.00  0.00    +0.292 HD
ENDBRANCH   7  23
BRANCH  11  25
ATOM     25  O   UNL     1       8.232  -3.505  22.796  0.00  0.00    -0.453 OA
BRANCH  25  26
ATOM     26  C   UNL     1       7.010  -3.630  22.025  0.00  0.00    +0.340 C 
ATOM     27  O   UNL     1       5.957  -3.055  22.796  0.00  0.00    -0.330 OA
ATOM     28  C   UNL     1       4.744  -3.769  23.101  0.00  0.00    +0.191 C 
ATOM     29  C   UNL     1       4.782  -5.323  23.033  0.00  0.00    +0.178 C 
ATOM     30  C   UNL     1       6.182  -5.850  22.807  0.00  0.00    +0.180 C 
ATOM     31  C   UNL     1       6.777  -5.105  21.632  0.00  0.00    +0.214 C 
BRANCH  29  32
ATOM     32  O   UNL     1       4.237  -6.030  24.141  0.00  0.00    -0.386 OA
ATOM     33  H   UNL     1       3.318  -5.709  24.262  0.00  0.00    +0.210 HD
ENDBRANCH  29  32
BRANCH  30  34
ATOM     34  O   UNL     1       6.972  -5.734  24.001  0.00  0.00    -0.386 OA
ATOM     35  H   UNL     1       7.112  -6.617  24.399  0.00  0.00    +0.210 HD
ENDBRANCH  30  34
BRANCH  31  36
ATOM     36  O   UNL     1       5.917  -5.199  20.480  0.00  0.00    -0.383 OA
ATOM     37  H   UNL     1       6.022  -6.111  20.147  0.00  0.00    +0.210 HD
ENDBRANCH  31  36
BRANCH  28  38
ATOM     38  C   UNL     1       4.312  -3.187  24.452  0.00  0.00    +0.266 C 
BRANCH  38  39
ATOM     39  O   UNL     1       4.931  -1.931  24.707  0.00  0.00    -0.462 OA
BRANCH  39  40
ATOM     40  C   UNL     1       4.469  -1.265  25.809  0.00  0.00    +0.313 C 
ATOM     41  O   UNL     1       3.454  -1.566  26.433  0.00  0.00    -0.250 OA
BRANCH  40  42
ATOM     42  C   UNL     1       5.232  -0.008  26.022  0.00  0.00    +0.172 C 
BRANCH  42  43
ATOM     43  C   UNL     1       4.340   1.108  26.488  0.00  0.00    +0.052 C 
ATOM     44  O   UNL     1       4.372   1.311  27.739  0.00  0.00    -0.549 OA
ATOM     45  O   UNL     1       3.624   1.683  25.623  0.00  0.00    -0.549 OA
ENDBRANCH  42  43
ENDBRANCH  40  42
ENDBRANCH  39  40
ENDBRANCH  38  39
ENDBRANCH  28  38
ENDBRANCH  25  26
ENDBRANCH  11  25
TORSDOF 14
ENDMDL
