MODEL 1
REMARK VINA RESULT:      -6.9      0.000      0.000
REMARK  Name = 
REMARK  15 active torsions:
REMARK  status: ('A' for Active; 'I' for Inactive)
REMARK    1  A    between atoms: C_1  and  O_2
REMARK    2  A    between atoms: O_2  and  C_3
REMARK    3  A    between atoms: C_4  and  O_41
REMARK    4  A    between atoms: C_6  and  C_9
REMARK    5  A    between atoms: C_10  and  O_26
REMARK    6  A    between atoms: C_14  and  O_25
REMARK    7  A    between atoms: C_16  and  O_20
REMARK    8  A    between atoms: O_20  and  S_21
REMARK    9  A    between atoms: S_21  and  O_24
REMARK   10  A    between atoms: O_26  and  C_27
REMARK   11  A    between atoms: C_29  and  O_40
REMARK   12  A    between atoms: C_30  and  O_39
REMARK   13  A    between atoms: C_31  and  O_38
REMARK   14  A    between atoms: C_33  and  C_36
REMARK   15  A    between atoms: C_36  and  O_37
REMARK                            x       y       z     vdW  Elec       q    Type
REMARK                         _______ _______ _______ _____ _____    ______ ____
ROOT
ATOM      1  C   UNL     1       6.834  -1.118  25.270  0.00  0.00    +0.181 A 
ATOM      2  O   UNL     1       7.450   0.128  25.300  0.00  0.00    -0.451 OA
ATOM      3  C   UNL     1       8.327   0.486  24.325  0.00  0.00    +0.147 A 
ATOM      4  C   UNL     1       8.631  -0.336  23.259  0.00  0.00    +0.109 A 
ATOM      5  C   UNL     1       9.472   0.171  22.253  0.00  0.00    +0.135 A 
ATOM      6  C   UNL     1      10.012   1.468  22.339  0.00  0.00    +0.095 A 
ATOM      7  C   UNL     1       9.739   2.254  23.447  0.00  0.00    +0.166 A 
ATOM      8  C   UNL     1       8.019  -1.677  23.225  0.00  0.00    +0.238 A 
ATOM      9  O   UNL     1       8.244  -2.374  22.238  0.00  0.00    -0.283 OA
ATOM     10  C   UNL     1       8.881   1.772  24.440  0.00  0.00    +0.096 A 
ATOM     11  C   UNL     1       7.104  -2.095  24.365  0.00  0.00    +0.214 A 
ENDROOT
BRANCH   1  15
ATOM     12  C   UNL     1       3.533  -1.600  27.965  0.00  0.00    +0.161 A 
ATOM     13  C   UNL     1       3.616  -0.487  27.134  0.00  0.00    +0.050 A 
ATOM     14  C   UNL     1       4.779  -0.250  26.372  0.00  0.00    +0.015 A 
ATOM     15  C   UNL     1       5.882  -1.121  26.419  0.00  0.00    +0.025 A 
ATOM     16  C   UNL     1       5.802  -2.231  27.283  0.00  0.00    +0.060 A 
ATOM     17  C   UNL     1       4.640  -2.450  28.047  0.00  0.00    +0.159 A 
BRANCH  12  19
ATOM     18  C   UNL     1       1.289  -2.423  27.995  0.00  0.00    +0.277 C 
ATOM     19  O   UNL     1       2.445  -1.989  28.705  0.00  0.00    -0.491 OA
ENDBRANCH  12  19
BRANCH  17  20
ATOM     20  O   UNL     1       4.578  -3.580  28.849  0.00  0.00    -0.503 OA
ATOM     21  H   UNL     1       4.817  -4.317  28.266  0.00  0.00    +0.292 HD
ENDBRANCH  17  20
ENDBRANCH   1  15
BRANCH   5  22
ATOM     22  O   UNL     1       9.796  -0.545  21.133  0.00  0.00    -0.506 OA
ATOM     23  H   UNL     1      10.646  -0.201  20.780  0.00  0.00    +0.292 HD
ENDBRANCH   5  22
BRANCH   7  24
ATOM     24  O   UNL     1      10.181   3.543  23.637  0.00  0.00    -0.325 OA
BRANCH  24  25
ATOM     25  S   UNL     1       9.145   4.794  23.763  0.00  0.00    +0.251 S 
ATOM     26  O   UNL     1       8.985   5.152  25.152  0.00  0.00    -0.108 OA
ATOM     27  O   UNL     1       8.013   4.546  22.891  0.00  0.00    -0.108 OA
BRANCH  25  28
ATOM     28  O   UNL     1       9.961   5.987  23.045  0.00  0.00    -0.222 OA
ATOM     29  H   UNL     1       9.382   6.778  23.041  0.00  0.00    +0.248 HD
ENDBRANCH  25  28
ENDBRANCH  24  25
ENDBRANCH   7  24
BRANCH  11  30
ATOM     30  O   UNL     1       6.501  -3.364  24.425  0.00  0.00    -0.453 OA
BRANCH  30  31
ATOM     31  C   UNL     1       5.110  -3.553  24.041  0.00  0.00    +0.340 C 
ATOM     32  O   UNL     1       4.342  -4.251  25.026  0.00  0.00    -0.331 OA
ATOM     33  C   UNL     1       4.563  -5.653  25.212  0.00  0.00    +0.179 C 
ATOM     34  C   UNL     1       4.963  -6.501  23.976  0.00  0.00    +0.177 C 
ATOM     35  C   UNL     1       5.404  -5.717  22.725  0.00  0.00    +0.180 C 
ATOM     36  C   UNL     1       4.961  -4.254  22.684  0.00  0.00    +0.214 C 
BRANCH  34  37
ATOM     37  O   UNL     1       3.881  -7.393  23.622  0.00  0.00    -0.386 OA
ATOM     38  H   UNL     1       3.669  -7.251  22.680  0.00  0.00    +0.210 HD
ENDBRANCH  34  37
BRANCH  35  39
ATOM     39  O   UNL     1       4.988  -6.356  21.498  0.00  0.00    -0.386 OA
ATOM     40  H   UNL     1       5.588  -6.068  20.788  0.00  0.00    +0.210 HD
ENDBRANCH  35  39
BRANCH  36  41
ATOM     41  O   UNL     1       5.708  -3.530  21.686  0.00  0.00    -0.383 OA
ATOM     42  H   UNL     1       6.628  -3.502  21.999  0.00  0.00    +0.210 HD
ENDBRANCH  36  41
BRANCH  33  43
ATOM     43  C   UNL     1       5.506  -5.845  26.411  0.00  0.00    +0.190 C 
BRANCH  43  44
ATOM     44  O   UNL     1       6.870  -5.852  26.018  0.00  0.00    -0.392 OA
ATOM     45  H   UNL     1       6.913  -6.392  25.204  0.00  0.00    +0.210 HD
ENDBRANCH  43  44
ENDBRANCH  33  43
ENDBRANCH  30  31
ENDBRANCH  11  30
TORSDOF 14
ENDMDL
MODEL 2
REMARK VINA RESULT:      -6.8      3.109      7.958
REMARK  Name = 
REMARK  15 active torsions:
REMARK  status: ('A' for Active; 'I' for Inactive)
REMARK    1  A    between atoms: C_1  and  O_2
REMARK    2  A    between atoms: O_2  and  C_3
REMARK    3  A    between atoms: C_4  and  O_41
REMARK    4  A    between atoms: C_6  and  C_9
REMARK    5  A    between atoms: C_10  and  O_26
REMARK    6  A    between atoms: C_14  and  O_25
REMARK    7  A    between atoms: C_16  and  O_20
REMARK    8  A    between atoms: O_20  and  S_21
REMARK    9  A    between atoms: S_21  and  O_24
REMARK   10  A    between atoms: O_26  and  C_27
REMARK   11  A    between atoms: C_29  and  O_40
REMARK   12  A    between atoms: C_30  and  O_39
REMARK   13  A    between atoms: C_31  and  O_38
REMARK   14  A    between atoms: C_33  and  C_36
REMARK   15  A    between atoms: C_36  and  O_37
REMARK                            x       y       z     vdW  Elec       q    Type
REMARK                         _______ _______ _______ _____ _____    ______ ____
ROOT
ATOM      1  C   UNL     1       5.893  -1.299  24.530  0.00  0.00    +0.181 A 
ATOM      2  O   UNL     1       4.890  -2.261  24.514  0.00  0.00    -0.451 OA
ATOM      3  C   UNL     1       5.012  -3.370  23.736  0.00  0.00    +0.147 A 
ATOM      4  C   UNL     1       6.124  -3.612  22.955  0.00  0.00    +0.109 A 
ATOM      5  C   UNL     1       6.194  -4.836  22.267  0.00  0.00    +0.135 A 
ATOM      6  C   UNL     1       5.152  -5.779  22.349  0.00  0.00    +0.095 A 
ATOM      7  C   UNL     1       4.020  -5.490  23.094  0.00  0.00    +0.166 A 
ATOM      8  C   UNL     1       7.184  -2.587  22.925  0.00  0.00    +0.238 A 
ATOM      9  O   UNL     1       8.197  -2.844  22.280  0.00  0.00    -0.283 OA
ATOM     10  C   UNL     1       3.951  -4.288  23.805  0.00  0.00    +0.096 A 
ATOM     11  C   UNL     1       6.996  -1.315  23.737  0.00  0.00    +0.214 A 
ENDROOT
BRANCH   1  15
ATOM     12  C   UNL     1       5.611   1.758  27.525  0.00  0.00    +0.161 A 
ATOM     13  C   UNL     1       5.771   0.422  27.884  0.00  0.00    +0.050 A 
ATOM     14  C   UNL     1       5.697  -0.592  26.908  0.00  0.00    +0.015 A 
ATOM     15  C   UNL     1       5.469  -0.298  25.552  0.00  0.00    +0.025 A 
ATOM     16  C   UNL     1       5.281   1.053  25.200  0.00  0.00    +0.060 A 
ATOM     17  C   UNL     1       5.345   2.056  26.185  0.00  0.00    +0.159 A 
BRANCH  12  19
ATOM     18  C   UNL     1       6.912   2.957  29.133  0.00  0.00    +0.277 C 
ATOM     19  O   UNL     1       5.725   2.846  28.353  0.00  0.00    -0.491 OA
ENDBRANCH  12  19
BRANCH  17  20
ATOM     20  O   UNL     1       5.205   3.380  25.794  0.00  0.00    -0.503 OA
ATOM     21  H   UNL     1       4.718   3.346  24.956  0.00  0.00    +0.292 HD
ENDBRANCH  17  20
ENDBRANCH   1  15
BRANCH   5  22
ATOM     22  O   UNL     1       7.272  -5.192  21.504  0.00  0.00    -0.506 OA
ATOM     23  H   UNL     1       8.086  -4.861  21.943  0.00  0.00    +0.292 HD
ENDBRANCH   5  22
BRANCH   7  24
ATOM     24  O   UNL     1       2.950  -6.334  23.275  0.00  0.00    -0.325 OA
BRANCH  24  25
ATOM     25  S   UNL     1       2.852  -7.330  24.562  0.00  0.00    +0.251 S 
ATOM     26  O   UNL     1       1.828  -6.858  25.463  0.00  0.00    -0.108 OA
ATOM     27  O   UNL     1       4.196  -7.638  25.010  0.00  0.00    -0.108 OA
BRANCH  25  28
ATOM     28  O   UNL     1       2.319  -8.700  23.894  0.00  0.00    -0.222 OA
ATOM     29  H   UNL     1       1.516  -8.973  24.386  0.00  0.00    +0.248 HD
ENDBRANCH  25  28
ENDBRANCH  24  25
ENDBRANCH   7  24
BRANCH  11  30
ATOM     30  O   UNL     1       7.945  -0.276  23.746  0.00  0.00    -0.453 OA
BRANCH  30  31
ATOM     31  C   UNL     1       8.520   0.225  22.507  0.00  0.00    +0.340 C 
ATOM     32  O   UNL     1       9.950   0.247  22.517  0.00  0.00    -0.331 OA
ATOM     33  C   UNL     1      10.623   1.226  23.318  0.00  0.00    +0.179 C 
ATOM     34  C   UNL     1       9.948   2.611  23.501  0.00  0.00    +0.177 C 
ATOM     35  C   UNL     1       8.468   2.709  23.081  0.00  0.00    +0.180 C 
ATOM     36  C   UNL     1       7.988   1.614  22.128  0.00  0.00    +0.214 C 
BRANCH  34  37
ATOM     37  O   UNL     1      10.709   3.624  22.805  0.00  0.00    -0.386 OA
ATOM     38  H   UNL     1      10.078   4.220  22.357  0.00  0.00    +0.210 HD
ENDBRANCH  34  37
BRANCH  35  39
ATOM     39  O   UNL     1       8.142   3.993  22.504  0.00  0.00    -0.386 OA
ATOM     40  H   UNL     1       7.863   4.586  23.224  0.00  0.00    +0.210 HD
ENDBRANCH  35  39
BRANCH  36  41
ATOM     41  O   UNL     1       6.548   1.581  22.084  0.00  0.00    -0.383 OA
ATOM     42  H   UNL     1       6.307   1.288  21.189  0.00  0.00    +0.210 HD
ENDBRANCH  36  41
BRANCH  33  43
ATOM     43  C   UNL     1      11.036   0.571  24.645  0.00  0.00    +0.190 C 
BRANCH  43  44
ATOM     44  O   UNL     1       9.973   0.559  25.586  0.00  0.00    -0.392 OA
ATOM     45  H   UNL     1       9.659  -0.367  25.625  0.00  0.00    +0.210 HD
ENDBRANCH  43  44
ENDBRANCH  33  43
ENDBRANCH  30  31
ENDBRANCH  11  30
TORSDOF 14
ENDMDL
MODEL 3
REMARK VINA RESULT:      -6.7      3.006      7.902
REMARK  Name = 
REMARK  15 active torsions:
REMARK  status: ('A' for Active; 'I' for Inactive)
REMARK    1  A    between atoms: C_1  and  O_2
REMARK    2  A    between atoms: O_2  and  C_3
REMARK    3  A    between atoms: C_4  and  O_41
REMARK    4  A    between atoms: C_6  and  C_9
REMARK    5  A    between atoms: C_10  and  O_26
REMARK    6  A    between atoms: C_14  and  O_25
REMARK    7  A    between atoms: C_16  and  O_20
REMARK    8  A    between atoms: O_20  and  S_21
REMARK    9  A    between atoms: S_21  and  O_24
REMARK   10  A    between atoms: O_26  and  C_27
REMARK   11  A    between atoms: C_29  and  O_40
REMARK   12  A    between atoms: C_30  and  O_39
REMARK   13  A    between atoms: C_31  and  O_38
REMARK   14  A    between atoms: C_33  and  C_36
REMARK   15  A    between atoms: C_36  and  O_37
REMARK                            x       y       z     vdW  Elec       q    Type
REMARK                         _______ _______ _______ _____ _____    ______ ____
ROOT
ATOM      1  C   UNL     1       6.040  -1.623  25.140  0.00  0.00    +0.181 A 
ATOM      2  O   UNL     1       5.405  -2.829  25.412  0.00  0.00    -0.451 OA
ATOM      3  C   UNL     1       5.529  -3.881  24.559  0.00  0.00    +0.147 A 
ATOM      4  C   UNL     1       6.295  -3.822  23.412  0.00  0.00    +0.109 A 
ATOM      5  C   UNL     1       6.438  -4.997  22.653  0.00  0.00    +0.135 A 
ATOM      6  C   UNL     1       5.799  -6.193  23.032  0.00  0.00    +0.095 A 
ATOM      7  C   UNL     1       4.988  -6.213  24.156  0.00  0.00    +0.166 A 
ATOM      8  C   UNL     1       6.947  -2.542  23.082  0.00  0.00    +0.238 A 
ATOM      9  O   UNL     1       7.680  -2.521  22.096  0.00  0.00    -0.283 OA
ATOM     10  C   UNL     1       4.862  -5.059  24.935  0.00  0.00    +0.096 A 
ATOM     11  C   UNL     1       6.732  -1.351  24.003  0.00  0.00    +0.214 A 
ENDROOT
BRANCH   1  15
ATOM     12  C   UNL     1       5.759   1.523  28.040  0.00  0.00    +0.161 A 
ATOM     13  C   UNL     1       6.814   0.617  28.073  0.00  0.00    +0.050 A 
ATOM     14  C   UNL     1       6.815  -0.509  27.225  0.00  0.00    +0.015 A 
ATOM     15  C   UNL     1       5.767  -0.753  26.320  0.00  0.00    +0.025 A 
ATOM     16  C   UNL     1       4.689   0.154  26.311  0.00  0.00    +0.060 A 
ATOM     17  C   UNL     1       4.694   1.267  27.171  0.00  0.00    +0.159 A 
BRANCH  12  19
ATOM     18  C   UNL     1       6.858   3.429  28.976  0.00  0.00    +0.277 C 
ATOM     19  O   UNL     1       5.660   2.690  28.755  0.00  0.00    -0.491 OA
ENDBRANCH  12  19
BRANCH  17  20
ATOM     20  O   UNL     1       3.639   2.166  27.098  0.00  0.00    -0.503 OA
ATOM     21  H   UNL     1       3.116   2.009  27.900  0.00  0.00    +0.292 HD
ENDBRANCH  17  20
ENDBRANCH   1  15
BRANCH   5  22
ATOM     22  O   UNL     1       7.212  -5.057  21.527  0.00  0.00    -0.506 OA
ATOM     23  H   UNL     1       8.145  -5.198  21.798  0.00  0.00    +0.292 HD
ENDBRANCH   5  22
BRANCH   7  24
ATOM     24  O   UNL     1       4.335  -7.319  24.646  0.00  0.00    -0.325 OA
BRANCH  24  25
ATOM     25  S   UNL     1       2.736  -7.538  24.422  0.00  0.00    +0.251 S 
ATOM     26  O   UNL     1       2.004  -6.493  25.094  0.00  0.00    -0.108 OA
ATOM     27  O   UNL     1       2.432  -8.943  24.613  0.00  0.00    -0.108 OA
BRANCH  25  28
ATOM     28  O   UNL     1       2.577  -7.299  22.833  0.00  0.00    -0.222 OA
ATOM     29  H   UNL     1       1.700  -7.648  22.570  0.00  0.00    +0.248 HD
ENDBRANCH  25  28
ENDBRANCH  24  25
ENDBRANCH   7  24
BRANCH  11  30
ATOM     30  O   UNL     1       7.295  -0.087  23.749  0.00  0.00    -0.453 OA
BRANCH  30  31
ATOM     31  C   UNL     1       8.656   0.225  24.160  0.00  0.00    +0.340 C 
ATOM     32  O   UNL     1       8.726   1.276  25.128  0.00  0.00    -0.331 OA
ATOM     33  C   UNL     1       8.459   2.620  24.713  0.00  0.00    +0.179 C 
ATOM     34  C   UNL     1       8.857   3.034  23.272  0.00  0.00    +0.177 C 
ATOM     35  C   UNL     1       9.206   1.886  22.305  0.00  0.00    +0.180 C 
ATOM     36  C   UNL     1       9.570   0.560  22.972  0.00  0.00    +0.214 C 
BRANCH  34  37
ATOM     37  O   UNL     1       9.958   3.970  23.316  0.00  0.00    -0.386 OA
ATOM     38  H   UNL     1       9.635   4.831  22.988  0.00  0.00    +0.210 HD
ENDBRANCH  34  37
BRANCH  35  39
ATOM     39  O   UNL     1      10.262   2.241  21.385  0.00  0.00    -0.386 OA
ATOM     40  H   UNL     1      10.440   3.193  21.480  0.00  0.00    +0.210 HD
ENDBRANCH  35  39
BRANCH  36  41
ATOM     41  O   UNL     1       9.524  -0.516  22.014  0.00  0.00    -0.383 OA
ATOM     42  H   UNL     1       8.586  -0.744  21.903  0.00  0.00    +0.210 HD
ENDBRANCH  36  41
BRANCH  33  43
ATOM     43  C   UNL     1       7.001   2.958  25.061  0.00  0.00    +0.190 C 
BRANCH  43  44
ATOM     44  O   UNL     1       6.106   2.585  24.025  0.00  0.00    -0.392 OA
ATOM     45  H   UNL     1       5.209   2.646  24.409  0.00  0.00    +0.210 HD
ENDBRANCH  43  44
ENDBRANCH  33  43
ENDBRANCH  30  31
ENDBRANCH  11  30
TORSDOF 14
ENDMDL
MODEL 4
REMARK VINA RESULT:      -6.7      1.311      2.371
REMARK  Name = 
REMARK  15 active torsions:
REMARK  status: ('A' for Active; 'I' for Inactive)
REMARK    1  A    between atoms: C_1  and  O_2
REMARK    2  A    between atoms: O_2  and  C_3
REMARK    3  A    between atoms: C_4  and  O_41
REMARK    4  A    between atoms: C_6  and  C_9
REMARK    5  A    between atoms: C_10  and  O_26
REMARK    6  A    between atoms: C_14  and  O_25
REMARK    7  A    between atoms: C_16  and  O_20
REMARK    8  A    between atoms: O_20  and  S_21
REMARK    9  A    between atoms: S_21  and  O_24
REMARK   10  A    between atoms: O_26  and  C_27
REMARK   11  A    between atoms: C_29  and  O_40
REMARK   12  A    between atoms: C_30  and  O_39
REMARK   13  A    between atoms: C_31  and  O_38
REMARK   14  A    between atoms: C_33  and  C_36
REMARK   15  A    between atoms: C_36  and  O_37
REMARK                            x       y       z     vdW  Elec       q    Type
REMARK                         _______ _______ _______ _____ _____    ______ ____
ROOT
ATOM      1  C   UNL     1       6.643  -0.686  25.253  0.00  0.00    +0.181 A 
ATOM      2  O   UNL     1       7.387   0.488  25.292  0.00  0.00    -0.451 OA
ATOM      3  C   UNL     1       8.280   0.771  24.306  0.00  0.00    +0.147 A 
ATOM      4  C   UNL     1       8.478  -0.059  23.221  0.00  0.00    +0.109 A 
ATOM      5  C   UNL     1       9.350   0.376  22.207  0.00  0.00    +0.135 A 
ATOM      6  C   UNL     1      10.025   1.607  22.305  0.00  0.00    +0.095 A 
ATOM      7  C   UNL     1       9.855   2.397  23.431  0.00  0.00    +0.166 A 
ATOM      8  C   UNL     1       7.728  -1.328  23.176  0.00  0.00    +0.238 A 
ATOM      9  O   UNL     1       7.862  -2.026  22.173  0.00  0.00    -0.283 OA
ATOM     10  C   UNL     1       8.969   1.989  24.432  0.00  0.00    +0.096 A 
ATOM     11  C   UNL     1       6.794  -1.668  24.327  0.00  0.00    +0.214 A 
ENDROOT
BRANCH   1  15
ATOM     12  C   UNL     1       3.968   0.465  28.400  0.00  0.00    +0.161 A 
ATOM     13  C   UNL     1       5.344   0.449  28.607  0.00  0.00    +0.050 A 
ATOM     14  C   UNL     1       6.206  -0.086  27.627  0.00  0.00    +0.015 A 
ATOM     15  C   UNL     1       5.716  -0.610  26.419  0.00  0.00    +0.025 A 
ATOM     16  C   UNL     1       4.320  -0.615  26.228  0.00  0.00    +0.060 A 
ATOM     17  C   UNL     1       3.469  -0.090  27.218  0.00  0.00    +0.159 A 
BRANCH  12  19
ATOM     18  C   UNL     1       2.801   0.374  30.485  0.00  0.00    +0.277 C 
ATOM     19  O   UNL     1       3.023   1.013  29.231  0.00  0.00    -0.491 OA
ENDBRANCH  12  19
BRANCH  17  20
ATOM     20  O   UNL     1       2.103  -0.065  26.974  0.00  0.00    -0.503 OA
ATOM     21  H   UNL     1       1.723  -0.704  27.596  0.00  0.00    +0.292 HD
ENDBRANCH  17  20
ENDBRANCH   1  15
BRANCH   5  22
ATOM     22  O   UNL     1       9.578  -0.349  21.070  0.00  0.00    -0.506 OA
ATOM     23  H   UNL     1       8.740  -0.401  20.561  0.00  0.00    +0.292 HD
ENDBRANCH   5  22
BRANCH   7  24
ATOM     24  O   UNL     1      10.433   3.628  23.634  0.00  0.00    -0.325 OA
BRANCH  24  25
ATOM     25  S   UNL     1       9.537   4.979  23.801  0.00  0.00    +0.251 S 
ATOM     26  O   UNL     1       9.532   5.390  25.184  0.00  0.00    -0.108 OA
ATOM     27  O   UNL     1       8.315   4.819  23.036  0.00  0.00    -0.108 OA
BRANCH  25  28
ATOM     28  O   UNL     1      10.398   6.065  22.974  0.00  0.00    -0.222 OA
ATOM     29  H   UNL     1       9.906   6.913  23.002  0.00  0.00    +0.248 HD
ENDBRANCH  25  28
ENDBRANCH  24  25
ENDBRANCH   7  24
BRANCH  11  30
ATOM     30  O   UNL     1       6.061  -2.868  24.377  0.00  0.00    -0.453 OA
BRANCH  30  31
ATOM     31  C   UNL     1       6.662  -4.093  24.883  0.00  0.00    +0.340 C 
ATOM     32  O   UNL     1       7.125  -4.965  23.847  0.00  0.00    -0.331 OA
ATOM     33  C   UNL     1       6.164  -5.670  23.053  0.00  0.00    +0.179 C 
ATOM     34  C   UNL     1       4.837  -6.106  23.727  0.00  0.00    +0.177 C 
ATOM     35  C   UNL     1       4.523  -5.466  25.093  0.00  0.00    +0.180 C 
ATOM     36  C   UNL     1       5.725  -4.866  25.823  0.00  0.00    +0.214 C 
BRANCH  34  37
ATOM     37  O   UNL     1       4.802  -7.546  23.856  0.00  0.00    -0.386 OA
ATOM     38  H   UNL     1       4.883  -7.766  24.804  0.00  0.00    +0.210 HD
ENDBRANCH  34  37
BRANCH  35  39
ATOM     39  O   UNL     1       3.853  -6.379  25.990  0.00  0.00    -0.386 OA
ATOM     40  H   UNL     1       4.324  -7.230  25.963  0.00  0.00    +0.210 HD
ENDBRANCH  35  39
BRANCH  36  41
ATOM     41  O   UNL     1       5.287  -3.996  26.884  0.00  0.00    -0.383 OA
ATOM     42  H   UNL     1       6.081  -3.539  27.210  0.00  0.00    +0.210 HD
ENDBRANCH  36  41
BRANCH  33  43
ATOM     43  C   UNL     1       5.954  -4.899  21.741  0.00  0.00    +0.190 C 
BRANCH  43  44
ATOM     44  O   UNL     1       5.161  -3.737  21.928  0.00  0.00    -0.392 OA
ATOM     45  H   UNL     1       4.270  -3.962  21.593  0.00  0.00    +0.210 HD
ENDBRANCH  43  44
ENDBRANCH  33  43
ENDBRANCH  30  31
ENDBRANCH  11  30
TORSDOF 14
ENDMDL
MODEL 5
REMARK VINA RESULT:      -6.3      2.943      7.853
REMARK  Name = 
REMARK  15 active torsions:
REMARK  status: ('A' for Active; 'I' for Inactive)
REMARK    1  A    between atoms: C_1  and  O_2
REMARK    2  A    between atoms: O_2  and  C_3
REMARK    3  A    between atoms: C_4  and  O_41
REMARK    4  A    between atoms: C_6  and  C_9
REMARK    5  A    between atoms: C_10  and  O_26
REMARK    6  A    between atoms: C_14  and  O_25
REMARK    7  A    between atoms: C_16  and  O_20
REMARK    8  A    between atoms: O_20  and  S_21
REMARK    9  A    between atoms: S_21  and  O_24
REMARK   10  A    between atoms: O_26  and  C_27
REMARK   11  A    between atoms: C_29  and  O_40
REMARK   12  A    between atoms: C_30  and  O_39
REMARK   13  A    between atoms: C_31  and  O_38
REMARK   14  A    between atoms: C_33  and  C_36
REMARK   15  A    between atoms: C_36  and  O_37
REMARK                            x       y       z     vdW  Elec       q    Type
REMARK                         _______ _______ _______ _____ _____    ______ ____
ROOT
ATOM      1  C   UNL     1       6.339  -2.084  25.460  0.00  0.00    +0.181 A 
ATOM      2  O   UNL     1       5.548  -3.209  25.661  0.00  0.00    -0.451 OA
ATOM      3  C   UNL     1       5.595  -4.249  24.786  0.00  0.00    +0.147 A 
ATOM      4  C   UNL     1       6.429  -4.260  23.687  0.00  0.00    +0.109 A 
ATOM      5  C   UNL     1       6.474  -5.426  22.904  0.00  0.00    +0.135 A 
ATOM      6  C   UNL     1       5.674  -6.543  23.211  0.00  0.00    +0.095 A 
ATOM      7  C   UNL     1       4.801  -6.488  24.286  0.00  0.00    +0.166 A 
ATOM      8  C   UNL     1       7.250  -3.062  23.431  0.00  0.00    +0.238 A 
ATOM      9  O   UNL     1       8.038  -3.110  22.489  0.00  0.00    -0.283 OA
ATOM     10  C   UNL     1       4.768  -5.344  25.090  0.00  0.00    +0.096 A 
ATOM     11  C   UNL     1       7.126  -1.874  24.372  0.00  0.00    +0.214 A 
ENDROOT
BRANCH   1  15
ATOM     12  C   UNL     1       5.804   1.129  28.250  0.00  0.00    +0.161 A 
ATOM     13  C   UNL     1       7.064   0.582  28.028  0.00  0.00    +0.050 A 
ATOM     14  C   UNL     1       7.210  -0.577  27.238  0.00  0.00    +0.015 A 
ATOM     15  C   UNL     1       6.104  -1.212  26.647  0.00  0.00    +0.025 A 
ATOM     16  C   UNL     1       4.828  -0.669  26.899  0.00  0.00    +0.060 A 
ATOM     17  C   UNL     1       4.694   0.480  27.698  0.00  0.00    +0.159 A 
BRANCH  12  19
ATOM     18  C   UNL     1       5.875   3.517  28.317  0.00  0.00    +0.277 C 
ATOM     19  O   UNL     1       5.523   2.283  28.935  0.00  0.00    -0.491 OA
ENDBRANCH  12  19
BRANCH  17  20
ATOM     20  O   UNL     1       3.428   1.016  27.883  0.00  0.00    -0.503 OA
ATOM     21  H   UNL     1       3.036   1.051  26.996  0.00  0.00    +0.292 HD
ENDBRANCH  17  20
ENDBRANCH   1  15
BRANCH   5  22
ATOM     22  O   UNL     1       7.302  -5.556  21.822  0.00  0.00    -0.506 OA
ATOM     23  H   UNL     1       7.619  -6.485  21.783  0.00  0.00    +0.292 HD
ENDBRANCH   5  22
BRANCH   7  24
ATOM     24  O   UNL     1       3.990  -7.516  24.706  0.00  0.00    -0.325 OA
BRANCH  24  25
ATOM     25  S   UNL     1       2.426  -7.611  24.258  0.00  0.00    +0.251 S 
ATOM     26  O   UNL     1       1.665  -6.587  24.933  0.00  0.00    -0.108 OA
ATOM     27  O   UNL     1       2.027  -9.005  24.269  0.00  0.00    -0.108 OA
BRANCH  25  28
ATOM     28  O   UNL     1       2.493  -7.216  22.695  0.00  0.00    -0.222 OA
ATOM     29  H   UNL     1       2.778  -8.014  22.203  0.00  0.00    +0.248 HD
ENDBRANCH  25  28
ENDBRANCH  24  25
ENDBRANCH   7  24
BRANCH  11  30
ATOM     30  O   UNL     1       7.853  -0.683  24.187  0.00  0.00    -0.453 OA
BRANCH  30  31
ATOM     31  C   UNL     1       7.515   0.243  23.117  0.00  0.00    +0.340 C 
ATOM     32  O   UNL     1       8.312   0.063  21.943  0.00  0.00    -0.331 OA
ATOM     33  C   UNL     1       9.685   0.468  21.968  0.00  0.00    +0.179 C 
ATOM     34  C   UNL     1      10.070   1.696  22.834  0.00  0.00    +0.177 C 
ATOM     35  C   UNL     1       9.010   2.175  23.846  0.00  0.00    +0.180 C 
ATOM     36  C   UNL     1       7.582   1.711  23.562  0.00  0.00    +0.214 C 
BRANCH  34  37
ATOM     37  O   UNL     1      10.448   2.801  21.982  0.00  0.00    -0.386 OA
ATOM     38  H   UNL     1      10.041   3.612  22.341  0.00  0.00    +0.210 HD
ENDBRANCH  34  37
BRANCH  35  39
ATOM     39  O   UNL     1       9.003   3.612  23.998  0.00  0.00    -0.386 OA
ATOM     40  H   UNL     1       9.528   3.996  23.274  0.00  0.00    +0.210 HD
ENDBRANCH  35  39
BRANCH  36  41
ATOM     41  O   UNL     1       6.751   1.897  24.725  0.00  0.00    -0.383 OA
ATOM     42  H   UNL     1       6.151   1.133  24.758  0.00  0.00    +0.210 HD
ENDBRANCH  36  41
BRANCH  33  43
ATOM     43  C   UNL     1      10.555  -0.768  22.245  0.00  0.00    +0.190 C 
BRANCH  43  44
ATOM     44  O   UNL     1      10.191  -1.869  21.427  0.00  0.00    -0.392 OA
ATOM     45  H   UNL     1      11.015  -2.372  21.272  0.00  0.00    +0.210 HD
ENDBRANCH  43  44
ENDBRANCH  33  43
ENDBRANCH  30  31
ENDBRANCH  11  30
TORSDOF 14
ENDMDL
MODEL 6
REMARK VINA RESULT:      -6.2      3.435      7.784
REMARK  Name = 
REMARK  15 active torsions:
REMARK  status: ('A' for Active; 'I' for Inactive)
REMARK    1  A    between atoms: C_1  and  O_2
REMARK    2  A    between atoms: O_2  and  C_3
REMARK    3  A    between atoms: C_4  and  O_41
REMARK    4  A    between atoms: C_6  and  C_9
REMARK    5  A    between atoms: C_10  and  O_26
REMARK    6  A    between atoms: C_14  and  O_25
REMARK    7  A    between atoms: C_16  and  O_20
REMARK    8  A    between atoms: O_20  and  S_21
REMARK    9  A    between atoms: S_21  and  O_24
REMARK   10  A    between atoms: O_26  and  C_27
REMARK   11  A    between atoms: C_29  and  O_40
REMARK   12  A    between atoms: C_30  and  O_39
REMARK   13  A    between atoms: C_31  and  O_38
REMARK   14  A    between atoms: C_33  and  C_36
REMARK   15  A    between atoms: C_36  and  O_37
REMARK                            x       y       z     vdW  Elec       q    Type
REMARK                         _______ _______ _______ _____ _____    ______ ____
ROOT
ATOM      1  C   UNL     1       7.279  -0.345  26.068  0.00  0.00    +0.181 A 
ATOM      2  O   UNL     1       6.846  -1.497  26.716  0.00  0.00    -0.451 OA
ATOM      3  C   UNL     1       7.412  -2.700  26.435  0.00  0.00    +0.147 A 
ATOM      4  C   UNL     1       8.444  -2.843  25.530  0.00  0.00    +0.109 A 
ATOM      5  C   UNL     1       9.026  -4.115  25.388  0.00  0.00    +0.135 A 
ATOM      6  C   UNL     1       8.556  -5.219  26.125  0.00  0.00    +0.095 A 
ATOM      7  C   UNL     1       7.481  -5.063  26.986  0.00  0.00    +0.166 A 
ATOM      8  C   UNL     1       8.896  -1.644  24.802  0.00  0.00    +0.238 A 
ATOM      9  O   UNL     1       9.859  -1.771  24.049  0.00  0.00    -0.283 OA
ATOM     10  C   UNL     1       6.912  -3.798  27.157  0.00  0.00    +0.096 A 
ATOM     11  C   UNL     1       8.197  -0.319  25.068  0.00  0.00    +0.214 A 
ENDROOT
BRANCH   1  15
ATOM     12  C   UNL     1       5.217   2.376  28.662  0.00  0.00    +0.161 A 
ATOM     13  C   UNL     1       4.536   1.335  28.037  0.00  0.00    +0.050 A 
ATOM     14  C   UNL     1       5.180   0.547  27.061  0.00  0.00    +0.015 A 
ATOM     15  C   UNL     1       6.517   0.775  26.691  0.00  0.00    +0.025 A 
ATOM     16  C   UNL     1       7.191   1.848  27.308  0.00  0.00    +0.060 A 
ATOM     17  C   UNL     1       6.534   2.635  28.272  0.00  0.00    +0.159 A 
BRANCH  12  19
ATOM     18  C   UNL     1       3.360   3.057  30.006  0.00  0.00    +0.277 C 
ATOM     19  O   UNL     1       4.740   3.174  29.671  0.00  0.00    -0.491 OA
ENDBRANCH  12  19
BRANCH  17  20
ATOM     20  O   UNL     1       7.245   3.650  28.895  0.00  0.00    -0.503 OA
ATOM     21  H   UNL     1       8.164   3.341  28.914  0.00  0.00    +0.292 HD
ENDBRANCH  17  20
ENDBRANCH   1  15
BRANCH   5  22
ATOM     22  O   UNL     1      10.084  -4.353  24.554  0.00  0.00    -0.506 OA
ATOM     23  H   UNL     1       9.898  -5.170  24.041  0.00  0.00    +0.292 HD
ENDBRANCH   5  22
BRANCH   7  24
ATOM     24  O   UNL     1       6.948  -6.051  27.779  0.00  0.00    -0.325 OA
BRANCH  24  25
ATOM     25  S   UNL     1       5.405  -6.549  27.609  0.00  0.00    +0.251 S 
ATOM     26  O   UNL     1       5.163  -6.914  26.234  0.00  0.00    -0.108 OA
ATOM     27  O   UNL     1       4.543  -5.633  28.331  0.00  0.00    -0.108 OA
BRANCH  25  28
ATOM     28  O   UNL     1       5.384  -7.905  28.483  0.00  0.00    -0.222 OA
ATOM     29  H   UNL     1       6.261  -8.331  28.385  0.00  0.00    +0.248 HD
ENDBRANCH  25  28
ENDBRANCH  24  25
ENDBRANCH   7  24
BRANCH  11  30
ATOM     30  O   UNL     1       8.547   0.868  24.398  0.00  0.00    -0.453 OA
BRANCH  30  31
ATOM     31  C   UNL     1       8.342   1.010  22.965  0.00  0.00    +0.340 C 
ATOM     32  O   UNL     1       9.270   1.907  22.348  0.00  0.00    -0.331 OA
ATOM     33  C   UNL     1       9.139   3.313  22.586  0.00  0.00    +0.179 C 
ATOM     34  C   UNL     1       7.714   3.890  22.792  0.00  0.00    +0.177 C 
ATOM     35  C   UNL     1       6.593   2.864  23.047  0.00  0.00    +0.180 C 
ATOM     36  C   UNL     1       6.909   1.433  22.612  0.00  0.00    +0.214 C 
BRANCH  34  37
ATOM     37  O   UNL     1       7.352   4.720  21.665  0.00  0.00    -0.386 OA
ATOM     38  H   UNL     1       8.123   5.277  21.440  0.00  0.00    +0.210 HD
ENDBRANCH  34  37
BRANCH  35  39
ATOM     39  O   UNL     1       5.338   3.257  22.449  0.00  0.00    -0.386 OA
ATOM     40  H   UNL     1       5.460   3.293  21.484  0.00  0.00    +0.210 HD
ENDBRANCH  35  39
BRANCH  36  41
ATOM     41  O   UNL     1       5.977   0.508  23.206  0.00  0.00    -0.383 OA
ATOM     42  H   UNL     1       6.078   0.598  24.169  0.00  0.00    +0.210 HD
ENDBRANCH  36  41
BRANCH  33  43
ATOM     43  C   UNL     1      10.124   3.715  23.695  0.00  0.00    +0.190 C 
BRANCH  43  44
ATOM     44  O   UNL     1      11.149   4.569  23.213  0.00  0.00    -0.392 OA
ATOM     45  H   UNL     1      11.116   5.371  23.772  0.00  0.00    +0.210 HD
ENDBRANCH  43  44
ENDBRANCH  33  43
ENDBRANCH  30  31
ENDBRANCH  11  30
TORSDOF 14
ENDMDL
MODEL 7
REMARK VINA RESULT:      -6.1      3.562      7.923
REMARK  Name = 
REMARK  15 active torsions:
REMARK  status: ('A' for Active; 'I' for Inactive)
REMARK    1  A    between atoms: C_1  and  O_2
REMARK    2  A    between atoms: O_2  and  C_3
REMARK    3  A    between atoms: C_4  and  O_41
REMARK    4  A    between atoms: C_6  and  C_9
REMARK    5  A    between atoms: C_10  and  O_26
REMARK    6  A    between atoms: C_14  and  O_25
REMARK    7  A    between atoms: C_16  and  O_20
REMARK    8  A    between atoms: O_20  and  S_21
REMARK    9  A    between atoms: S_21  and  O_24
REMARK   10  A    between atoms: O_26  and  C_27
REMARK   11  A    between atoms: C_29  and  O_40
REMARK   12  A    between atoms: C_30  and  O_39
REMARK   13  A    between atoms: C_31  and  O_38
REMARK   14  A    between atoms: C_33  and  C_36
REMARK   15  A    between atoms: C_36  and  O_37
REMARK                            x       y       z     vdW  Elec       q    Type
REMARK                         _______ _______ _______ _____ _____    ______ ____
ROOT
ATOM      1  C   UNL     1       6.412  -1.173  26.578  0.00  0.00    +0.181 A 
ATOM      2  O   UNL     1       5.556  -1.974  27.326  0.00  0.00    -0.451 OA
ATOM      3  C   UNL     1       5.791  -3.308  27.447  0.00  0.00    +0.147 A 
ATOM      4  C   UNL     1       6.881  -3.926  26.869  0.00  0.00    +0.109 A 
ATOM      5  C   UNL     1       7.087  -5.291  27.140  0.00  0.00    +0.135 A 
ATOM      6  C   UNL     1       6.195  -6.015  27.953  0.00  0.00    +0.095 A 
ATOM      7  C   UNL     1       5.075  -5.387  28.475  0.00  0.00    +0.166 A 
ATOM      8  C   UNL     1       7.783  -3.105  26.040  0.00  0.00    +0.238 A 
ATOM      9  O   UNL     1       8.786  -3.652  25.587  0.00  0.00    -0.283 OA
ATOM     10  C   UNL     1       4.876  -4.024  28.236  0.00  0.00    +0.096 A 
ATOM     11  C   UNL     1       7.461  -1.631  25.847  0.00  0.00    +0.214 A 
ENDROOT
BRANCH   1  15
ATOM     12  C   UNL     1       4.880   2.575  27.990  0.00  0.00    +0.161 A 
ATOM     13  C   UNL     1       4.018   1.573  27.555  0.00  0.00    +0.050 A 
ATOM     14  C   UNL     1       4.528   0.411  26.940  0.00  0.00    +0.015 A 
ATOM     15  C   UNL     1       5.907   0.220  26.751  0.00  0.00    +0.025 A 
ATOM     16  C   UNL     1       6.773   1.251  27.168  0.00  0.00    +0.060 A 
ATOM     17  C   UNL     1       6.251   2.411  27.770  0.00  0.00    +0.159 A 
BRANCH  12  19
ATOM     18  C   UNL     1       3.281   4.320  28.332  0.00  0.00    +0.277 C 
ATOM     19  O   UNL     1       4.531   3.719  28.662  0.00  0.00    -0.491 OA
ENDBRANCH  12  19
BRANCH  17  20
ATOM     20  O   UNL     1       7.137   3.383  28.214  0.00  0.00    -0.503 OA
ATOM     21  H   UNL     1       7.834   2.896  28.679  0.00  0.00    +0.292 HD
ENDBRANCH  17  20
ENDBRANCH   1  15
BRANCH   5  22
ATOM     22  O   UNL     1       8.161  -5.985  26.656  0.00  0.00    -0.506 OA
ATOM     23  H   UNL     1       8.165  -6.877  27.066  0.00  0.00    +0.292 HD
ENDBRANCH   5  22
BRANCH   7  24
ATOM     24  O   UNL     1       4.147  -5.973  29.303  0.00  0.00    -0.325 OA
BRANCH  24  25
ATOM     25  S   UNL     1       2.718  -6.518  28.739  0.00  0.00    +0.251 S 
ATOM     26  O   UNL     1       2.805  -6.719  27.313  0.00  0.00    -0.108 OA
ATOM     27  O   UNL     1       1.655  -5.741  29.347  0.00  0.00    -0.108 OA
BRANCH  25  28
ATOM     28  O   UNL     1       2.609  -7.972  29.430  0.00  0.00    -0.222 OA
ATOM     29  H   UNL     1       1.677  -8.096  29.708  0.00  0.00    +0.248 HD
ENDBRANCH  25  28
ENDBRANCH  24  25
ENDBRANCH   7  24
BRANCH  11  30
ATOM     30  O   UNL     1       8.253  -0.782  25.052  0.00  0.00    -0.453 OA
BRANCH  30  31
ATOM     31  C   UNL     1       8.391  -1.009  23.621  0.00  0.00    +0.340 C 
ATOM     32  O   UNL     1       9.745  -0.924  23.165  0.00  0.00    -0.331 OA
ATOM     33  C   UNL     1      10.377   0.359  23.104  0.00  0.00    +0.179 C 
ATOM     34  C   UNL     1       9.498   1.593  22.769  0.00  0.00    +0.177 C 
ATOM     35  C   UNL     1       7.973   1.386  22.850  0.00  0.00    +0.180 C 
ATOM     36  C   UNL     1       7.509  -0.070  22.786  0.00  0.00    +0.214 C 
BRANCH  34  37
ATOM     37  O   UNL     1       9.841   2.099  21.458  0.00  0.00    -0.386 OA
ATOM     38  H   UNL     1       9.420   1.522  20.793  0.00  0.00    +0.210 HD
ENDBRANCH  34  37
BRANCH  35  39
ATOM     39  O   UNL     1       7.260   2.138  21.844  0.00  0.00    -0.386 OA
ATOM     40  H   UNL     1       7.726   2.981  21.709  0.00  0.00    +0.210 HD
ENDBRANCH  35  39
BRANCH  36  41
ATOM     41  O   UNL     1       6.141  -0.182  23.224  0.00  0.00    -0.383 OA
ATOM     42  H   UNL     1       5.703  -0.787  22.603  0.00  0.00    +0.210 HD
ENDBRANCH  36  41
BRANCH  33  43
ATOM     43  C   UNL     1      11.228   0.546  24.370  0.00  0.00    +0.190 C 
BRANCH  43  44
ATOM     44  O   UNL     1      10.427   0.744  25.525  0.00  0.00    -0.392 OA
ATOM     45  H   UNL     1      10.577  -0.038  26.093  0.00  0.00    +0.210 HD
ENDBRANCH  43  44
ENDBRANCH  33  43
ENDBRANCH  30  31
ENDBRANCH  11  30
TORSDOF 14
ENDMDL
MODEL 8
REMARK VINA RESULT:      -6.1      0.962      1.966
REMARK  Name = 
REMARK  15 active torsions:
REMARK  status: ('A' for Active; 'I' for Inactive)
REMARK    1  A    between atoms: C_1  and  O_2
REMARK    2  A    between atoms: O_2  and  C_3
REMARK    3  A    between atoms: C_4  and  O_41
REMARK    4  A    between atoms: C_6  and  C_9
REMARK    5  A    between atoms: C_10  and  O_26
REMARK    6  A    between atoms: C_14  and  O_25
REMARK    7  A    between atoms: C_16  and  O_20
REMARK    8  A    between atoms: O_20  and  S_21
REMARK    9  A    between atoms: S_21  and  O_24
REMARK   10  A    between atoms: O_26  and  C_27
REMARK   11  A    between atoms: C_29  and  O_40
REMARK   12  A    between atoms: C_30  and  O_39
REMARK   13  A    between atoms: C_31  and  O_38
REMARK   14  A    between atoms: C_33  and  C_36
REMARK   15  A    between atoms: C_36  and  O_37
REMARK                            x       y       z     vdW  Elec       q    Type
REMARK                         _______ _______ _______ _____ _____    ______ ____
ROOT
ATOM      1  C   UNL     1       6.565  -1.104  25.331  0.00  0.00    +0.181 A 
ATOM      2  O   UNL     1       7.311   0.069  25.363  0.00  0.00    -0.451 OA
ATOM      3  C   UNL     1       8.191   0.353  24.366  0.00  0.00    +0.147 A 
ATOM      4  C   UNL     1       8.372  -0.475  23.276  0.00  0.00    +0.109 A 
ATOM      5  C   UNL     1       9.231  -0.039  22.252  0.00  0.00    +0.135 A 
ATOM      6  C   UNL     1       9.909   1.192  22.343  0.00  0.00    +0.095 A 
ATOM      7  C   UNL     1       9.756   1.979  23.473  0.00  0.00    +0.166 A 
ATOM      8  C   UNL     1       7.621  -1.742  23.239  0.00  0.00    +0.238 A 
ATOM      9  O   UNL     1       7.740  -2.438  22.233  0.00  0.00    -0.283 OA
ATOM     10  C   UNL     1       8.882   1.570  24.485  0.00  0.00    +0.096 A 
ATOM     11  C   UNL     1       6.702  -2.085  24.401  0.00  0.00    +0.214 A 
ENDROOT
BRANCH   1  15
ATOM     12  C   UNL     1       3.292  -1.206  28.100  0.00  0.00    +0.161 A 
ATOM     13  C   UNL     1       3.555  -0.062  27.352  0.00  0.00    +0.050 A 
ATOM     14  C   UNL     1       4.725   0.024  26.569  0.00  0.00    +0.015 A 
ATOM     15  C   UNL     1       5.654  -1.029  26.510  0.00  0.00    +0.025 A 
ATOM     16  C   UNL     1       5.394  -2.173  27.291  0.00  0.00    +0.060 A 
ATOM     17  C   UNL     1       4.230  -2.243  28.078  0.00  0.00    +0.159 A 
BRANCH  12  19
ATOM     18  C   UNL     1       0.961  -1.736  28.145  0.00  0.00    +0.277 C 
ATOM     19  O   UNL     1       2.168  -1.453  28.847  0.00  0.00    -0.491 OA
ENDBRANCH  12  19
BRANCH  17  20
ATOM     20  O   UNL     1       3.982  -3.405  28.794  0.00  0.00    -0.503 OA
ATOM     21  H   UNL     1       3.427  -3.948  28.213  0.00  0.00    +0.292 HD
ENDBRANCH  17  20
ENDBRANCH   1  15
BRANCH   5  22
ATOM     22  O   UNL     1       9.443  -0.762  21.110  0.00  0.00    -0.506 OA
ATOM     23  H   UNL     1      10.004  -1.537  21.333  0.00  0.00    +0.292 HD
ENDBRANCH   5  22
BRANCH   7  24
ATOM     24  O   UNL     1      10.338   3.209  23.671  0.00  0.00    -0.325 OA
BRANCH  24  25
ATOM     25  S   UNL     1       9.453   4.576  23.734  0.00  0.00    +0.251 S 
ATOM     26  O   UNL     1       9.319   5.003  25.106  0.00  0.00    -0.108 OA
ATOM     27  O   UNL     1       8.310   4.427  22.854  0.00  0.00    -0.108 OA
BRANCH  25  28
ATOM     28  O   UNL     1      10.410   5.638  22.985  0.00  0.00    -0.222 OA
ATOM     29  H   UNL     1      11.251   5.681  23.487  0.00  0.00    +0.248 HD
ENDBRANCH  25  28
ENDBRANCH  24  25
ENDBRANCH   7  24
BRANCH  11  30
ATOM     30  O   UNL     1       5.968  -3.284  24.458  0.00  0.00    -0.453 OA
BRANCH  30  31
ATOM     31  C   UNL     1       6.622  -4.572  24.280  0.00  0.00    +0.340 C 
ATOM     32  O   UNL     1       5.899  -5.457  23.419  0.00  0.00    -0.331 OA
ATOM     33  C   UNL     1       4.685  -6.049  23.893  0.00  0.00    +0.179 C 
ATOM     34  C   UNL     1       4.573  -6.376  25.406  0.00  0.00    +0.177 C 
ATOM     35  C   UNL     1       5.639  -5.743  26.321  0.00  0.00    +0.180 C 
ATOM     36  C   UNL     1       6.911  -5.277  25.613  0.00  0.00    +0.214 C 
BRANCH  34  37
ATOM     37  O   UNL     1       4.568  -7.809  25.600  0.00  0.00    -0.386 OA
ATOM     38  H   UNL     1       4.415  -8.230  24.732  0.00  0.00    +0.210 HD
ENDBRANCH  34  37
BRANCH  35  39
ATOM     39  O   UNL     1       6.015  -6.612  27.413  0.00  0.00    -0.386 OA
ATOM     40  H   UNL     1       6.945  -6.432  27.637  0.00  0.00    +0.210 HD
ENDBRANCH  35  39
BRANCH  36  41
ATOM     41  O   UNL     1       7.668  -4.396  26.466  0.00  0.00    -0.383 OA
ATOM     42  H   UNL     1       7.760  -4.853  27.319  0.00  0.00    +0.210 HD
ENDBRANCH  36  41
BRANCH  33  43
ATOM     43  C   UNL     1       3.500  -5.229  23.360  0.00  0.00    +0.190 C 
BRANCH  43  44
ATOM     44  O   UNL     1       3.138  -4.180  24.244  0.00  0.00    -0.392 OA
ATOM     45  H   UNL     1       2.769  -3.469  23.682  0.00  0.00    +0.210 HD
ENDBRANCH  43  44
ENDBRANCH  33  43
ENDBRANCH  30  31
ENDBRANCH  11  30
TORSDOF 14
ENDMDL
MODEL 9
REMARK VINA RESULT:      -5.9      2.398      5.626
REMARK  Name = 
REMARK  15 active torsions:
REMARK  status: ('A' for Active; 'I' for Inactive)
REMARK    1  A    between atoms: C_1  and  O_2
REMARK    2  A    between atoms: O_2  and  C_3
REMARK    3  A    between atoms: C_4  and  O_41
REMARK    4  A    between atoms: C_6  and  C_9
REMARK    5  A    between atoms: C_10  and  O_26
REMARK    6  A    between atoms: C_14  and  O_25
REMARK    7  A    between atoms: C_16  and  O_20
REMARK    8  A    between atoms: O_20  and  S_21
REMARK    9  A    between atoms: S_21  and  O_24
REMARK   10  A    between atoms: O_26  and  C_27
REMARK   11  A    between atoms: C_29  and  O_40
REMARK   12  A    between atoms: C_30  and  O_39
REMARK   13  A    between atoms: C_31  and  O_38
REMARK   14  A    between atoms: C_33  and  C_36
REMARK   15  A    between atoms: C_36  and  O_37
REMARK                            x       y       z     vdW  Elec       q    Type
REMARK                         _______ _______ _______ _____ _____    ______ ____
ROOT
ATOM      1  C   UNL     1       8.168   0.845  24.539  0.00  0.00    +0.181 A 
ATOM      2  O   UNL     1       9.021   1.722  23.877  0.00  0.00    -0.451 OA
ATOM      3  C   UNL     1       9.040   3.042  24.202  0.00  0.00    +0.147 A 
ATOM      4  C   UNL     1       8.251   3.573  25.202  0.00  0.00    +0.109 A 
ATOM      5  C   UNL     1       8.421   4.930  25.528  0.00  0.00    +0.135 A 
ATOM      6  C   UNL     1       9.348   5.734  24.838  0.00  0.00    +0.095 A 
ATOM      7  C   UNL     1      10.088   5.193  23.799  0.00  0.00    +0.166 A 
ATOM      8  C   UNL     1       7.310   2.671  25.893  0.00  0.00    +0.238 A 
ATOM      9  O   UNL     1       6.662   3.140  26.826  0.00  0.00    -0.283 OA
ATOM     10  C   UNL     1       9.949   3.838  23.486  0.00  0.00    +0.096 A 
ATOM     11  C   UNL     1       7.242   1.214  25.462  0.00  0.00    +0.214 A 
ENDROOT
BRANCH   1  15
ATOM     12  C   UNL     1       8.477  -3.340  23.656  0.00  0.00    +0.161 A 
ATOM     13  C   UNL     1       9.323  -2.745  24.587  0.00  0.00    +0.050 A 
ATOM     14  C   UNL     1       9.330  -1.344  24.753  0.00  0.00    +0.015 A 
ATOM     15  C   UNL     1       8.489  -0.508  23.999  0.00  0.00    +0.025 A 
ATOM     16  C   UNL     1       7.655  -1.114  23.038  0.00  0.00    +0.060 A 
ATOM     17  C   UNL     1       7.666  -2.512  22.874  0.00  0.00    +0.159 A 
BRANCH  12  19
ATOM     18  C   UNL     1       8.571  -5.562  24.532  0.00  0.00    +0.277 C 
ATOM     19  O   UNL     1       8.318  -4.685  23.439  0.00  0.00    -0.491 OA
ENDBRANCH  12  19
BRANCH  17  20
ATOM     20  O   UNL     1       6.795  -3.078  21.954  0.00  0.00    -0.503 OA
ATOM     21  H   UNL     1       6.646  -2.389  21.289  0.00  0.00    +0.292 HD
ENDBRANCH  17  20
ENDBRANCH   1  15
BRANCH   5  22
ATOM     22  O   UNL     1       7.722   5.541  26.533  0.00  0.00    -0.506 OA
ATOM     23  H   UNL     1       7.215   4.855  27.019  0.00  0.00    +0.292 HD
ENDBRANCH   5  22
BRANCH   7  24
ATOM     24  O   UNL     1      11.042   5.863  23.069  0.00  0.00    -0.325 OA
BRANCH  24  25
ATOM     25  S   UNL     1      12.634   5.576  23.271  0.00  0.00    +0.251 S 
ATOM     26  O   UNL     1      13.379   6.219  22.216  0.00  0.00    -0.108 OA
ATOM     27  O   UNL     1      12.812   4.176  23.603  0.00  0.00    -0.108 OA
BRANCH  25  28
ATOM     28  O   UNL     1      12.952   6.365  24.643  0.00  0.00    -0.222 OA
ATOM     29  H   UNL     1      12.095   6.650  25.024  0.00  0.00    +0.248 HD
ENDBRANCH  25  28
ENDBRANCH  24  25
ENDBRANCH   7  24
BRANCH  11  30
ATOM     30  O   UNL     1       6.356   0.292  26.049  0.00  0.00    -0.453 OA
BRANCH  30  31
ATOM     31  C   UNL     1       6.687  -0.375  27.299  0.00  0.00    +0.340 C 
ATOM     32  O   UNL     1       6.803  -1.795  27.167  0.00  0.00    -0.331 OA
ATOM     33  C   UNL     1       5.617  -2.573  26.973  0.00  0.00    +0.179 C 
ATOM     34  C   UNL     1       4.305  -2.086  27.643  0.00  0.00    +0.177 C 
ATOM     35  C   UNL     1       4.311  -0.644  28.186  0.00  0.00    +0.180 C 
ATOM     36  C   UNL     1       5.697  -0.044  28.425  0.00  0.00    +0.214 C 
BRANCH  34  37
ATOM     37  O   UNL     1       3.929  -2.993  28.705  0.00  0.00    -0.386 OA
ATOM     38  H   UNL     1       4.536  -2.847  29.456  0.00  0.00    +0.210 HD
ENDBRANCH  34  37
BRANCH  35  39
ATOM     39  O   UNL     1       3.538  -0.507  29.399  0.00  0.00    -0.386 OA
ATOM     40  H   UNL     1       4.146  -0.586  30.156  0.00  0.00    +0.210 HD
ENDBRANCH  35  39
BRANCH  36  41
ATOM     41  O   UNL     1       5.607   1.386  28.579  0.00  0.00    -0.383 OA
ATOM     42  H   UNL     1       5.023   1.544  29.340  0.00  0.00    +0.210 HD
ENDBRANCH  36  41
BRANCH  33  43
ATOM     43  C   UNL     1       5.461  -2.862  25.472  0.00  0.00    +0.190 C 
BRANCH  43  44
ATOM     44  O   UNL     1       4.744  -1.836  24.805  0.00  0.00    -0.392 OA
ATOM     45  H   UNL     1       4.711  -2.100  23.863  0.00  0.00    +0.210 HD
ENDBRANCH  43  44
ENDBRANCH  33  43
ENDBRANCH  30  31
ENDBRANCH  11  30
TORSDOF 14
ENDMDL
