MODEL 1
REMARK VINA RESULT:      -5.9      0.000      0.000
REMARK  Name = 
REMARK  30 active torsions:
REMARK  status: ('A' for Active; 'I' for Inactive)
REMARK    1  A    between atoms: C_1  and  O_2
REMARK    2  A    between atoms: O_2  and  C_3
REMARK    3  A    between atoms: C_4  and  O_77
REMARK    4  A    between atoms: C_7  and  C_9
REMARK    5  A    between atoms: C_10  and  C_11
REMARK    6  A    between atoms: C_11  and  O_13
REMARK    7  A    between atoms: O_13  and  C_14
REMARK    8  A    between atoms: C_14  and  C_15
REMARK    9  A    between atoms: C_16  and  O_76
REMARK   10  A    between atoms: C_18  and  O_75
REMARK   11  A    between atoms: C_20  and  O_74
REMARK   12  A    between atoms: C_21  and  O_24
REMARK   13  A    between atoms: O_24  and  C_25
REMARK   14  A    between atoms: C_26  and  O_73
REMARK   15  A    between atoms: C_28  and  O_72
REMARK   16  A    between atoms: C_30  and  C_70
REMARK   17  A    between atoms: C_32  and  O_34
REMARK   18  A    between atoms: O_34  and  C_35
REMARK   19  A    between atoms: C_36  and  O_69
REMARK   20  A    between atoms: C_38  and  O_68
REMARK   21  A    between atoms: C_40  and  C_66
REMARK   22  A    between atoms: C_42  and  O_44
REMARK   23  A    between atoms: O_44  and  C_45
REMARK   24  A    between atoms: C_46  and  C_58
REMARK   25  A    between atoms: C_50  and  O_57
REMARK   26  A    between atoms: C_52  and  O_56
REMARK   27  A    between atoms: C_60  and  O_65
REMARK   28  A    between atoms: C_61  and  O_64
REMARK   29  A    between atoms: C_66  and  O_67
REMARK   30  A    between atoms: C_70  and  O_71
REMARK                            x       y       z     vdW  Elec       q    Type
REMARK                         _______ _______ _______ _____ _____    ______ ____
ROOT
ATOM      1  C   UNL     1       3.304  -0.844  27.110  0.00  0.00    +0.208 C 
ATOM      2  C   UNL     1       4.148   0.352  26.492  0.00  0.00    +0.283 C 
ATOM      3  O   UNL     1       4.960   0.995  27.519  0.00  0.00    -0.341 OA
ATOM      4  C   UNL     1       4.327   1.362  28.785  0.00  0.00    +0.178 C 
ATOM      5  C   UNL     1       3.624   0.153  29.401  0.00  0.00    +0.177 C 
ATOM      6  C   UNL     1       2.577  -0.262  28.353  0.00  0.00    +0.179 C 
ENDROOT
BRANCH   5   7
ATOM      7  O   UNL     1       4.585  -0.854  29.741  0.00  0.00    -0.386 OA
ATOM      8  H   UNL     1       4.116  -1.691  29.931  0.00  0.00    +0.210 HD
ENDBRANCH   5   7
BRANCH   6   9
ATOM      9  O   UNL     1       1.500  -0.974  28.962  0.00  0.00    -0.386 OA
ATOM     10  H   UNL     1       0.681  -0.460  28.851  0.00  0.00    +0.210 HD
ENDBRANCH   6   9
BRANCH   4  11
ATOM     11  C   UNL     1       3.297   2.532  28.776  0.00  0.00    +0.190 C 
BRANCH  11  12
ATOM     12  O   UNL     1       3.456   3.444  29.841  0.00  0.00    -0.392 OA
ATOM     13  H   UNL     1       3.624   4.318  29.457  0.00  0.00    +0.210 HD
ENDBRANCH  11  12
ENDBRANCH   4  11
BRANCH   2  14
ATOM     14  O   UNL     1       4.943   0.086  25.288  0.00  0.00    -0.337 OA
BRANCH  14  15
ATOM     15  C   UNL     1       6.352   0.484  25.190  0.00  0.00    +0.221 C 
ATOM     16  C   UNL     1       6.820   1.209  23.827  0.00  0.00    +0.340 C 
ATOM     17  O   UNL     1       7.473   0.426  22.802  0.00  0.00    -0.331 OA
ATOM     18  C   UNL     1       8.428  -0.580  23.174  0.00  0.00    +0.179 C 
ATOM     19  C   UNL     1       7.994  -1.429  24.392  0.00  0.00    +0.177 C 
ATOM     20  C   UNL     1       7.453  -0.556  25.545  0.00  0.00    +0.180 C 
BRANCH  19  21
ATOM     21  O   UNL     1       9.133  -2.174  24.888  0.00  0.00    -0.386 OA
ATOM     22  H   UNL     1       9.001  -3.112  24.660  0.00  0.00    +0.210 HD
ENDBRANCH  19  21
BRANCH  20  23
ATOM     23  O   UNL     1       7.084  -1.350  26.685  0.00  0.00    -0.386 OA
ATOM     24  H   UNL     1       7.911  -1.748  27.016  0.00  0.00    +0.210 HD
ENDBRANCH  20  23
BRANCH  18  25
ATOM     25  C   UNL     1       9.871  -0.014  23.270  0.00  0.00    +0.190 C 
BRANCH  25  26
ATOM     26  O   UNL     1      10.193   0.845  22.172  0.00  0.00    -0.392 OA
ATOM     27  H   UNL     1      10.029   0.351  21.349  0.00  0.00    +0.210 HD
ENDBRANCH  25  26
ENDBRANCH  18  25
BRANCH  16  28
ATOM     28  O   UNL     1       5.891   2.236  23.308  0.00  0.00    -0.453 OA
BRANCH  28  29
ATOM     29  C   UNL     1       5.479   3.298  24.118  0.00  0.00    +0.214 A 
ATOM     30  C   UNL     1       4.001   3.394  24.475  0.00  0.00    +0.238 A 
ATOM     31  O   UNL     1       3.153   2.609  24.065  0.00  0.00    -0.283 OA
ATOM     32  C   UNL     1       3.539   4.401  25.411  0.00  0.00    +0.109 A 
ATOM     33  C   UNL     1       4.502   5.168  26.034  0.00  0.00    +0.147 A 
ATOM     34  C   UNL     1       4.094   5.975  27.117  0.00  0.00    +0.092 A 
ATOM     35  C   UNL     1       2.744   6.019  27.519  0.00  0.00    +0.124 A 
ATOM     36  C   UNL     1       1.773   5.310  26.834  0.00  0.00    +0.091 A 
ATOM     37  O   UNL     1       5.827   5.174  25.622  0.00  0.00    -0.451 OA
ATOM     38  C   UNL     1       2.171   4.504  25.778  0.00  0.00    +0.135 A 
ATOM     39  C   UNL     1       6.323   4.260  24.621  0.00  0.00    +0.181 A 
BRANCH  39  40
ATOM     40  C   UNL     1       7.875   4.556  24.317  0.00  0.00    +0.025 A 
ATOM     41  C   UNL     1       8.296   5.921  24.295  0.00  0.00    +0.015 A 
ATOM     42  C   UNL     1       9.619   6.357  24.012  0.00  0.00    +0.050 A 
ATOM     43  C   UNL     1      10.608   5.441  23.735  0.00  0.00    +0.158 A 
ATOM     44  C   UNL     1      10.278   4.091  23.721  0.00  0.00    +0.159 A 
ATOM     45  C   UNL     1       8.935   3.643  24.000  0.00  0.00    +0.060 A 
BRANCH  44  46
ATOM     46  O   UNL     1      11.334   3.258  23.419  0.00  0.00    -0.503 OA
ATOM     47  H   UNL     1      11.600   3.369  22.494  0.00  0.00    +0.292 HD
ENDBRANCH  44  46
BRANCH  43  48
ATOM     48  O   UNL     1      11.876   5.892  23.474  0.00  0.00    -0.503 OA
ATOM     49  H   UNL     1      11.796   6.569  22.773  0.00  0.00    +0.292 HD
ENDBRANCH  43  48
ENDBRANCH  39  40
BRANCH  38  50
ATOM     50  O   UNL     1       1.176   3.828  25.105  0.00  0.00    -0.506 OA
ATOM     51  H   UNL     1       0.689   4.460  24.562  0.00  0.00    +0.292 HD
ENDBRANCH  38  50
BRANCH  35  52
ATOM     52  O   UNL     1       2.288   6.743  28.584  0.00  0.00    -0.507 OA
ATOM     53  H   UNL     1       2.614   7.655  28.548  0.00  0.00    +0.292 HD
ENDBRANCH  35  52
ENDBRANCH  28  29
ENDBRANCH  16  28
ENDBRANCH  14  15
ENDBRANCH   2  14
BRANCH   1  54
ATOM     54  O   UNL     1       3.993  -2.095  27.459  0.00  0.00    -0.338 OA
BRANCH  54  57
ATOM     55  C   UNL     1       1.176  -4.213  26.182  0.00  0.00    +0.190 C 
ATOM     56  O   UNL     1       1.771  -3.089  26.923  0.00  0.00    -0.339 OA
ATOM     57  C   UNL     1       3.192  -3.228  26.999  0.00  0.00    +0.282 C 
ATOM     58  C   UNL     1       3.633  -4.463  27.790  0.00  0.00    +0.201 C 
ATOM     59  C   UNL     1       2.942  -5.725  27.327  0.00  0.00    +0.179 C 
ATOM     60  C   UNL     1       1.464  -5.517  26.978  0.00  0.00    +0.178 C 
BRANCH  58  61
ATOM     61  O   UNL     1       3.462  -4.258  29.206  0.00  0.00    -0.384 OA
ATOM     62  H   UNL     1       4.347  -4.017  29.552  0.00  0.00    +0.210 HD
ENDBRANCH  58  61
BRANCH  59  63
ATOM     63  O   UNL     1       3.103  -6.704  28.371  0.00  0.00    -0.386 OA
ATOM     64  H   UNL     1       3.879  -7.243  28.101  0.00  0.00    +0.210 HD
ENDBRANCH  59  63
BRANCH  60  65
ATOM     65  O   UNL     1       1.019  -6.669  26.259  0.00  0.00    -0.386 OA
ATOM     66  H   UNL     1       0.300  -6.392  25.684  0.00  0.00    +0.210 HD
ENDBRANCH  60  65
BRANCH  55  67
ATOM     67  C   UNL     1       1.488  -4.339  24.636  0.00  0.00    +0.266 C 
BRANCH  67  68
ATOM     68  O   UNL     1       0.695  -5.350  23.945  0.00  0.00    -0.459 OA
BRANCH  68  69
ATOM     69  C   UNL     1       1.363  -6.119  23.042  0.00  0.00    +0.332 C 
ATOM     70  O   UNL     1       0.868  -6.596  22.034  0.00  0.00    -0.246 OA
BRANCH  69  72
ATOM     71  C   UNL     1       3.746  -5.503  22.985  0.00  0.00    +0.015 C 
ATOM     72  C   UNL     1       2.782  -6.330  23.444  0.00  0.00    +0.092 C 
BRANCH  71  75
ATOM     73  C   UNL     1       6.999  -4.922  24.892  0.00  0.00    +0.162 A 
ATOM     74  C   UNL     1       5.640  -5.070  24.622  0.00  0.00    +0.057 A 
ATOM     75  C   UNL     1       5.183  -5.495  23.353  0.00  0.00    -0.021 A 
ATOM     76  C   UNL     1       6.147  -5.779  22.367  0.00  0.00    +0.012 A 
ATOM     77  C   UNL     1       7.513  -5.642  22.629  0.00  0.00    +0.050 A 
ATOM     78  C   UNL     1       7.922  -5.207  23.883  0.00  0.00    +0.158 A 
BRANCH  78  79
ATOM     79  O   UNL     1       9.268  -5.038  24.110  0.00  0.00    -0.503 OA
ATOM     80  H   UNL     1       9.317  -4.406  24.853  0.00  0.00    +0.292 HD
ENDBRANCH  78  79
BRANCH  73  82
ATOM     81  C   UNL     1       7.275  -5.266  27.223  0.00  0.00    +0.277 C 
ATOM     82  O   UNL     1       7.550  -4.483  26.068  0.00  0.00    -0.491 OA
ENDBRANCH  73  82
ENDBRANCH  71  75
ENDBRANCH  69  72
ENDBRANCH  68  69
ENDBRANCH  67  68
ENDBRANCH  55  67
ENDBRANCH  54  57
ENDBRANCH   1  54
TORSDOF 29
ENDMDL
MODEL 2
REMARK VINA RESULT:      -5.5      1.742      3.706
REMARK  Name = 
REMARK  30 active torsions:
REMARK  status: ('A' for Active; 'I' for Inactive)
REMARK    1  A    between atoms: C_1  and  O_2
REMARK    2  A    between atoms: O_2  and  C_3
REMARK    3  A    between atoms: C_4  and  O_77
REMARK    4  A    between atoms: C_7  and  C_9
REMARK    5  A    between atoms: C_10  and  C_11
REMARK    6  A    between atoms: C_11  and  O_13
REMARK    7  A    between atoms: O_13  and  C_14
REMARK    8  A    between atoms: C_14  and  C_15
REMARK    9  A    between atoms: C_16  and  O_76
REMARK   10  A    between atoms: C_18  and  O_75
REMARK   11  A    between atoms: C_20  and  O_74
REMARK   12  A    between atoms: C_21  and  O_24
REMARK   13  A    between atoms: O_24  and  C_25
REMARK   14  A    between atoms: C_26  and  O_73
REMARK   15  A    between atoms: C_28  and  O_72
REMARK   16  A    between atoms: C_30  and  C_70
REMARK   17  A    between atoms: C_32  and  O_34
REMARK   18  A    between atoms: O_34  and  C_35
REMARK   19  A    between atoms: C_36  and  O_69
REMARK   20  A    between atoms: C_38  and  O_68
REMARK   21  A    between atoms: C_40  and  C_66
REMARK   22  A    between atoms: C_42  and  O_44
REMARK   23  A    between atoms: O_44  and  C_45
REMARK   24  A    between atoms: C_46  and  C_58
REMARK   25  A    between atoms: C_50  and  O_57
REMARK   26  A    between atoms: C_52  and  O_56
REMARK   27  A    between atoms: C_60  and  O_65
REMARK   28  A    between atoms: C_61  and  O_64
REMARK   29  A    between atoms: C_66  and  O_67
REMARK   30  A    between atoms: C_70  and  O_71
REMARK                            x       y       z     vdW  Elec       q    Type
REMARK                         _______ _______ _______ _____ _____    ______ ____
ROOT
ATOM      1  C   UNL     1       4.449  -0.207  26.331  0.00  0.00    +0.208 C 
ATOM      2  C   UNL     1       4.913   1.215  25.796  0.00  0.00    +0.283 C 
ATOM      3  O   UNL     1       5.564   1.977  26.855  0.00  0.00    -0.341 OA
ATOM      4  C   UNL     1       4.911   2.063  28.160  0.00  0.00    +0.178 C 
ATOM      5  C   UNL     1       4.586   0.666  28.689  0.00  0.00    +0.177 C 
ATOM      6  C   UNL     1       3.646   0.062  27.632  0.00  0.00    +0.179 C 
ENDROOT
BRANCH   5   7
ATOM      7  O   UNL     1       5.797  -0.063  28.924  0.00  0.00    -0.386 OA
ATOM      8  H   UNL     1       5.786  -0.413  29.838  0.00  0.00    +0.210 HD
ENDBRANCH   5   7
BRANCH   6   9
ATOM      9  O   UNL     1       2.828  -0.960  28.203  0.00  0.00    -0.386 OA
ATOM     10  H   UNL     1       3.115  -1.117  29.120  0.00  0.00    +0.210 HD
ENDBRANCH   6   9
BRANCH   4  11
ATOM     11  C   UNL     1       3.604   2.907  28.270  0.00  0.00    +0.190 C 
BRANCH  11  12
ATOM     12  O   UNL     1       3.075   2.977  29.576  0.00  0.00    -0.392 OA
ATOM     13  H   UNL     1       2.142   3.229  29.502  0.00  0.00    +0.210 HD
ENDBRANCH  11  12
ENDBRANCH   4  11
BRANCH   2  14
ATOM     14  O   UNL     1       5.698   1.266  24.557  0.00  0.00    -0.337 OA
BRANCH  14  15
ATOM     15  C   UNL     1       7.097   1.708  24.548  0.00  0.00    +0.221 C 
ATOM     16  C   UNL     1       7.538   2.734  23.384  0.00  0.00    +0.340 C 
ATOM     17  O   UNL     1       8.200   2.219  22.206  0.00  0.00    -0.331 OA
ATOM     18  C   UNL     1       9.179   1.177  22.337  0.00  0.00    +0.179 C 
ATOM     19  C   UNL     1       8.774   0.065  23.332  0.00  0.00    +0.177 C 
ATOM     20  C   UNL     1       8.223   0.641  24.654  0.00  0.00    +0.180 C 
BRANCH  19  21
ATOM     21  O   UNL     1       9.932  -0.747  23.642  0.00  0.00    -0.386 OA
ATOM     22  H   UNL     1       9.667  -1.409  24.306  0.00  0.00    +0.210 HD
ENDBRANCH  19  21
BRANCH  20  23
ATOM     23  O   UNL     1       7.881  -0.399  25.586  0.00  0.00    -0.386 OA
ATOM     24  H   UNL     1       8.348  -0.184  26.415  0.00  0.00    +0.210 HD
ENDBRANCH  20  23
BRANCH  18  25
ATOM     25  C   UNL     1      10.610   1.740  22.554  0.00  0.00    +0.190 C 
BRANCH  25  26
ATOM     26  O   UNL     1      10.918   2.807  21.652  0.00  0.00    -0.392 OA
ATOM     27  H   UNL     1      11.353   2.420  20.872  0.00  0.00    +0.210 HD
ENDBRANCH  25  26
ENDBRANCH  18  25
BRANCH  16  28
ATOM     28  O   UNL     1       6.582   3.830  23.114  0.00  0.00    -0.453 OA
BRANCH  28  29
ATOM     29  C   UNL     1       6.169   4.683  24.141  0.00  0.00    +0.214 A 
ATOM     30  C   UNL     1       4.678   4.770  24.443  0.00  0.00    +0.238 A 
ATOM     31  O   UNL     1       3.823   4.157  23.814  0.00  0.00    -0.283 OA
ATOM     32  C   UNL     1       4.206   5.543  25.576  0.00  0.00    +0.109 A 
ATOM     33  C   UNL     1       5.163   6.080  26.412  0.00  0.00    +0.147 A 
ATOM     34  C   UNL     1       4.728   6.620  27.641  0.00  0.00    +0.092 A 
ATOM     35  C   UNL     1       3.359   6.639  27.979  0.00  0.00    +0.124 A 
ATOM     36  C   UNL     1       2.400   6.173  27.097  0.00  0.00    +0.091 A 
ATOM     37  O   UNL     1       6.509   6.113  26.075  0.00  0.00    -0.451 OA
ATOM     38  C   UNL     1       2.825   5.629  25.894  0.00  0.00    +0.135 A 
ATOM     39  C   UNL     1       7.023   5.446  24.904  0.00  0.00    +0.181 A 
BRANCH  39  40
ATOM     40  C   UNL     1       8.601   5.720  24.754  0.00  0.00    +0.025 A 
ATOM     41  C   UNL     1       9.249   6.439  25.804  0.00  0.00    +0.015 A 
ATOM     42  C   UNL     1      10.626   6.792  25.816  0.00  0.00    +0.050 A 
ATOM     43  C   UNL     1      11.442   6.440  24.764  0.00  0.00    +0.158 A 
ATOM     44  C   UNL     1      10.886   5.753  23.693  0.00  0.00    +0.159 A 
ATOM     45  C   UNL     1       9.487   5.398  23.673  0.00  0.00    +0.060 A 
BRANCH  44  46
ATOM     46  O   UNL     1      11.781   5.460  22.687  0.00  0.00    -0.503 OA
ATOM     47  H   UNL     1      12.674   5.747  22.932  0.00  0.00    +0.292 HD
ENDBRANCH  44  46
BRANCH  43  48
ATOM     48  O   UNL     1      12.767   6.789  24.807  0.00  0.00    -0.503 OA
ATOM     49  H   UNL     1      12.824   7.721  24.514  0.00  0.00    +0.292 HD
ENDBRANCH  43  48
ENDBRANCH  39  40
BRANCH  38  50
ATOM     50  O   UNL     1       1.842   5.193  25.031  0.00  0.00    -0.506 OA
ATOM     51  H   UNL     1       1.399   5.965  24.656  0.00  0.00    +0.292 HD
ENDBRANCH  38  50
BRANCH  35  52
ATOM     52  O   UNL     1       2.873   7.106  29.168  0.00  0.00    -0.507 OA
ATOM     53  H   UNL     1       3.156   8.020  29.323  0.00  0.00    +0.292 HD
ENDBRANCH  35  52
ENDBRANCH  28  29
ENDBRANCH  16  28
ENDBRANCH  14  15
ENDBRANCH   2  14
BRANCH   1  54
ATOM     54  O   UNL     1       5.465  -1.246  26.560  0.00  0.00    -0.338 OA
BRANCH  54  57
ATOM     55  C   UNL     1       5.935  -2.684  23.130  0.00  0.00    +0.190 C 
ATOM     56  O   UNL     1       5.656  -1.615  24.103  0.00  0.00    -0.339 OA
ATOM     57  C   UNL     1       5.488  -2.155  25.415  0.00  0.00    +0.282 C 
ATOM     58  C   UNL     1       4.274  -3.081  25.532  0.00  0.00    +0.201 C 
ATOM     59  C   UNL     1       4.246  -4.138  24.452  0.00  0.00    +0.179 C 
ATOM     60  C   UNL     1       4.696  -3.621  23.081  0.00  0.00    +0.178 C 
BRANCH  58  61
ATOM     61  O   UNL     1       3.047  -2.325  25.560  0.00  0.00    -0.384 OA
ATOM     62  H   UNL     1       2.325  -2.987  25.595  0.00  0.00    +0.210 HD
ENDBRANCH  58  61
BRANCH  59  63
ATOM     63  O   UNL     1       2.905  -4.659  24.403  0.00  0.00    -0.386 OA
ATOM     64  H   UNL     1       2.975  -5.584  24.728  0.00  0.00    +0.210 HD
ENDBRANCH  59  63
BRANCH  60  65
ATOM     65  O   UNL     1       4.938  -4.753  22.245  0.00  0.00    -0.386 OA
ATOM     66  H   UNL     1       5.863  -4.999  22.349  0.00  0.00    +0.210 HD
ENDBRANCH  60  65
BRANCH  55  67
ATOM     67  C   UNL     1       7.307  -3.463  23.248  0.00  0.00    +0.266 C 
BRANCH  67  68
ATOM     68  O   UNL     1       8.111  -3.088  24.406  0.00  0.00    -0.459 OA
BRANCH  68  69
ATOM     69  C   UNL     1       8.790  -4.100  25.015  0.00  0.00    +0.332 C 
ATOM     70  O   UNL     1       9.836  -4.579  24.608  0.00  0.00    -0.246 OA
BRANCH  69  72
ATOM     71  C   UNL     1       6.939  -5.281  26.127  0.00  0.00    +0.015 C 
ATOM     72  C   UNL     1       8.085  -4.575  26.238  0.00  0.00    +0.092 C 
BRANCH  71  75
ATOM     73  C   UNL     1       4.052  -6.766  28.132  0.00  0.00    +0.162 A 
ATOM     74  C   UNL     1       4.811  -6.317  27.053  0.00  0.00    +0.057 A 
ATOM     75  C   UNL     1       6.158  -5.917  27.217  0.00  0.00    -0.021 A 
ATOM     76  C   UNL     1       6.717  -5.997  28.507  0.00  0.00    +0.012 A 
ATOM     77  C   UNL     1       5.967  -6.452  29.594  0.00  0.00    +0.050 A 
ATOM     78  C   UNL     1       4.642  -6.823  29.396  0.00  0.00    +0.158 A 
BRANCH  78  79
ATOM     79  O   UNL     1       3.907  -7.230  30.485  0.00  0.00    -0.503 OA
ATOM     80  H   UNL     1       3.011  -6.876  30.325  0.00  0.00    +0.292 HD
ENDBRANCH  78  79
BRANCH  73  82
ATOM     81  C   UNL     1       1.777  -6.099  28.236  0.00  0.00    +0.277 C 
ATOM     82  O   UNL     1       2.734  -7.142  28.095  0.00  0.00    -0.491 OA
ENDBRANCH  73  82
ENDBRANCH  71  75
ENDBRANCH  69  72
ENDBRANCH  68  69
ENDBRANCH  67  68
ENDBRANCH  55  67
ENDBRANCH  54  57
ENDBRANCH   1  54
TORSDOF 29
ENDMDL
MODEL 3
REMARK VINA RESULT:      -5.4      2.173      5.718
REMARK  Name = 
REMARK  30 active torsions:
REMARK  status: ('A' for Active; 'I' for Inactive)
REMARK    1  A    between atoms: C_1  and  O_2
REMARK    2  A    between atoms: O_2  and  C_3
REMARK    3  A    between atoms: C_4  and  O_77
REMARK    4  A    between atoms: C_7  and  C_9
REMARK    5  A    between atoms: C_10  and  C_11
REMARK    6  A    between atoms: C_11  and  O_13
REMARK    7  A    between atoms: O_13  and  C_14
REMARK    8  A    between atoms: C_14  and  C_15
REMARK    9  A    between atoms: C_16  and  O_76
REMARK   10  A    between atoms: C_18  and  O_75
REMARK   11  A    between atoms: C_20  and  O_74
REMARK   12  A    between atoms: C_21  and  O_24
REMARK   13  A    between atoms: O_24  and  C_25
REMARK   14  A    between atoms: C_26  and  O_73
REMARK   15  A    between atoms: C_28  and  O_72
REMARK   16  A    between atoms: C_30  and  C_70
REMARK   17  A    between atoms: C_32  and  O_34
REMARK   18  A    between atoms: O_34  and  C_35
REMARK   19  A    between atoms: C_36  and  O_69
REMARK   20  A    between atoms: C_38  and  O_68
REMARK   21  A    between atoms: C_40  and  C_66
REMARK   22  A    between atoms: C_42  and  O_44
REMARK   23  A    between atoms: O_44  and  C_45
REMARK   24  A    between atoms: C_46  and  C_58
REMARK   25  A    between atoms: C_50  and  O_57
REMARK   26  A    between atoms: C_52  and  O_56
REMARK   27  A    between atoms: C_60  and  O_65
REMARK   28  A    between atoms: C_61  and  O_64
REMARK   29  A    between atoms: C_66  and  O_67
REMARK   30  A    between atoms: C_70  and  O_71
REMARK                            x       y       z     vdW  Elec       q    Type
REMARK                         _______ _______ _______ _____ _____    ______ ____
ROOT
ATOM      1  C   UNL     1       7.344  -2.368  24.729  0.00  0.00    +0.208 C 
ATOM      2  C   UNL     1       8.050  -0.964  24.965  0.00  0.00    +0.283 C 
ATOM      3  O   UNL     1       7.904  -0.110  23.792  0.00  0.00    -0.341 OA
ATOM      4  C   UNL     1       8.209  -0.668  22.476  0.00  0.00    +0.178 C 
ATOM      5  C   UNL     1       7.420  -1.957  22.245  0.00  0.00    +0.177 C 
ATOM      6  C   UNL     1       7.880  -2.898  23.372  0.00  0.00    +0.179 C 
ENDROOT
BRANCH   5   7
ATOM      7  O   UNL     1       6.016  -1.674  22.216  0.00  0.00    -0.386 OA
ATOM      8  H   UNL     1       5.537  -2.469  21.904  0.00  0.00    +0.210 HD
ENDBRANCH   5   7
BRANCH   6   9
ATOM      9  O   UNL     1       7.692  -4.265  23.003  0.00  0.00    -0.386 OA
ATOM     10  H   UNL     1       7.858  -4.358  22.048  0.00  0.00    +0.210 HD
ENDBRANCH   6   9
BRANCH   4  11
ATOM     11  C   UNL     1       9.699  -0.980  22.141  0.00  0.00    +0.190 C 
BRANCH  11  12
ATOM     12  O   UNL     1      10.609  -0.570  23.139  0.00  0.00    -0.392 OA
ATOM     13  H   UNL     1      11.484  -0.911  22.896  0.00  0.00    +0.210 HD
ENDBRANCH  11  12
ENDBRANCH   4  11
BRANCH   2  14
ATOM     14  O   UNL     1       7.730  -0.226  26.192  0.00  0.00    -0.337 OA
BRANCH  14  15
ATOM     15  C   UNL     1       6.423   0.409  26.391  0.00  0.00    +0.221 C 
ATOM     16  C   UNL     1       6.378   2.022  26.386  0.00  0.00    +0.340 C 
ATOM     17  O   UNL     1       6.371   2.728  27.647  0.00  0.00    -0.331 OA
ATOM     18  C   UNL     1       5.596   2.221  28.745  0.00  0.00    +0.179 C 
ATOM     19  C   UNL     1       5.695   0.687  28.918  0.00  0.00    +0.177 C 
ATOM     20  C   UNL     1       5.532  -0.060  27.577  0.00  0.00    +0.180 C 
BRANCH  19  21
ATOM     21  O   UNL     1       4.650   0.237  29.814  0.00  0.00    -0.386 OA
ATOM     22  H   UNL     1       4.102   1.008  30.048  0.00  0.00    +0.210 HD
ENDBRANCH  19  21
BRANCH  20  23
ATOM     23  O   UNL     1       5.591  -1.486  27.752  0.00  0.00    -0.386 OA
ATOM     24  H   UNL     1       6.299  -1.650  28.402  0.00  0.00    +0.210 HD
ENDBRANCH  20  23
BRANCH  18  25
ATOM     25  C   UNL     1       4.145   2.773  28.746  0.00  0.00    +0.190 C 
BRANCH  25  26
ATOM     26  O   UNL     1       3.795   3.383  29.991  0.00  0.00    -0.392 OA
ATOM     27  H   UNL     1       4.612   3.730  30.393  0.00  0.00    +0.210 HD
ENDBRANCH  25  26
ENDBRANCH  18  25
BRANCH  16  28
ATOM     28  O   UNL     1       7.182   2.671  25.329  0.00  0.00    -0.453 OA
BRANCH  28  29
ATOM     29  C   UNL     1       6.601   3.603  24.464  0.00  0.00    +0.214 A 
ATOM     30  C   UNL     1       5.294   3.225  23.778  0.00  0.00    +0.238 A 
ATOM     31  O   UNL     1       4.745   2.139  23.920  0.00  0.00    -0.283 OA
ATOM     32  C   UNL     1       4.586   4.199  22.968  0.00  0.00    +0.109 A 
ATOM     33  C   UNL     1       5.085   5.485  22.954  0.00  0.00    +0.147 A 
ATOM     34  C   UNL     1       4.280   6.491  22.378  0.00  0.00    +0.092 A 
ATOM     35  C   UNL     1       3.029   6.179  21.808  0.00  0.00    +0.124 A 
ATOM     36  C   UNL     1       2.576   4.872  21.753  0.00  0.00    +0.091 A 
ATOM     37  O   UNL     1       6.334   5.802  23.467  0.00  0.00    -0.451 OA
ATOM     38  C   UNL     1       3.358   3.883  22.331  0.00  0.00    +0.135 A 
ATOM     39  C   UNL     1       7.130   4.844  24.196  0.00  0.00    +0.181 A 
BRANCH  39  40
ATOM     40  C   UNL     1       8.545   5.491  24.605  0.00  0.00    +0.025 A 
ATOM     41  C   UNL     1       9.570   5.520  23.611  0.00  0.00    +0.015 A 
ATOM     42  C   UNL     1      10.883   6.025  23.814  0.00  0.00    +0.050 A 
ATOM     43  C   UNL     1      11.249   6.539  25.038  0.00  0.00    +0.158 A 
ATOM     44  C   UNL     1      10.313   6.534  26.066  0.00  0.00    +0.159 A 
ATOM     45  C   UNL     1       8.981   6.015  25.867  0.00  0.00    +0.060 A 
BRANCH  44  46
ATOM     46  O   UNL     1      10.781   7.055  27.253  0.00  0.00    -0.503 OA
ATOM     47  H   UNL     1      11.742   7.172  27.217  0.00  0.00    +0.292 HD
ENDBRANCH  44  46
BRANCH  43  48
ATOM     48  O   UNL     1      12.520   7.025  25.201  0.00  0.00    -0.503 OA
ATOM     49  H   UNL     1      12.433   7.912  25.603  0.00  0.00    +0.292 HD
ENDBRANCH  43  48
ENDBRANCH  39  40
BRANCH  38  50
ATOM     50  O   UNL     1       2.886   2.591  22.241  0.00  0.00    -0.506 OA
ATOM     51  H   UNL     1       2.511   2.342  23.095  0.00  0.00    +0.292 HD
ENDBRANCH  38  50
BRANCH  35  52
ATOM     52  O   UNL     1       2.181   7.108  21.273  0.00  0.00    -0.507 OA
ATOM     53  H   UNL     1       1.671   6.730  20.541  0.00  0.00    +0.292 HD
ENDBRANCH  35  52
ENDBRANCH  28  29
ENDBRANCH  16  28
ENDBRANCH  14  15
ENDBRANCH   2  14
BRANCH   1  54
ATOM     54  O   UNL     1       5.875  -2.440  24.764  0.00  0.00    -0.338 OA
BRANCH  54  57
ATOM     55  C   UNL     1       5.912  -5.872  26.271  0.00  0.00    +0.190 C 
ATOM     56  O   UNL     1       6.477  -4.735  25.525  0.00  0.00    -0.339 OA
ATOM     57  C   UNL     1       5.472  -3.755  25.258  0.00  0.00    +0.282 C 
ATOM     58  C   UNL     1       4.355  -4.273  24.347  0.00  0.00    +0.201 C 
ATOM     59  C   UNL     1       3.783  -5.588  24.821  0.00  0.00    +0.179 C 
ATOM     60  C   UNL     1       4.842  -6.551  25.371  0.00  0.00    +0.178 C 
BRANCH  58  61
ATOM     61  O   UNL     1       4.802  -4.356  22.979  0.00  0.00    -0.384 OA
ATOM     62  H   UNL     1       5.780  -4.313  23.012  0.00  0.00    +0.210 HD
ENDBRANCH  58  61
BRANCH  59  63
ATOM     63  O   UNL     1       3.073  -6.167  23.711  0.00  0.00    -0.386 OA
ATOM     64  H   UNL     1       2.417  -6.778  24.114  0.00  0.00    +0.210 HD
ENDBRANCH  59  63
BRANCH  60  65
ATOM     65  O   UNL     1       4.163  -7.593  26.073  0.00  0.00    -0.386 OA
ATOM     66  H   UNL     1       4.465  -7.572  26.987  0.00  0.00    +0.210 HD
ENDBRANCH  60  65
BRANCH  55  67
ATOM     67  C   UNL     1       5.419  -5.623  27.754  0.00  0.00    +0.266 C 
BRANCH  67  68
ATOM     68  O   UNL     1       5.087  -6.840  28.487  0.00  0.00    -0.459 OA
BRANCH  68  69
ATOM     69  C   UNL     1       3.952  -6.794  29.239  0.00  0.00    +0.332 C 
ATOM     70  O   UNL     1       3.753  -7.464  30.239  0.00  0.00    -0.246 OA
BRANCH  69  72
ATOM     71  C   UNL     1       3.159  -4.503  28.812  0.00  0.00    +0.015 C 
ATOM     72  C   UNL     1       2.962  -5.833  28.678  0.00  0.00    +0.092 C 
BRANCH  71  75
ATOM     73  C   UNL     1       1.066  -2.420  26.396  0.00  0.00    +0.162 A 
ATOM     74  C   UNL     1       1.695  -3.515  26.985  0.00  0.00    +0.057 A 
ATOM     75  C   UNL     1       2.342  -3.405  28.238  0.00  0.00    -0.021 A 
ATOM     76  C   UNL     1       2.323  -2.153  28.882  0.00  0.00    +0.012 A 
ATOM     77  C   UNL     1       1.689  -1.051  28.303  0.00  0.00    +0.050 A 
ATOM     78  C   UNL     1       1.077  -1.194  27.064  0.00  0.00    +0.158 A 
BRANCH  78  79
ATOM     79  O   UNL     1       0.494  -0.089  26.491  0.00  0.00    -0.503 OA
ATOM     80  H   UNL     1       1.229   0.540  26.359  0.00  0.00    +0.292 HD
ENDBRANCH  78  79
BRANCH  73  82
ATOM     81  C   UNL     1       0.451  -3.625  24.447  0.00  0.00    +0.277 C 
ATOM     82  O   UNL     1       0.443  -2.403  25.175  0.00  0.00    -0.491 OA
ENDBRANCH  73  82
ENDBRANCH  71  75
ENDBRANCH  69  72
ENDBRANCH  68  69
ENDBRANCH  67  68
ENDBRANCH  55  67
ENDBRANCH  54  57
ENDBRANCH   1  54
TORSDOF 29
ENDMDL
MODEL 4
REMARK VINA RESULT:      -5.3      1.893      3.997
REMARK  Name = 
REMARK  30 active torsions:
REMARK  status: ('A' for Active; 'I' for Inactive)
REMARK    1  A    between atoms: C_1  and  O_2
REMARK    2  A    between atoms: O_2  and  C_3
REMARK    3  A    between atoms: C_4  and  O_77
REMARK    4  A    between atoms: C_7  and  C_9
REMARK    5  A    between atoms: C_10  and  C_11
REMARK    6  A    between atoms: C_11  and  O_13
REMARK    7  A    between atoms: O_13  and  C_14
REMARK    8  A    between atoms: C_14  and  C_15
REMARK    9  A    between atoms: C_16  and  O_76
REMARK   10  A    between atoms: C_18  and  O_75
REMARK   11  A    between atoms: C_20  and  O_74
REMARK   12  A    between atoms: C_21  and  O_24
REMARK   13  A    between atoms: O_24  and  C_25
REMARK   14  A    between atoms: C_26  and  O_73
REMARK   15  A    between atoms: C_28  and  O_72
REMARK   16  A    between atoms: C_30  and  C_70
REMARK   17  A    between atoms: C_32  and  O_34
REMARK   18  A    between atoms: O_34  and  C_35
REMARK   19  A    between atoms: C_36  and  O_69
REMARK   20  A    between atoms: C_38  and  O_68
REMARK   21  A    between atoms: C_40  and  C_66
REMARK   22  A    between atoms: C_42  and  O_44
REMARK   23  A    between atoms: O_44  and  C_45
REMARK   24  A    between atoms: C_46  and  C_58
REMARK   25  A    between atoms: C_50  and  O_57
REMARK   26  A    between atoms: C_52  and  O_56
REMARK   27  A    between atoms: C_60  and  O_65
REMARK   28  A    between atoms: C_61  and  O_64
REMARK   29  A    between atoms: C_66  and  O_67
REMARK   30  A    between atoms: C_70  and  O_71
REMARK                            x       y       z     vdW  Elec       q    Type
REMARK                         _______ _______ _______ _____ _____    ______ ____
ROOT
ATOM      1  C   UNL     1       4.418  -1.082  26.562  0.00  0.00    +0.208 C 
ATOM      2  C   UNL     1       5.575  -0.071  26.969  0.00  0.00    +0.283 C 
ATOM      3  O   UNL     1       5.818  -0.119  28.407  0.00  0.00    -0.341 OA
ATOM      4  C   UNL     1       4.675  -0.045  29.314  0.00  0.00    +0.178 C 
ATOM      5  C   UNL     1       3.639  -1.111  28.957  0.00  0.00    +0.177 C 
ATOM      6  C   UNL     1       3.227  -0.781  27.512  0.00  0.00    +0.179 C 
ENDROOT
BRANCH   5   7
ATOM      7  O   UNL     1       4.191  -2.418  29.155  0.00  0.00    -0.386 OA
ATOM      8  H   UNL     1       5.028  -2.338  29.656  0.00  0.00    +0.210 HD
ENDBRANCH   5   7
BRANCH   6   9
ATOM      9  O   UNL     1       1.924  -1.290  27.224  0.00  0.00    -0.386 OA
ATOM     10  H   UNL     1       1.784  -1.270  26.261  0.00  0.00    +0.210 HD
ENDBRANCH   6   9
BRANCH   4  11
ATOM     11  C   UNL     1       3.914   1.311  29.424  0.00  0.00    +0.190 C 
BRANCH  11  12
ATOM     12  O   UNL     1       4.752   2.421  29.660  0.00  0.00    -0.392 OA
ATOM     13  H   UNL     1       4.415   2.882  30.444  0.00  0.00    +0.210 HD
ENDBRANCH  11  12
ENDBRANCH   4  11
BRANCH   2  14
ATOM     14  O   UNL     1       6.836  -0.128  26.223  0.00  0.00    -0.337 OA
BRANCH  14  15
ATOM     15  C   UNL     1       7.329   1.017  25.451  0.00  0.00    +0.221 C 
ATOM     16  C   UNL     1       6.394   1.555  24.251  0.00  0.00    +0.340 C 
ATOM     17  O   UNL     1       6.682   1.138  22.896  0.00  0.00    -0.331 OA
ATOM     18  C   UNL     1       8.044   1.046  22.452  0.00  0.00    +0.179 C 
ATOM     19  C   UNL     1       8.994   0.404  23.490  0.00  0.00    +0.177 C 
ATOM     20  C   UNL     1       8.785   0.986  24.905  0.00  0.00    +0.180 C 
BRANCH  19  21
ATOM     21  O   UNL     1      10.366   0.650  23.100  0.00  0.00    -0.386 OA
ATOM     22  H   UNL     1      10.514   0.227  22.235  0.00  0.00    +0.210 HD
ENDBRANCH  19  21
BRANCH  20  23
ATOM     23  O   UNL     1       9.695   0.409  25.857  0.00  0.00    -0.386 OA
ATOM     24  H   UNL     1       9.215   0.378  26.706  0.00  0.00    +0.210 HD
ENDBRANCH  20  23
BRANCH  18  25
ATOM     25  C   UNL     1       8.558   2.382  21.853  0.00  0.00    +0.190 C 
BRANCH  25  26
ATOM     26  O   UNL     1       9.937   2.316  21.477  0.00  0.00    -0.392 OA
ATOM     27  H   UNL     1      10.363   3.144  21.762  0.00  0.00    +0.210 HD
ENDBRANCH  25  26
ENDBRANCH  18  25
BRANCH  16  28
ATOM     28  O   UNL     1       4.953   1.646  24.566  0.00  0.00    -0.453 OA
BRANCH  28  29
ATOM     29  C   UNL     1       4.448   2.738  25.279  0.00  0.00    +0.214 A 
ATOM     30  C   UNL     1       3.133   2.557  26.027  0.00  0.00    +0.238 A 
ATOM     31  O   UNL     1       2.482   1.519  26.012  0.00  0.00    -0.283 OA
ATOM     32  C   UNL     1       2.628   3.616  26.881  0.00  0.00    +0.109 A 
ATOM     33  C   UNL     1       3.441   4.715  27.067  0.00  0.00    +0.147 A 
ATOM     34  C   UNL     1       3.079   5.631  28.077  0.00  0.00    +0.092 A 
ATOM     35  C   UNL     1       1.909   5.443  28.839  0.00  0.00    +0.124 A 
ATOM     36  C   UNL     1       1.056   4.382  28.588  0.00  0.00    +0.091 A 
ATOM     37  O   UNL     1       4.571   4.941  26.294  0.00  0.00    -0.451 OA
ATOM     38  C   UNL     1       1.416   3.472  27.606  0.00  0.00    +0.135 A 
ATOM     39  C   UNL     1       5.065   3.964  25.354  0.00  0.00    +0.181 A 
BRANCH  39  40
ATOM     40  C   UNL     1       6.346   4.543  24.572  0.00  0.00    +0.025 A 
ATOM     41  C   UNL     1       7.596   4.549  25.263  0.00  0.00    +0.015 A 
ATOM     42  C   UNL     1       8.815   5.052  24.732  0.00  0.00    +0.050 A 
ATOM     43  C   UNL     1       8.853   5.582  23.462  0.00  0.00    +0.158 A 
ATOM     44  C   UNL     1       7.675   5.628  22.726  0.00  0.00    +0.159 A 
ATOM     45  C   UNL     1       6.433   5.125  23.264  0.00  0.00    +0.060 A 
BRANCH  44  46
ATOM     46  O   UNL     1       7.815   6.189  21.476  0.00  0.00    -0.503 OA
ATOM     47  H   UNL     1       8.680   5.966  21.098  0.00  0.00    +0.292 HD
ENDBRANCH  44  46
BRANCH  43  48
ATOM     48  O   UNL     1      10.044   6.053  22.975  0.00  0.00    -0.503 OA
ATOM     49  H   UNL     1      10.726   5.842  23.643  0.00  0.00    +0.292 HD
ENDBRANCH  43  48
ENDBRANCH  39  40
BRANCH  38  50
ATOM     50  O   UNL     1       0.534   2.438  27.368  0.00  0.00    -0.506 OA
ATOM     51  H   UNL     1      -0.336   2.697  27.695  0.00  0.00    +0.292 HD
ENDBRANCH  38  50
BRANCH  35  52
ATOM     52  O   UNL     1       1.521   6.267  29.860  0.00  0.00    -0.507 OA
ATOM     53  H   UNL     1       1.301   5.755  30.653  0.00  0.00    +0.292 HD
ENDBRANCH  35  52
ENDBRANCH  28  29
ENDBRANCH  16  28
ENDBRANCH  14  15
ENDBRANCH   2  14
BRANCH   1  54
ATOM     54  O   UNL     1       4.707  -2.525  26.544  0.00  0.00    -0.338 OA
BRANCH  54  57
ATOM     55  C   UNL     1       6.135  -2.452  23.078  0.00  0.00    +0.190 C 
ATOM     56  O   UNL     1       5.451  -1.885  24.252  0.00  0.00    -0.339 OA
ATOM     57  C   UNL     1       5.146  -2.908  25.203  0.00  0.00    +0.282 C 
ATOM     58  C   UNL     1       4.155  -3.947  24.669  0.00  0.00    +0.201 C 
ATOM     59  C   UNL     1       4.563  -4.498  23.323  0.00  0.00    +0.179 C 
ATOM     60  C   UNL     1       5.154  -3.439  22.385  0.00  0.00    +0.178 C 
BRANCH  58  61
ATOM     61  O   UNL     1       2.816  -3.416  24.636  0.00  0.00    -0.384 OA
ATOM     62  H   UNL     1       2.529  -3.354  25.572  0.00  0.00    +0.210 HD
ENDBRANCH  58  61
BRANCH  59  63
ATOM     63  O   UNL     1       3.398  -5.118  22.747  0.00  0.00    -0.386 OA
ATOM     64  H   UNL     1       2.893  -5.476  23.509  0.00  0.00    +0.210 HD
ENDBRANCH  59  63
BRANCH  60  65
ATOM     65  O   UNL     1       5.790  -4.121  21.302  0.00  0.00    -0.386 OA
ATOM     66  H   UNL     1       6.739  -3.996  21.397  0.00  0.00    +0.210 HD
ENDBRANCH  60  65
BRANCH  55  67
ATOM     67  C   UNL     1       7.589  -3.043  23.272  0.00  0.00    +0.266 C 
BRANCH  67  68
ATOM     68  O   UNL     1       8.135  -2.862  24.613  0.00  0.00    -0.459 OA
BRANCH  68  69
ATOM     69  C   UNL     1       8.464  -4.002  25.282  0.00  0.00    +0.332 C 
ATOM     70  O   UNL     1       9.444  -4.689  25.046  0.00  0.00    -0.246 OA
BRANCH  69  72
ATOM     71  C   UNL     1       6.932  -5.568  26.404  0.00  0.00    +0.015 C 
ATOM     72  C   UNL     1       7.462  -4.328  26.335  0.00  0.00    +0.092 C 
BRANCH  71  75
ATOM     73  C   UNL     1       3.785  -6.854  28.137  0.00  0.00    +0.162 A 
ATOM     74  C   UNL     1       4.685  -6.506  27.131  0.00  0.00    +0.057 A 
ATOM     75  C   UNL     1       6.006  -6.102  27.434  0.00  0.00    -0.021 A 
ATOM     76  C   UNL     1       6.393  -6.072  28.787  0.00  0.00    +0.012 A 
ATOM     77  C   UNL     1       5.501  -6.427  29.803  0.00  0.00    +0.050 A 
ATOM     78  C   UNL     1       4.207  -6.804  29.467  0.00  0.00    +0.158 A 
BRANCH  78  79
ATOM     79  O   UNL     1       3.330  -7.110  30.482  0.00  0.00    -0.503 OA
ATOM     80  H   UNL     1       3.654  -7.958  30.842  0.00  0.00    +0.292 HD
ENDBRANCH  78  79
BRANCH  73  82
ATOM     81  C   UNL     1       1.947  -7.062  26.652  0.00  0.00    +0.277 C 
ATOM     82  O   UNL     1       2.477  -7.223  27.962  0.00  0.00    -0.491 OA
ENDBRANCH  73  82
ENDBRANCH  71  75
ENDBRANCH  69  72
ENDBRANCH  68  69
ENDBRANCH  67  68
ENDBRANCH  55  67
ENDBRANCH  54  57
ENDBRANCH   1  54
TORSDOF 29
ENDMDL
MODEL 5
REMARK VINA RESULT:      -5.2      3.367      9.623
REMARK  Name = 
REMARK  30 active torsions:
REMARK  status: ('A' for Active; 'I' for Inactive)
REMARK    1  A    between atoms: C_1  and  O_2
REMARK    2  A    between atoms: O_2  and  C_3
REMARK    3  A    between atoms: C_4  and  O_77
REMARK    4  A    between atoms: C_7  and  C_9
REMARK    5  A    between atoms: C_10  and  C_11
REMARK    6  A    between atoms: C_11  and  O_13
REMARK    7  A    between atoms: O_13  and  C_14
REMARK    8  A    between atoms: C_14  and  C_15
REMARK    9  A    between atoms: C_16  and  O_76
REMARK   10  A    between atoms: C_18  and  O_75
REMARK   11  A    between atoms: C_20  and  O_74
REMARK   12  A    between atoms: C_21  and  O_24
REMARK   13  A    between atoms: O_24  and  C_25
REMARK   14  A    between atoms: C_26  and  O_73
REMARK   15  A    between atoms: C_28  and  O_72
REMARK   16  A    between atoms: C_30  and  C_70
REMARK   17  A    between atoms: C_32  and  O_34
REMARK   18  A    between atoms: O_34  and  C_35
REMARK   19  A    between atoms: C_36  and  O_69
REMARK   20  A    between atoms: C_38  and  O_68
REMARK   21  A    between atoms: C_40  and  C_66
REMARK   22  A    between atoms: C_42  and  O_44
REMARK   23  A    between atoms: O_44  and  C_45
REMARK   24  A    between atoms: C_46  and  C_58
REMARK   25  A    between atoms: C_50  and  O_57
REMARK   26  A    between atoms: C_52  and  O_56
REMARK   27  A    between atoms: C_60  and  O_65
REMARK   28  A    between atoms: C_61  and  O_64
REMARK   29  A    between atoms: C_66  and  O_67
REMARK   30  A    between atoms: C_70  and  O_71
REMARK                            x       y       z     vdW  Elec       q    Type
REMARK                         _______ _______ _______ _____ _____    ______ ____
ROOT
ATOM      1  C   UNL     1       7.684   1.977  22.890  0.00  0.00    +0.208 C 
ATOM      2  C   UNL     1       7.668   1.610  24.436  0.00  0.00    +0.283 C 
ATOM      3  O   UNL     1       8.843   2.155  25.108  0.00  0.00    -0.341 OA
ATOM      4  C   UNL     1      10.157   1.943  24.503  0.00  0.00    +0.178 C 
ATOM      5  C   UNL     1      10.159   2.417  23.049  0.00  0.00    +0.177 C 
ATOM      6  C   UNL     1       9.083   1.559  22.362  0.00  0.00    +0.179 C 
ENDROOT
BRANCH   5   7
ATOM      7  O   UNL     1       9.945   3.832  22.994  0.00  0.00    -0.386 OA
ATOM      8  H   UNL     1       9.945   4.118  22.058  0.00  0.00    +0.210 HD
ENDBRANCH   5   7
BRANCH   6   9
ATOM      9  O   UNL     1       9.328   1.462  20.958  0.00  0.00    -0.386 OA
ATOM     10  H   UNL     1      10.149   0.959  20.817  0.00  0.00    +0.210 HD
ENDBRANCH   6   9
BRANCH   4  11
ATOM     11  C   UNL     1      10.743   0.498  24.512  0.00  0.00    +0.190 C 
BRANCH  11  12
ATOM     12  O   UNL     1      10.201  -0.333  25.515  0.00  0.00    -0.392 OA
ATOM     13  H   UNL     1       9.444   0.131  25.904  0.00  0.00    +0.210 HD
ENDBRANCH  11  12
ENDBRANCH   4  11
BRANCH   2  14
ATOM     14  O   UNL     1       6.450   1.895  25.202  0.00  0.00    -0.337 OA
BRANCH  14  15
ATOM     15  C   UNL     1       6.235   1.345  26.544  0.00  0.00    +0.221 C 
ATOM     16  C   UNL     1       4.877   0.509  26.790  0.00  0.00    +0.340 C 
ATOM     17  O   UNL     1       3.749   1.168  27.408  0.00  0.00    -0.331 OA
ATOM     18  C   UNL     1       3.963   2.082  28.495  0.00  0.00    +0.179 C 
ATOM     19  C   UNL     1       5.167   3.030  28.280  0.00  0.00    +0.177 C 
ATOM     20  C   UNL     1       6.417   2.276  27.777  0.00  0.00    +0.180 C 
BRANCH  19  21
ATOM     21  O   UNL     1       5.502   3.671  29.534  0.00  0.00    -0.386 OA
ATOM     22  H   UNL     1       4.940   3.284  30.230  0.00  0.00    +0.210 HD
ENDBRANCH  19  21
BRANCH  20  23
ATOM     23  O   UNL     1       7.541   3.158  27.613  0.00  0.00    -0.386 OA
ATOM     24  H   UNL     1       7.975   3.207  28.485  0.00  0.00    +0.210 HD
ENDBRANCH  20  23
BRANCH  18  25
ATOM     25  C   UNL     1       3.948   1.370  29.874  0.00  0.00    +0.190 C 
BRANCH  25  26
ATOM     26  O   UNL     1       3.586  -0.010  29.770  0.00  0.00    -0.392 OA
ATOM     27  H   UNL     1       3.347  -0.186  28.842  0.00  0.00    +0.210 HD
ENDBRANCH  25  26
ENDBRANCH  18  25
BRANCH  16  28
ATOM     28  O   UNL     1       4.514  -0.436  25.712  0.00  0.00    -0.453 OA
BRANCH  28  29
ATOM     29  C   UNL     1       4.474  -1.812  25.955  0.00  0.00    +0.214 A 
ATOM     30  C   UNL     1       3.424  -2.337  26.926  0.00  0.00    +0.238 A 
ATOM     31  O   UNL     1       2.637  -1.615  27.527  0.00  0.00    -0.283 OA
ATOM     32  C   UNL     1       3.257  -3.765  27.120  0.00  0.00    +0.109 A 
ATOM     33  C   UNL     1       3.998  -4.599  26.309  0.00  0.00    +0.147 A 
ATOM     34  C   UNL     1       3.671  -5.972  26.312  0.00  0.00    +0.092 A 
ATOM     35  C   UNL     1       2.648  -6.470  27.144  0.00  0.00    +0.124 A 
ATOM     36  C   UNL     1       1.968  -5.637  28.015  0.00  0.00    +0.091 A 
ATOM     37  O   UNL     1       5.040  -4.134  25.519  0.00  0.00    -0.451 OA
ATOM     38  C   UNL     1       2.277  -4.285  28.005  0.00  0.00    +0.135 A 
ATOM     39  C   UNL     1       5.317  -2.726  25.367  0.00  0.00    +0.181 A 
BRANCH  39  40
ATOM     40  C   UNL     1       6.618  -2.511  24.445  0.00  0.00    +0.025 A 
ATOM     41  C   UNL     1       6.434  -1.865  23.184  0.00  0.00    +0.015 A 
ATOM     42  C   UNL     1       7.467  -1.625  22.237  0.00  0.00    +0.050 A 
ATOM     43  C   UNL     1       8.758  -2.021  22.502  0.00  0.00    +0.158 A 
ATOM     44  C   UNL     1       9.020  -2.672  23.702  0.00  0.00    +0.159 A 
ATOM     45  C   UNL     1       7.973  -2.924  24.664  0.00  0.00    +0.060 A 
BRANCH  44  46
ATOM     46  O   UNL     1      10.338  -3.040  23.866  0.00  0.00    -0.503 OA
ATOM     47  H   UNL     1      10.748  -3.225  23.008  0.00  0.00    +0.292 HD
ENDBRANCH  44  46
BRANCH  43  48
ATOM     48  O   UNL     1       9.734  -1.770  21.573  0.00  0.00    -0.503 OA
ATOM     49  H   UNL     1       9.823  -2.580  21.032  0.00  0.00    +0.292 HD
ENDBRANCH  43  48
ENDBRANCH  39  40
BRANCH  38  50
ATOM     50  O   UNL     1       1.594  -3.488  28.899  0.00  0.00    -0.506 OA
ATOM     51  H   UNL     1       2.187  -3.269  29.628  0.00  0.00    +0.292 HD
ENDBRANCH  38  50
BRANCH  35  52
ATOM     52  O   UNL     1       2.251  -7.778  27.166  0.00  0.00    -0.507 OA
ATOM     53  H   UNL     1       3.014  -8.370  27.255  0.00  0.00    +0.292 HD
ENDBRANCH  35  52
ENDBRANCH  28  29
ENDBRANCH  16  28
ENDBRANCH  14  15
ENDBRANCH   2  14
BRANCH   1  54
ATOM     54  O   UNL     1       7.374   3.356  22.483  0.00  0.00    -0.338 OA
BRANCH  54  57
ATOM     55  C   UNL     1       3.996   4.565  23.569  0.00  0.00    +0.190 C 
ATOM     56  O   UNL     1       5.108   4.386  22.622  0.00  0.00    -0.339 OA
ATOM     57  C   UNL     1       6.256   3.852  23.285  0.00  0.00    +0.282 C 
ATOM     58  C   UNL     1       6.829   4.794  24.349  0.00  0.00    +0.201 C 
ATOM     59  C   UNL     1       5.774   5.293  25.309  0.00  0.00    +0.179 C 
ATOM     60  C   UNL     1       4.435   5.611  24.632  0.00  0.00    +0.178 C 
BRANCH  58  61
ATOM     61  O   UNL     1       7.544   5.887  23.740  0.00  0.00    -0.384 OA
ATOM     62  H   UNL     1       7.796   5.577  22.844  0.00  0.00    +0.210 HD
ENDBRANCH  58  61
BRANCH  59  63
ATOM     63  O   UNL     1       6.316   6.451  25.971  0.00  0.00    -0.386 OA
ATOM     64  H   UNL     1       6.369   7.144  25.277  0.00  0.00    +0.210 HD
ENDBRANCH  59  63
BRANCH  60  65
ATOM     65  O   UNL     1       3.450   5.751  25.657  0.00  0.00    -0.386 OA
ATOM     66  H   UNL     1       3.584   6.607  26.075  0.00  0.00    +0.210 HD
ENDBRANCH  60  65
BRANCH  55  67
ATOM     67  C   UNL     1       3.332   3.273  24.197  0.00  0.00    +0.266 C 
BRANCH  67  68
ATOM     68  O   UNL     1       1.875   3.322  24.264  0.00  0.00    -0.459 OA
BRANCH  68  69
ATOM     69  C   UNL     1       1.215   3.042  23.106  0.00  0.00    +0.332 C 
ATOM     70  O   UNL     1       0.443   2.109  22.953  0.00  0.00    -0.246 OA
BRANCH  69  72
ATOM     71  C   UNL     1       1.211   3.754  20.750  0.00  0.00    +0.015 C 
ATOM     72  C   UNL     1       1.566   4.009  22.028  0.00  0.00    +0.092 C 
BRANCH  71  75
ATOM     73  C   UNL     1       1.641   4.966  17.157  0.00  0.00    +0.162 A 
ATOM     74  C   UNL     1       1.321   4.152  18.242  0.00  0.00    +0.057 A 
ATOM     75  C   UNL     1       1.383   4.637  19.569  0.00  0.00    -0.021 A 
ATOM     76  C   UNL     1       1.767   5.978  19.764  0.00  0.00    +0.012 A 
ATOM     77  C   UNL     1       2.081   6.804  18.682  0.00  0.00    +0.050 A 
ATOM     78  C   UNL     1       2.024   6.287  17.394  0.00  0.00    +0.158 A 
BRANCH  78  79
ATOM     79  O   UNL     1       2.377   7.103  16.345  0.00  0.00    -0.503 OA
ATOM     80  H   UNL     1       2.439   6.505  15.575  0.00  0.00    +0.292 HD
ENDBRANCH  78  79
BRANCH  73  82
ATOM     81  C   UNL     1       0.529   4.992  15.061  0.00  0.00    +0.277 C 
ATOM     82  O   UNL     1       1.651   4.592  15.838  0.00  0.00    -0.491 OA
ENDBRANCH  73  82
ENDBRANCH  71  75
ENDBRANCH  69  72
ENDBRANCH  68  69
ENDBRANCH  67  68
ENDBRANCH  55  67
ENDBRANCH  54  57
ENDBRANCH   1  54
TORSDOF 29
ENDMDL
MODEL 6
REMARK VINA RESULT:      -5.1      2.201      5.611
REMARK  Name = 
REMARK  30 active torsions:
REMARK  status: ('A' for Active; 'I' for Inactive)
REMARK    1  A    between atoms: C_1  and  O_2
REMARK    2  A    between atoms: O_2  and  C_3
REMARK    3  A    between atoms: C_4  and  O_77
REMARK    4  A    between atoms: C_7  and  C_9
REMARK    5  A    between atoms: C_10  and  C_11
REMARK    6  A    between atoms: C_11  and  O_13
REMARK    7  A    between atoms: O_13  and  C_14
REMARK    8  A    between atoms: C_14  and  C_15
REMARK    9  A    between atoms: C_16  and  O_76
REMARK   10  A    between atoms: C_18  and  O_75
REMARK   11  A    between atoms: C_20  and  O_74
REMARK   12  A    between atoms: C_21  and  O_24
REMARK   13  A    between atoms: O_24  and  C_25
REMARK   14  A    between atoms: C_26  and  O_73
REMARK   15  A    between atoms: C_28  and  O_72
REMARK   16  A    between atoms: C_30  and  C_70
REMARK   17  A    between atoms: C_32  and  O_34
REMARK   18  A    between atoms: O_34  and  C_35
REMARK   19  A    between atoms: C_36  and  O_69
REMARK   20  A    between atoms: C_38  and  O_68
REMARK   21  A    between atoms: C_40  and  C_66
REMARK   22  A    between atoms: C_42  and  O_44
REMARK   23  A    between atoms: O_44  and  C_45
REMARK   24  A    between atoms: C_46  and  C_58
REMARK   25  A    between atoms: C_50  and  O_57
REMARK   26  A    between atoms: C_52  and  O_56
REMARK   27  A    between atoms: C_60  and  O_65
REMARK   28  A    between atoms: C_61  and  O_64
REMARK   29  A    between atoms: C_66  and  O_67
REMARK   30  A    between atoms: C_70  and  O_71
REMARK                            x       y       z     vdW  Elec       q    Type
REMARK                         _______ _______ _______ _____ _____    ______ ____
ROOT
ATOM      1  C   UNL     1       7.986  -1.594  25.491  0.00  0.00    +0.208 C 
ATOM      2  C   UNL     1       8.165  -0.113  26.038  0.00  0.00    +0.283 C 
ATOM      3  O   UNL     1       8.278   0.834  24.934  0.00  0.00    -0.341 OA
ATOM      4  C   UNL     1       9.202   0.531  23.843  0.00  0.00    +0.178 C 
ATOM      5  C   UNL     1       8.919  -0.858  23.271  0.00  0.00    +0.177 C 
ATOM      6  C   UNL     1       9.123  -1.814  24.458  0.00  0.00    +0.179 C 
ENDROOT
BRANCH   5   7
ATOM      7  O   UNL     1       7.615  -0.886  22.677  0.00  0.00    -0.386 OA
ATOM      8  H   UNL     1       7.279  -1.806  22.689  0.00  0.00    +0.210 HD
ENDBRANCH   5   7
BRANCH   6   9
ATOM      9  O   UNL     1       9.445  -3.129  24.004  0.00  0.00    -0.386 OA
ATOM     10  H   UNL     1       9.218  -3.200  23.060  0.00  0.00    +0.210 HD
ENDBRANCH   6   9
BRANCH   4  11
ATOM     11  C   UNL     1      10.732   0.597  24.140  0.00  0.00    +0.190 C 
BRANCH  11  12
ATOM     12  O   UNL     1      11.265   1.904  24.111  0.00  0.00    -0.392 OA
ATOM     13  H   UNL     1      11.743   2.044  24.943  0.00  0.00    +0.210 HD
ENDBRANCH  11  12
ENDBRANCH   4  11
BRANCH   2  14
ATOM     14  O   UNL     1       7.217   0.371  27.047  0.00  0.00    -0.337 OA
BRANCH  14  15
ATOM     15  C   UNL     1       5.814   0.644  26.720  0.00  0.00    +0.221 C 
ATOM     16  C   UNL     1       5.396   2.184  26.484  0.00  0.00    +0.340 C 
ATOM     17  O   UNL     1       4.781   2.919  27.566  0.00  0.00    -0.331 OA
ATOM     18  C   UNL     1       3.812   2.273  28.406  0.00  0.00    +0.179 C 
ATOM     19  C   UNL     1       4.200   0.831  28.806  0.00  0.00    +0.177 C 
ATOM     20  C   UNL     1       4.699   0.008  27.598  0.00  0.00    +0.180 C 
BRANCH  19  21
ATOM     21  O   UNL     1       3.043   0.159  29.361  0.00  0.00    -0.386 OA
ATOM     22  H   UNL     1       2.349   0.141  28.677  0.00  0.00    +0.210 HD
ENDBRANCH  19  21
BRANCH  20  23
ATOM     23  O   UNL     1       5.025  -1.342  27.972  0.00  0.00    -0.386 OA
ATOM     24  H   UNL     1       5.100  -1.342  28.945  0.00  0.00    +0.210 HD
ENDBRANCH  20  23
BRANCH  18  25
ATOM     25  C   UNL     1       2.367   2.419  27.856  0.00  0.00    +0.190 C 
BRANCH  25  26
ATOM     26  O   UNL     1       2.296   3.316  26.744  0.00  0.00    -0.392 OA
ATOM     27  H   UNL     1       3.145   3.271  26.271  0.00  0.00    +0.210 HD
ENDBRANCH  25  26
ENDBRANCH  18  25
BRANCH  16  28
ATOM     28  O   UNL     1       6.345   2.977  25.672  0.00  0.00    -0.453 OA
BRANCH  28  29
ATOM     29  C   UNL     1       5.883   3.809  24.647  0.00  0.00    +0.214 A 
ATOM     30  C   UNL     1       4.606   3.408  23.921  0.00  0.00    +0.238 A 
ATOM     31  O   UNL     1       3.981   2.383  24.167  0.00  0.00    -0.283 OA
ATOM     32  C   UNL     1       4.016   4.295  22.936  0.00  0.00    +0.109 A 
ATOM     33  C   UNL     1       4.594   5.539  22.787  0.00  0.00    +0.147 A 
ATOM     34  C   UNL     1       3.894   6.496  22.021  0.00  0.00    +0.092 A 
ATOM     35  C   UNL     1       2.668   6.173  21.405  0.00  0.00    +0.124 A 
ATOM     36  C   UNL     1       2.139   4.897  21.493  0.00  0.00    +0.091 A 
ATOM     37  O   UNL     1       5.823   5.859  23.346  0.00  0.00    -0.451 OA
ATOM     38  C   UNL     1       2.817   3.958  22.256  0.00  0.00    +0.135 A 
ATOM     39  C   UNL     1       6.506   4.971  24.256  0.00  0.00    +0.181 A 
BRANCH  39  40
ATOM     40  C   UNL     1       7.927   5.594  24.680  0.00  0.00    +0.025 A 
ATOM     41  C   UNL     1       8.953   5.636  23.687  0.00  0.00    +0.015 A 
ATOM     42  C   UNL     1      10.271   6.123  23.902  0.00  0.00    +0.050 A 
ATOM     43  C   UNL     1      10.641   6.603  25.138  0.00  0.00    +0.158 A 
ATOM     44  C   UNL     1       9.706   6.583  26.165  0.00  0.00    +0.159 A 
ATOM     45  C   UNL     1       8.368   6.083  25.954  0.00  0.00    +0.060 A 
BRANCH  44  46
ATOM     46  O   UNL     1      10.178   7.071  27.364  0.00  0.00    -0.503 OA
ATOM     47  H   UNL     1       9.761   7.920  27.574  0.00  0.00    +0.292 HD
ENDBRANCH  44  46
BRANCH  43  48
ATOM     48  O   UNL     1      11.917   7.072  25.312  0.00  0.00    -0.503 OA
ATOM     49  H   UNL     1      12.237   7.354  24.432  0.00  0.00    +0.292 HD
ENDBRANCH  43  48
ENDBRANCH  39  40
BRANCH  38  50
ATOM     50  O   UNL     1       2.272   2.693  22.306  0.00  0.00    -0.506 OA
ATOM     51  H   UNL     1       2.876   2.119  22.792  0.00  0.00    +0.292 HD
ENDBRANCH  38  50
BRANCH  35  52
ATOM     52  O   UNL     1       1.918   7.062  20.686  0.00  0.00    -0.507 OA
ATOM     53  H   UNL     1       2.354   7.287  19.851  0.00  0.00    +0.292 HD
ENDBRANCH  35  52
ENDBRANCH  28  29
ENDBRANCH  16  28
ENDBRANCH  14  15
ENDBRANCH   2  14
BRANCH   1  54
ATOM     54  O   UNL     1       6.689  -1.988  24.919  0.00  0.00    -0.338 OA
BRANCH  54  57
ATOM     55  C   UNL     1       6.353  -4.944  27.199  0.00  0.00    +0.190 C 
ATOM     56  O   UNL     1       7.073  -3.843  26.539  0.00  0.00    -0.339 OA
ATOM     57  C   UNL     1       6.269  -3.256  25.513  0.00  0.00    +0.282 C 
ATOM     58  C   UNL     1       5.952  -4.224  24.370  0.00  0.00    +0.201 C 
ATOM     59  C   UNL     1       5.405  -5.544  24.863  0.00  0.00    +0.179 C 
ATOM     60  C   UNL     1       6.091  -6.049  26.137  0.00  0.00    +0.178 C 
BRANCH  58  61
ATOM     61  O   UNL     1       7.100  -4.415  23.521  0.00  0.00    -0.384 OA
ATOM     62  H   UNL     1       7.105  -5.366  23.285  0.00  0.00    +0.210 HD
ENDBRANCH  58  61
BRANCH  59  63
ATOM     63  O   UNL     1       5.539  -6.488  23.785  0.00  0.00    -0.386 OA
ATOM     64  H   UNL     1       5.164  -6.036  22.997  0.00  0.00    +0.210 HD
ENDBRANCH  59  63
BRANCH  60  65
ATOM     65  O   UNL     1       5.289  -7.102  26.676  0.00  0.00    -0.386 OA
ATOM     66  H   UNL     1       4.596  -7.295  26.038  0.00  0.00    +0.210 HD
ENDBRANCH  60  65
BRANCH  55  67
ATOM     67  C   UNL     1       5.078  -4.591  28.066  0.00  0.00    +0.266 C 
BRANCH  67  68
ATOM     68  O   UNL     1       4.423  -5.749  28.667  0.00  0.00    -0.459 OA
BRANCH  68  69
ATOM     69  C   UNL     1       3.065  -5.691  28.746  0.00  0.00    +0.332 C 
ATOM     70  O   UNL     1       2.443  -5.035  29.566  0.00  0.00    -0.246 OA
BRANCH  69  72
ATOM     71  C   UNL     1       2.243  -6.086  26.460  0.00  0.00    +0.015 C 
ATOM     72  C   UNL     1       2.419  -6.551  27.716  0.00  0.00    +0.092 C 
BRANCH  71  75
ATOM     73  C   UNL     1       0.889  -8.879  24.240  0.00  0.00    +0.162 A 
ATOM     74  C   UNL     1       1.231  -8.151  25.379  0.00  0.00    +0.057 A 
ATOM     75  C   UNL     1       1.717  -6.826  25.286  0.00  0.00    -0.021 A 
ATOM     76  C   UNL     1       1.834  -6.255  24.004  0.00  0.00    +0.012 A 
ATOM     77  C   UNL     1       1.487  -6.973  22.857  0.00  0.00    +0.050 A 
ATOM     78  C   UNL     1       1.028  -8.278  22.987  0.00  0.00    +0.158 A 
BRANCH  78  79
ATOM     79  O   UNL     1       0.730  -8.984  21.846  0.00  0.00    -0.503 OA
ATOM     80  H   UNL     1       1.119  -8.459  21.120  0.00  0.00    +0.292 HD
ENDBRANCH  78  79
BRANCH  73  82
ATOM     81  C   UNL     1       0.443 -10.869  25.452  0.00  0.00    +0.277 C 
ATOM     82  O   UNL     1       0.446 -10.176  24.210  0.00  0.00    -0.491 OA
ENDBRANCH  73  82
ENDBRANCH  71  75
ENDBRANCH  69  72
ENDBRANCH  68  69
ENDBRANCH  67  68
ENDBRANCH  55  67
ENDBRANCH  54  57
ENDBRANCH   1  54
TORSDOF 29
ENDMDL
MODEL 7
REMARK VINA RESULT:      -5.0      2.196      5.885
REMARK  Name = 
REMARK  30 active torsions:
REMARK  status: ('A' for Active; 'I' for Inactive)
REMARK    1  A    between atoms: C_1  and  O_2
REMARK    2  A    between atoms: O_2  and  C_3
REMARK    3  A    between atoms: C_4  and  O_77
REMARK    4  A    between atoms: C_7  and  C_9
REMARK    5  A    between atoms: C_10  and  C_11
REMARK    6  A    between atoms: C_11  and  O_13
REMARK    7  A    between atoms: O_13  and  C_14
REMARK    8  A    between atoms: C_14  and  C_15
REMARK    9  A    between atoms: C_16  and  O_76
REMARK   10  A    between atoms: C_18  and  O_75
REMARK   11  A    between atoms: C_20  and  O_74
REMARK   12  A    between atoms: C_21  and  O_24
REMARK   13  A    between atoms: O_24  and  C_25
REMARK   14  A    between atoms: C_26  and  O_73
REMARK   15  A    between atoms: C_28  and  O_72
REMARK   16  A    between atoms: C_30  and  C_70
REMARK   17  A    between atoms: C_32  and  O_34
REMARK   18  A    between atoms: O_34  and  C_35
REMARK   19  A    between atoms: C_36  and  O_69
REMARK   20  A    between atoms: C_38  and  O_68
REMARK   21  A    between atoms: C_40  and  C_66
REMARK   22  A    between atoms: C_42  and  O_44
REMARK   23  A    between atoms: O_44  and  C_45
REMARK   24  A    between atoms: C_46  and  C_58
REMARK   25  A    between atoms: C_50  and  O_57
REMARK   26  A    between atoms: C_52  and  O_56
REMARK   27  A    between atoms: C_60  and  O_65
REMARK   28  A    between atoms: C_61  and  O_64
REMARK   29  A    between atoms: C_66  and  O_67
REMARK   30  A    between atoms: C_70  and  O_71
REMARK                            x       y       z     vdW  Elec       q    Type
REMARK                         _______ _______ _______ _____ _____    ______ ____
ROOT
ATOM      1  C   UNL     1       8.089  -0.517  24.536  0.00  0.00    +0.208 C 
ATOM      2  C   UNL     1       8.470   0.894  25.161  0.00  0.00    +0.283 C 
ATOM      3  O   UNL     1       8.054   1.978  24.277  0.00  0.00    -0.341 OA
ATOM      4  C   UNL     1       8.389   1.893  22.857  0.00  0.00    +0.178 C 
ATOM      5  C   UNL     1       7.903   0.568  22.270  0.00  0.00    +0.177 C 
ATOM      6  C   UNL     1       8.640  -0.509  23.084  0.00  0.00    +0.179 C 
ENDROOT
BRANCH   5   7
ATOM      7  O   UNL     1       6.473   0.505  22.321  0.00  0.00    -0.386 OA
ATOM      8  H   UNL     1       6.162  -0.190  21.706  0.00  0.00    +0.210 HD
ENDBRANCH   5   7
BRANCH   6   9
ATOM      9  O   UNL     1       8.745  -1.725  22.343  0.00  0.00    -0.386 OA
ATOM     10  H   UNL     1       8.347  -2.446  22.862  0.00  0.00    +0.210 HD
ENDBRANCH   6   9
BRANCH   4  11
ATOM     11  C   UNL     1       9.886   2.049  22.449  0.00  0.00    +0.190 C 
BRANCH  11  12
ATOM     12  O   UNL     1      10.720   2.509  23.490  0.00  0.00    -0.392 OA
ATOM     13  H   UNL     1      11.618   2.587  23.134  0.00  0.00    +0.210 HD
ENDBRANCH  11  12
ENDBRANCH   4  11
BRANCH   2  14
ATOM     14  O   UNL     1       8.071   1.167  26.546  0.00  0.00    -0.337 OA
BRANCH  14  15
ATOM     15  C   UNL     1       6.685   1.488  26.902  0.00  0.00    +0.221 C 
ATOM     16  C   UNL     1       6.396   2.966  27.480  0.00  0.00    +0.340 C 
ATOM     17  O   UNL     1       6.295   3.153  28.910  0.00  0.00    -0.331 OA
ATOM     18  C   UNL     1       5.618   2.173  29.712  0.00  0.00    +0.179 C 
ATOM     19  C   UNL     1       5.949   0.714  29.320  0.00  0.00    +0.177 C 
ATOM     20  C   UNL     1       5.888   0.494  27.793  0.00  0.00    +0.180 C 
BRANCH  19  21
ATOM     21  O   UNL     1       4.994  -0.179  29.942  0.00  0.00    -0.386 OA
ATOM     22  H   UNL     1       4.099   0.159  29.753  0.00  0.00    +0.210 HD
ENDBRANCH  19  21
BRANCH  20  23
ATOM     23  O   UNL     1       6.164  -0.872  27.440  0.00  0.00    -0.386 OA
ATOM     24  H   UNL     1       5.343  -1.220  27.045  0.00  0.00    +0.210 HD
ENDBRANCH  20  23
BRANCH  18  25
ATOM     25  C   UNL     1       4.100   2.470  29.846  0.00  0.00    +0.190 C 
BRANCH  25  26
ATOM     26  O   UNL     1       3.407   2.336  28.602  0.00  0.00    -0.392 OA
ATOM     27  H   UNL     1       3.985   1.846  27.990  0.00  0.00    +0.210 HD
ENDBRANCH  25  26
ENDBRANCH  18  25
BRANCH  16  28
ATOM     28  O   UNL     1       7.082   4.067  26.770  0.00  0.00    -0.453 OA
BRANCH  28  29
ATOM     29  C   UNL     1       6.563   4.576  25.575  0.00  0.00    +0.214 A 
ATOM     30  C   UNL     1       5.109   4.271  25.239  0.00  0.00    +0.238 A 
ATOM     31  O   UNL     1       4.383   3.580  25.944  0.00  0.00    -0.283 OA
ATOM     32  C   UNL     1       4.486   4.875  24.077  0.00  0.00    +0.109 A 
ATOM     33  C   UNL     1       5.227   5.808  23.382  0.00  0.00    +0.147 A 
ATOM     34  C   UNL     1       4.557   6.578  22.407  0.00  0.00    +0.092 A 
ATOM     35  C   UNL     1       3.190   6.370  22.134  0.00  0.00    +0.124 A 
ATOM     36  C   UNL     1       2.477   5.374  22.778  0.00  0.00    +0.091 A 
ATOM     37  O   UNL     1       6.584   5.994  23.604  0.00  0.00    -0.451 OA
ATOM     38  C   UNL     1       3.128   4.625  23.747  0.00  0.00    +0.135 A 
ATOM     39  C   UNL     1       7.280   5.341  24.685  0.00  0.00    +0.181 A 
BRANCH  39  40
ATOM     40  C   UNL     1       8.846   5.707  24.641  0.00  0.00    +0.025 A 
ATOM     41  C   UNL     1       9.397   6.391  25.767  0.00  0.00    +0.015 A 
ATOM     42  C   UNL     1      10.750   6.814  25.877  0.00  0.00    +0.050 A 
ATOM     43  C   UNL     1      11.639   6.573  24.854  0.00  0.00    +0.158 A 
ATOM     44  C   UNL     1      11.179   5.925  23.714  0.00  0.00    +0.159 A 
ATOM     45  C   UNL     1       9.805   5.499  23.594  0.00  0.00    +0.060 A 
BRANCH  44  46
ATOM     46  O   UNL     1      12.141   5.744  22.744  0.00  0.00    -0.503 OA
ATOM     47  H   UNL     1      13.021   5.682  23.145  0.00  0.00    +0.292 HD
ENDBRANCH  44  46
BRANCH  43  48
ATOM     48  O   UNL     1      12.938   6.987  24.992  0.00  0.00    -0.503 OA
ATOM     49  H   UNL     1      12.938   7.958  24.876  0.00  0.00    +0.292 HD
ENDBRANCH  43  48
ENDBRANCH  39  40
BRANCH  38  50
ATOM     50  O   UNL     1       2.394   3.629  24.355  0.00  0.00    -0.506 OA
ATOM     51  H   UNL     1       2.306   3.842  25.292  0.00  0.00    +0.292 HD
ENDBRANCH  38  50
BRANCH  35  52
ATOM     52  O   UNL     1       2.470   7.107  21.236  0.00  0.00    -0.507 OA
ATOM     53  H   UNL     1       3.034   7.418  20.511  0.00  0.00    +0.292 HD
ENDBRANCH  35  52
ENDBRANCH  28  29
ENDBRANCH  16  28
ENDBRANCH  14  15
ENDBRANCH   2  14
BRANCH   1  54
ATOM     54  O   UNL     1       6.681  -0.943  24.548  0.00  0.00    -0.338 OA
BRANCH  54  57
ATOM     55  C   UNL     1       7.624  -4.571  24.626  0.00  0.00    +0.190 C 
ATOM     56  O   UNL     1       7.777  -3.160  24.234  0.00  0.00    -0.339 OA
ATOM     57  C   UNL     1       6.624  -2.403  24.609  0.00  0.00    +0.282 C 
ATOM     58  C   UNL     1       5.350  -2.849  23.884  0.00  0.00    +0.201 C 
ATOM     59  C   UNL     1       5.128  -4.341  23.970  0.00  0.00    +0.179 C 
ATOM     60  C   UNL     1       6.418  -5.158  23.841  0.00  0.00    +0.178 C 
BRANCH  58  61
ATOM     61  O   UNL     1       5.347  -2.395  22.517  0.00  0.00    -0.384 OA
ATOM     62  H   UNL     1       4.473  -2.647  22.151  0.00  0.00    +0.210 HD
ENDBRANCH  58  61
BRANCH  59  63
ATOM     63  O   UNL     1       4.181  -4.689  22.942  0.00  0.00    -0.386 OA
ATOM     64  H   UNL     1       4.480  -4.206  22.141  0.00  0.00    +0.210 HD
ENDBRANCH  59  63
BRANCH  60  65
ATOM     65  O   UNL     1       6.133  -6.495  24.258  0.00  0.00    -0.386 OA
ATOM     66  H   UNL     1       5.850  -6.987  23.481  0.00  0.00    +0.210 HD
ENDBRANCH  60  65
BRANCH  55  67
ATOM     67  C   UNL     1       7.599  -4.920  26.169  0.00  0.00    +0.266 C 
BRANCH  67  68
ATOM     68  O   UNL     1       6.701  -6.015  26.520  0.00  0.00    -0.459 OA
BRANCH  68  69
ATOM     69  C   UNL     1       6.275  -6.046  27.814  0.00  0.00    +0.332 C 
ATOM     70  O   UNL     1       6.895  -6.544  28.739  0.00  0.00    -0.246 OA
BRANCH  69  72
ATOM     71  C   UNL     1       4.837  -4.111  28.310  0.00  0.00    +0.015 C 
ATOM     72  C   UNL     1       4.935  -5.413  27.964  0.00  0.00    +0.092 C 
BRANCH  71  75
ATOM     73  C   UNL     1       1.894  -1.861  27.395  0.00  0.00    +0.162 A 
ATOM     74  C   UNL     1       2.956  -2.756  27.270  0.00  0.00    +0.057 A 
ATOM     75  C   UNL     1       3.605  -3.290  28.408  0.00  0.00    -0.021 A 
ATOM     76  C   UNL     1       3.138  -2.899  29.677  0.00  0.00    +0.012 A 
ATOM     77  C   UNL     1       2.069  -2.009  29.813  0.00  0.00    +0.050 A 
ATOM     78  C   UNL     1       1.467  -1.493  28.672  0.00  0.00    +0.158 A 
BRANCH  78  79
ATOM     79  O   UNL     1       0.444  -0.587  28.824  0.00  0.00    -0.503 OA
ATOM     80  H   UNL     1      -0.310  -1.116  29.149  0.00  0.00    +0.292 HD
ENDBRANCH  78  79
BRANCH  73  82
ATOM     81  C   UNL     1       0.448  -2.109  25.531  0.00  0.00    +0.277 C 
ATOM     82  O   UNL     1       1.220  -1.256  26.366  0.00  0.00    -0.491 OA
ENDBRANCH  73  82
ENDBRANCH  71  75
ENDBRANCH  69  72
ENDBRANCH  68  69
ENDBRANCH  67  68
ENDBRANCH  55  67
ENDBRANCH  54  57
ENDBRANCH   1  54
TORSDOF 29
ENDMDL
MODEL 8
REMARK VINA RESULT:      -4.8      2.211      7.359
REMARK  Name = 
REMARK  30 active torsions:
REMARK  status: ('A' for Active; 'I' for Inactive)
REMARK    1  A    between atoms: C_1  and  O_2
REMARK    2  A    between atoms: O_2  and  C_3
REMARK    3  A    between atoms: C_4  and  O_77
REMARK    4  A    between atoms: C_7  and  C_9
REMARK    5  A    between atoms: C_10  and  C_11
REMARK    6  A    between atoms: C_11  and  O_13
REMARK    7  A    between atoms: O_13  and  C_14
REMARK    8  A    between atoms: C_14  and  C_15
REMARK    9  A    between atoms: C_16  and  O_76
REMARK   10  A    between atoms: C_18  and  O_75
REMARK   11  A    between atoms: C_20  and  O_74
REMARK   12  A    between atoms: C_21  and  O_24
REMARK   13  A    between atoms: O_24  and  C_25
REMARK   14  A    between atoms: C_26  and  O_73
REMARK   15  A    between atoms: C_28  and  O_72
REMARK   16  A    between atoms: C_30  and  C_70
REMARK   17  A    between atoms: C_32  and  O_34
REMARK   18  A    between atoms: O_34  and  C_35
REMARK   19  A    between atoms: C_36  and  O_69
REMARK   20  A    between atoms: C_38  and  O_68
REMARK   21  A    between atoms: C_40  and  C_66
REMARK   22  A    between atoms: C_42  and  O_44
REMARK   23  A    between atoms: O_44  and  C_45
REMARK   24  A    between atoms: C_46  and  C_58
REMARK   25  A    between atoms: C_50  and  O_57
REMARK   26  A    between atoms: C_52  and  O_56
REMARK   27  A    between atoms: C_60  and  O_65
REMARK   28  A    between atoms: C_61  and  O_64
REMARK   29  A    between atoms: C_66  and  O_67
REMARK   30  A    between atoms: C_70  and  O_71
REMARK                            x       y       z     vdW  Elec       q    Type
REMARK                         _______ _______ _______ _____ _____    ______ ____
ROOT
ATOM      1  C   UNL     1       3.050   1.288  28.510  0.00  0.00    +0.208 C 
ATOM      2  C   UNL     1       2.507   1.446  27.025  0.00  0.00    +0.283 C 
ATOM      3  O   UNL     1       1.071   1.195  26.973  0.00  0.00    -0.341 OA
ATOM      4  C   UNL     1       0.544   0.000  27.631  0.00  0.00    +0.178 C 
ATOM      5  C   UNL     1       0.998  -0.052  29.090  0.00  0.00    +0.177 C 
ATOM      6  C   UNL     1       2.534  -0.087  29.015  0.00  0.00    +0.179 C 
ENDROOT
BRANCH   5   7
ATOM      7  O   UNL     1       0.443   1.051  29.816  0.00  0.00    -0.386 OA
ATOM      8  H   UNL     1       0.327   1.808  29.206  0.00  0.00    +0.210 HD
ENDBRANCH   5   7
BRANCH   6   9
ATOM      9  O   UNL     1       3.088  -0.683  30.189  0.00  0.00    -0.386 OA
ATOM     10  H   UNL     1       3.661  -1.423  29.925  0.00  0.00    +0.210 HD
ENDBRANCH   6   9
BRANCH   4  11
ATOM     11  C   UNL     1       0.874  -1.388  27.001  0.00  0.00    +0.190 C 
BRANCH  11  12
ATOM     12  O   UNL     1       0.595  -1.472  25.620  0.00  0.00    -0.392 OA
ATOM     13  H   UNL     1       0.835  -2.364  25.326  0.00  0.00    +0.210 HD
ENDBRANCH  11  12
ENDBRANCH   4  11
BRANCH   2  14
ATOM     14  O   UNL     1       2.850   2.668  26.290  0.00  0.00    -0.337 OA
BRANCH  14  15
ATOM     15  C   UNL     1       3.344   2.625  24.910  0.00  0.00    +0.221 C 
ATOM     16  C   UNL     1       4.870   2.153  24.686  0.00  0.00    +0.340 C 
ATOM     17  O   UNL     1       5.896   3.156  24.508  0.00  0.00    -0.331 OA
ATOM     18  C   UNL     1       5.625   4.322  23.717  0.00  0.00    +0.179 C 
ATOM     19  C   UNL     1       4.228   4.934  23.972  0.00  0.00    +0.177 C 
ATOM     20  C   UNL     1       3.118   3.861  23.992  0.00  0.00    +0.180 C 
BRANCH  19  21
ATOM     21  O   UNL     1       3.919   5.881  22.921  0.00  0.00    -0.386 OA
ATOM     22  H   UNL     1       4.109   5.454  22.066  0.00  0.00    +0.210 HD
ENDBRANCH  19  21
BRANCH  20  23
ATOM     23  O   UNL     1       1.818   4.442  24.196  0.00  0.00    -0.386 OA
ATOM     24  H   UNL     1       1.942   5.158  24.846  0.00  0.00    +0.210 HD
ENDBRANCH  20  23
BRANCH  18  25
ATOM     25  C   UNL     1       5.965   4.107  22.217  0.00  0.00    +0.190 C 
BRANCH  25  26
ATOM     26  O   UNL     1       7.181   4.758  21.836  0.00  0.00    -0.392 OA
ATOM     27  H   UNL     1       7.651   5.010  22.651  0.00  0.00    +0.210 HD
ENDBRANCH  25  26
ENDBRANCH  18  25
BRANCH  16  28
ATOM     28  O   UNL     1       5.293   0.985  25.489  0.00  0.00    -0.453 OA
BRANCH  28  29
ATOM     29  C   UNL     1       5.515  -0.254  24.880  0.00  0.00    +0.214 A 
ATOM     30  C   UNL     1       4.656  -1.432  25.321  0.00  0.00    +0.238 A 
ATOM     31  O   UNL     1       3.804  -1.357  26.198  0.00  0.00    -0.283 OA
ATOM     32  C   UNL     1       4.759  -2.708  24.637  0.00  0.00    +0.109 A 
ATOM     33  C   UNL     1       5.569  -2.758  23.521  0.00  0.00    +0.147 A 
ATOM     34  C   UNL     1       5.491  -3.909  22.710  0.00  0.00    +0.092 A 
ATOM     35  C   UNL     1       4.642  -4.980  23.053  0.00  0.00    +0.124 A 
ATOM     36  C   UNL     1       3.896  -4.955  24.219  0.00  0.00    +0.091 A 
ATOM     37  O   UNL     1       6.446  -1.733  23.194  0.00  0.00    -0.451 OA
ATOM     38  C   UNL     1       3.959  -3.819  25.012  0.00  0.00    +0.135 A 
ATOM     39  C   UNL     1       6.458  -0.477  23.904  0.00  0.00    +0.181 A 
BRANCH  39  40
ATOM     40  C   UNL     1       7.622   0.475  23.333  0.00  0.00    +0.025 A 
ATOM     41  C   UNL     1       8.336   0.026  22.180  0.00  0.00    +0.015 A 
ATOM     42  C   UNL     1       9.411   0.727  21.568  0.00  0.00    +0.050 A 
ATOM     43  C   UNL     1       9.836   1.932  22.080  0.00  0.00    +0.158 A 
ATOM     44  C   UNL     1       9.203   2.433  23.211  0.00  0.00    +0.159 A 
ATOM     45  C   UNL     1       8.116   1.722  23.840  0.00  0.00    +0.060 A 
BRANCH  44  46
ATOM     46  O   UNL     1       9.710   3.636  23.653  0.00  0.00    -0.503 OA
ATOM     47  H   UNL     1       9.086   4.067  24.256  0.00  0.00    +0.292 HD
ENDBRANCH  44  46
BRANCH  43  48
ATOM     48  O   UNL     1      10.869   2.588  21.464  0.00  0.00    -0.503 OA
ATOM     49  H   UNL     1      10.526   3.462  21.190  0.00  0.00    +0.292 HD
ENDBRANCH  43  48
ENDBRANCH  39  40
BRANCH  38  50
ATOM     50  O   UNL     1       3.220  -3.835  26.175  0.00  0.00    -0.506 OA
ATOM     51  H   UNL     1       2.343  -3.480  25.986  0.00  0.00    +0.292 HD
ENDBRANCH  38  50
BRANCH  35  52
ATOM     52  O   UNL     1       4.485  -6.105  22.291  0.00  0.00    -0.507 OA
ATOM     53  H   UNL     1       4.594  -5.903  21.349  0.00  0.00    +0.292 HD
ENDBRANCH  35  52
ENDBRANCH  28  29
ENDBRANCH  16  28
ENDBRANCH  14  15
ENDBRANCH   2  14
BRANCH   1  54
ATOM     54  O   UNL     1       2.752   2.340  29.493  0.00  0.00    -0.338 OA
BRANCH  54  57
ATOM     55  C   UNL     1       5.759   4.498  30.085  0.00  0.00    +0.190 C 
ATOM     56  O   UNL     1       4.656   3.609  30.483  0.00  0.00    -0.339 OA
ATOM     57  C   UNL     1       3.761   3.393  29.389  0.00  0.00    +0.282 C 
ATOM     58  C   UNL     1       3.053   4.672  28.931  0.00  0.00    +0.201 C 
ATOM     59  C   UNL     1       4.016   5.811  28.688  0.00  0.00    +0.179 C 
ATOM     60  C   UNL     1       5.150   5.880  29.717  0.00  0.00    +0.178 C 
BRANCH  58  61
ATOM     61  O   UNL     1       2.016   5.049  29.857  0.00  0.00    -0.384 OA
ATOM     62  H   UNL     1       1.180   5.036  29.345  0.00  0.00    +0.210 HD
ENDBRANCH  58  61
BRANCH  59  63
ATOM     63  O   UNL     1       3.242   7.025  28.677  0.00  0.00    -0.386 OA
ATOM     64  H   UNL     1       2.986   7.177  29.613  0.00  0.00    +0.210 HD
ENDBRANCH  59  63
BRANCH  60  65
ATOM     65  O   UNL     1       6.150   6.764  29.206  0.00  0.00    -0.386 OA
ATOM     66  H   UNL     1       6.378   7.381  29.908  0.00  0.00    +0.210 HD
ENDBRANCH  60  65
BRANCH  55  67
ATOM     67  C   UNL     1       6.803   3.967  29.021  0.00  0.00    +0.266 C 
BRANCH  67  68
ATOM     68  O   UNL     1       7.619   2.852  29.489  0.00  0.00    -0.459 OA
BRANCH  68  69
ATOM     69  C   UNL     1       7.042   1.620  29.419  0.00  0.00    +0.332 C 
ATOM     70  O   UNL     1       6.390   1.106  30.313  0.00  0.00    -0.246 OA
BRANCH  69  72
ATOM     71  C   UNL     1       8.203  -0.068  28.055  0.00  0.00    +0.015 C 
ATOM     72  C   UNL     1       7.324   0.956  28.116  0.00  0.00    +0.092 C 
BRANCH  71  75
ATOM     73  C   UNL     1       8.440  -3.038  25.670  0.00  0.00    +0.162 A 
ATOM     74  C   UNL     1       7.997  -2.206  26.698  0.00  0.00    +0.057 A 
ATOM     75  C   UNL     1       8.532  -0.910  26.878  0.00  0.00    -0.021 A 
ATOM     76  C   UNL     1       9.523  -0.475  25.977  0.00  0.00    +0.012 A 
ATOM     77  C   UNL     1       9.969  -1.297  24.939  0.00  0.00    +0.050 A 
ATOM     78  C   UNL     1       9.430  -2.570  24.803  0.00  0.00    +0.158 A 
BRANCH  78  79
ATOM     79  O   UNL     1       9.910  -3.381  23.802  0.00  0.00    -0.503 OA
ATOM     80  H   UNL     1      10.870  -3.205  23.779  0.00  0.00    +0.292 HD
ENDBRANCH  78  79
BRANCH  73  82
ATOM     81  C   UNL     1       8.004  -5.200  26.543  0.00  0.00    +0.277 C 
ATOM     82  O   UNL     1       8.020  -4.319  25.426  0.00  0.00    -0.491 OA
ENDBRANCH  73  82
ENDBRANCH  71  75
ENDBRANCH  69  72
ENDBRANCH  68  69
ENDBRANCH  67  68
ENDBRANCH  55  67
ENDBRANCH  54  57
ENDBRANCH   1  54
TORSDOF 29
ENDMDL
MODEL 9
REMARK VINA RESULT:      -4.4      2.181      5.563
REMARK  Name = 
REMARK  30 active torsions:
REMARK  status: ('A' for Active; 'I' for Inactive)
REMARK    1  A    between atoms: C_1  and  O_2
REMARK    2  A    between atoms: O_2  and  C_3
REMARK    3  A    between atoms: C_4  and  O_77
REMARK    4  A    between atoms: C_7  and  C_9
REMARK    5  A    between atoms: C_10  and  C_11
REMARK    6  A    between atoms: C_11  and  O_13
REMARK    7  A    between atoms: O_13  and  C_14
REMARK    8  A    between atoms: C_14  and  C_15
REMARK    9  A    between atoms: C_16  and  O_76
REMARK   10  A    between atoms: C_18  and  O_75
REMARK   11  A    between atoms: C_20  and  O_74
REMARK   12  A    between atoms: C_21  and  O_24
REMARK   13  A    between atoms: O_24  and  C_25
REMARK   14  A    between atoms: C_26  and  O_73
REMARK   15  A    between atoms: C_28  and  O_72
REMARK   16  A    between atoms: C_30  and  C_70
REMARK   17  A    between atoms: C_32  and  O_34
REMARK   18  A    between atoms: O_34  and  C_35
REMARK   19  A    between atoms: C_36  and  O_69
REMARK   20  A    between atoms: C_38  and  O_68
REMARK   21  A    between atoms: C_40  and  C_66
REMARK   22  A    between atoms: C_42  and  O_44
REMARK   23  A    between atoms: O_44  and  C_45
REMARK   24  A    between atoms: C_46  and  C_58
REMARK   25  A    between atoms: C_50  and  O_57
REMARK   26  A    between atoms: C_52  and  O_56
REMARK   27  A    between atoms: C_60  and  O_65
REMARK   28  A    between atoms: C_61  and  O_64
REMARK   29  A    between atoms: C_66  and  O_67
REMARK   30  A    between atoms: C_70  and  O_71
REMARK                            x       y       z     vdW  Elec       q    Type
REMARK                         _______ _______ _______ _____ _____    ______ ____
ROOT
ATOM      1  C   UNL     1       3.024  -1.020  27.542  0.00  0.00    +0.208 C 
ATOM      2  C   UNL     1       3.321   0.501  27.193  0.00  0.00    +0.283 C 
ATOM      3  O   UNL     1       2.210   1.351  27.605  0.00  0.00    -0.341 OA
ATOM      4  C   UNL     1       0.851   0.956  27.240  0.00  0.00    +0.178 C 
ATOM      5  C   UNL     1       0.569  -0.476  27.697  0.00  0.00    +0.177 C 
ATOM      6  C   UNL     1       1.617  -1.329  26.962  0.00  0.00    +0.179 C 
ENDROOT
BRANCH   5   7
ATOM      7  O   UNL     1       0.609  -0.551  29.127  0.00  0.00    -0.386 OA
ATOM      8  H   UNL     1       0.209   0.261  29.500  0.00  0.00    +0.210 HD
ENDBRANCH   5   7
BRANCH   6   9
ATOM      9  O   UNL     1       1.170  -2.679  26.826  0.00  0.00    -0.386 OA
ATOM     10  H   UNL     1       1.335  -3.151  27.661  0.00  0.00    +0.210 HD
ENDBRANCH   6   9
BRANCH   4  11
ATOM     11  C   UNL     1       0.443   1.042  25.737  0.00  0.00    +0.190 C 
BRANCH  11  12
ATOM     12  O   UNL     1       0.996   2.147  25.056  0.00  0.00    -0.392 OA
ATOM     13  H   UNL     1       0.624   2.156  24.161  0.00  0.00    +0.210 HD
ENDBRANCH  11  12
ENDBRANCH   4  11
BRANCH   2  14
ATOM     14  O   UNL     1       4.603   1.071  27.623  0.00  0.00    -0.337 OA
BRANCH  14  15
ATOM     15  C   UNL     1       4.915   2.493  27.441  0.00  0.00    +0.221 C 
ATOM     16  C   UNL     1       6.388   2.860  26.895  0.00  0.00    +0.340 C 
ATOM     17  O   UNL     1       7.409   3.256  27.839  0.00  0.00    -0.331 OA
ATOM     18  C   UNL     1       7.069   4.111  28.941  0.00  0.00    +0.179 C 
ATOM     19  C   UNL     1       5.731   3.741  29.624  0.00  0.00    +0.177 C 
ATOM     20  C   UNL     1       4.606   3.485  28.598  0.00  0.00    +0.180 C 
BRANCH  19  21
ATOM     21  O   UNL     1       5.315   4.829  30.485  0.00  0.00    -0.386 OA
ATOM     22  H   UNL     1       4.354   4.750  30.627  0.00  0.00    +0.210 HD
ENDBRANCH  19  21
BRANCH  20  23
ATOM     23  O   UNL     1       3.358   3.175  29.242  0.00  0.00    -0.386 OA
ATOM     24  H   UNL     1       2.801   3.970  29.146  0.00  0.00    +0.210 HD
ENDBRANCH  20  23
BRANCH  18  25
ATOM     25  C   UNL     1       7.210   5.615  28.582  0.00  0.00    +0.190 C 
BRANCH  25  26
ATOM     26  O   UNL     1       8.151   5.838  27.529  0.00  0.00    -0.392 OA
ATOM     27  H   UNL     1       8.334   6.794  27.489  0.00  0.00    +0.210 HD
ENDBRANCH  25  26
ENDBRANCH  18  25
BRANCH  16  28
ATOM     28  O   UNL     1       6.880   2.012  25.787  0.00  0.00    -0.453 OA
BRANCH  28  29
ATOM     29  C   UNL     1       8.035   2.362  25.081  0.00  0.00    +0.214 A 
ATOM     30  C   UNL     1       8.221   3.823  24.692  0.00  0.00    +0.238 A 
ATOM     31  O   UNL     1       7.399   4.699  24.938  0.00  0.00    -0.283 OA
ATOM     32  C   UNL     1       9.455   4.262  24.069  0.00  0.00    +0.109 A 
ATOM     33  C   UNL     1      10.469   3.332  23.961  0.00  0.00    +0.147 A 
ATOM     34  C   UNL     1      11.746   3.800  23.588  0.00  0.00    +0.092 A 
ATOM     35  C   UNL     1      11.963   5.162  23.301  0.00  0.00    +0.124 A 
ATOM     36  C   UNL     1      10.920   6.072  23.330  0.00  0.00    +0.091 A 
ATOM     37  O   UNL     1      10.263   1.979  24.194  0.00  0.00    -0.451 OA
ATOM     38  C   UNL     1       9.666   5.619  23.711  0.00  0.00    +0.135 A 
ATOM     39  C   UNL     1       9.019   1.472  24.720  0.00  0.00    +0.181 A 
BRANCH  39  40
ATOM     40  C   UNL     1       9.069  -0.133  24.817  0.00  0.00    +0.025 A 
ATOM     41  C   UNL     1       9.716  -0.840  23.758  0.00  0.00    +0.015 A 
ATOM     42  C   UNL     1       9.822  -2.255  23.672  0.00  0.00    +0.050 A 
ATOM     43  C   UNL     1       9.280  -3.053  24.655  0.00  0.00    +0.158 A 
ATOM     44  C   UNL     1       8.618  -2.444  25.714  0.00  0.00    +0.159 A 
ATOM     45  C   UNL     1       8.502  -1.008  25.802  0.00  0.00    +0.060 A 
BRANCH  44  46
ATOM     46  O   UNL     1       8.100  -3.328  26.636  0.00  0.00    -0.503 OA
ATOM     47  H   UNL     1       8.732  -3.478  27.356  0.00  0.00    +0.292 HD
ENDBRANCH  44  46
BRANCH  43  48
ATOM     48  O   UNL     1       9.404  -4.413  24.548  0.00  0.00    -0.503 OA
ATOM     49  H   UNL     1       9.184  -4.645  23.624  0.00  0.00    +0.292 HD
ENDBRANCH  43  48
ENDBRANCH  39  40
BRANCH  38  50
ATOM     50  O   UNL     1       8.647   6.547  23.711  0.00  0.00    -0.506 OA
ATOM     51  H   UNL     1       8.175   6.484  24.551  0.00  0.00    +0.292 HD
ENDBRANCH  38  50
BRANCH  35  52
ATOM     52  O   UNL     1      13.181   5.690  22.975  0.00  0.00    -0.507 OA
ATOM     53  H   UNL     1      13.292   5.739  22.013  0.00  0.00    +0.292 HD
ENDBRANCH  35  52
ENDBRANCH  28  29
ENDBRANCH  16  28
ENDBRANCH  14  15
ENDBRANCH   2  14
BRANCH   1  54
ATOM     54  O   UNL     1       3.107  -1.458  28.944  0.00  0.00    -0.338 OA
BRANCH  54  57
ATOM     55  C   UNL     1       3.062  -5.044  30.033  0.00  0.00    +0.190 C 
ATOM     56  O   UNL     1       3.150  -3.589  30.236  0.00  0.00    -0.339 OA
ATOM     57  C   UNL     1       3.270  -2.910  28.984  0.00  0.00    +0.282 C 
ATOM     58  C   UNL     1       4.561  -3.254  28.235  0.00  0.00    +0.201 C 
ATOM     59  C   UNL     1       4.784  -4.744  28.121  0.00  0.00    +0.179 C 
ATOM     60  C   UNL     1       4.393  -5.518  29.385  0.00  0.00    +0.178 C 
BRANCH  58  61
ATOM     61  O   UNL     1       5.696  -2.597  28.833  0.00  0.00    -0.384 OA
ATOM     62  H   UNL     1       6.416  -2.647  28.169  0.00  0.00    +0.210 HD
ENDBRANCH  58  61
BRANCH  59  63
ATOM     63  O   UNL     1       6.172  -4.942  27.793  0.00  0.00    -0.386 OA
ATOM     64  H   UNL     1       6.459  -5.708  28.337  0.00  0.00    +0.210 HD
ENDBRANCH  59  63
BRANCH  60  65
ATOM     65  O   UNL     1       4.336  -6.906  29.047  0.00  0.00    -0.386 OA
ATOM     66  H   UNL     1       3.484  -7.242  29.341  0.00  0.00    +0.210 HD
ENDBRANCH  60  65
BRANCH  55  67
ATOM     67  C   UNL     1       1.774  -5.624  29.321  0.00  0.00    +0.266 C 
BRANCH  67  68
ATOM     68  O   UNL     1       1.692  -5.324  27.895  0.00  0.00    -0.459 OA
BRANCH  68  69
ATOM     69  C   UNL     1       1.535  -6.395  27.068  0.00  0.00    +0.332 C 
ATOM     70  O   UNL     1       0.963  -7.429  27.370  0.00  0.00    -0.246 OA
BRANCH  69  72
ATOM     71  C   UNL     1       3.422  -5.654  25.671  0.00  0.00    +0.015 C 
ATOM     72  C   UNL     1       2.171  -6.161  25.741  0.00  0.00    +0.092 C 
BRANCH  71  75
ATOM     73  C   UNL     1       5.258  -3.988  22.771  0.00  0.00    +0.162 A 
ATOM     74  C   UNL     1       4.618  -4.163  23.997  0.00  0.00    +0.057 A 
ATOM     75  C   UNL     1       4.248  -5.449  24.456  0.00  0.00    -0.021 A 
ATOM     76  C   UNL     1       4.559  -6.554  23.641  0.00  0.00    +0.012 A 
ATOM     77  C   UNL     1       5.208  -6.390  22.415  0.00  0.00    +0.050 A 
ATOM     78  C   UNL     1       5.541  -5.110  21.990  0.00  0.00    +0.158 A 
BRANCH  78  79
ATOM     79  O   UNL     1       6.143  -4.963  20.762  0.00  0.00    -0.503 OA
ATOM     80  H   UNL     1       6.806  -4.259  20.893  0.00  0.00    +0.292 HD
ENDBRANCH  78  79
BRANCH  73  82
ATOM     81  C   UNL     1       6.071  -1.785  23.116  0.00  0.00    +0.277 C 
ATOM     82  O   UNL     1       5.627  -2.791  22.214  0.00  0.00    -0.491 OA
ENDBRANCH  73  82
ENDBRANCH  71  75
ENDBRANCH  69  72
ENDBRANCH  68  69
ENDBRANCH  67  68
ENDBRANCH  55  67
ENDBRANCH  54  57
ENDBRANCH   1  54
TORSDOF 29
ENDMDL
