MODEL 1
REMARK VINA RESULT:      -6.6      0.000      0.000
REMARK  Name = 
REMARK  24 active torsions:
REMARK  status: ('A' for Active; 'I' for Inactive)
REMARK    1  A    between atoms: C_3  and  O_49
REMARK    2  A    between atoms: C_4  and  O_48
REMARK    3  A    between atoms: C_6  and  C_7
REMARK    4  A    between atoms: C_8  and  O_34
REMARK    5  A    between atoms: C_12  and  O_33
REMARK    6  A    between atoms: C_14  and  O_18
REMARK    7  A    between atoms: O_18  and  C_19
REMARK    8  A    between atoms: C_21  and  O_32
REMARK    9  A    between atoms: C_22  and  O_31
REMARK   10  A    between atoms: C_23  and  O_30
REMARK   11  A    between atoms: C_25  and  C_28
REMARK   12  A    between atoms: C_28  and  O_29
REMARK   13  A    between atoms: O_34  and  C_35
REMARK   14  A    between atoms: C_37  and  O_47
REMARK   15  A    between atoms: C_38  and  O_46
REMARK   16  A    between atoms: C_39  and  O_45
REMARK   17  A    between atoms: C_41  and  C_43
REMARK   18  A    between atoms: C_43  and  O_44
REMARK   19  A    between atoms: O_49  and  C_50
REMARK   20  A    between atoms: C_52  and  O_62
REMARK   21  A    between atoms: C_53  and  O_61
REMARK   22  A    between atoms: C_54  and  O_60
REMARK   23  A    between atoms: C_56  and  C_58
REMARK   24  A    between atoms: C_58  and  O_59
REMARK                            x       y       z     vdW  Elec       q    Type
REMARK                         _______ _______ _______ _____ _____    ______ ____
ROOT
ATOM      1  C   UNL     1       5.569  -2.001  24.767  0.00  0.00    +0.181 A 
ATOM      2  O   UNL     1       6.145  -0.754  24.669  0.00  0.00    -0.451 OA
ATOM      3  C   UNL     1       7.080  -0.465  23.722  0.00  0.00    +0.147 A 
ATOM      4  C   UNL     1       7.621  -1.416  22.895  0.00  0.00    +0.109 A 
ATOM      5  C   UNL     1       8.630  -1.001  22.003  0.00  0.00    +0.135 A 
ATOM      6  C   UNL     1       8.992   0.364  21.884  0.00  0.00    +0.092 A 
ATOM      7  C   UNL     1       8.365   1.333  22.670  0.00  0.00    +0.131 A 
ATOM      8  C   UNL     1       7.063  -2.799  23.012  0.00  0.00    +0.238 A 
ATOM      9  O   UNL     1       7.553  -3.696  22.330  0.00  0.00    -0.283 OA
ATOM     10  C   UNL     1       7.460   0.885  23.635  0.00  0.00    +0.093 A 
ATOM     11  C   UNL     1       5.904  -3.037  23.963  0.00  0.00    +0.214 A 
ENDROOT
BRANCH   1  13
ATOM     12  C   UNL     1       5.152  -1.599  27.162  0.00  0.00    +0.015 A 
ATOM     13  C   UNL     1       4.618  -2.039  25.932  0.00  0.00    +0.025 A 
ATOM     14  C   UNL     1       3.319  -2.560  25.979  0.00  0.00    +0.060 A 
ATOM     15  C   UNL     1       2.648  -2.723  27.216  0.00  0.00    +0.159 A 
ATOM     16  C   UNL     1       3.263  -2.434  28.437  0.00  0.00    +0.165 A 
ATOM     17  C   UNL     1       4.492  -1.798  28.369  0.00  0.00    +0.050 A 
BRANCH  15  18
ATOM     18  O   UNL     1       1.366  -3.198  27.174  0.00  0.00    -0.503 OA
ATOM     19  H   UNL     1       1.012  -3.096  28.078  0.00  0.00    +0.292 HD
ENDBRANCH  15  18
BRANCH  16  20
ATOM     20  O   UNL     1       2.657  -2.770  29.642  0.00  0.00    -0.457 OA
BRANCH  20  21
ATOM     21  C   UNL     1       2.956  -4.131  30.089  0.00  0.00    +0.339 C 
ATOM     22  O   UNL     1       4.216  -4.622  29.580  0.00  0.00    -0.331 OA
ATOM     23  C   UNL     1       4.213  -5.566  28.504  0.00  0.00    +0.179 C 
ATOM     24  C   UNL     1       3.219  -6.716  28.724  0.00  0.00    +0.177 C 
ATOM     25  C   UNL     1       1.834  -6.104  28.797  0.00  0.00    +0.180 C 
ATOM     26  C   UNL     1       1.747  -5.123  29.966  0.00  0.00    +0.214 C 
BRANCH  26  27
ATOM     27  O   UNL     1       0.455  -4.503  29.971  0.00  0.00    -0.383 OA
ATOM     28  H   UNL     1      -0.211  -5.167  30.221  0.00  0.00    +0.210 HD
ENDBRANCH  26  27
BRANCH  25  29
ATOM     29  O   UNL     1       0.862  -7.157  28.956  0.00  0.00    -0.386 OA
ATOM     30  H   UNL     1       1.339  -7.970  29.187  0.00  0.00    +0.210 HD
ENDBRANCH  25  29
BRANCH  24  31
ATOM     31  O   UNL     1       3.462  -7.416  29.952  0.00  0.00    -0.386 OA
ATOM     32  H   UNL     1       4.429  -7.534  30.019  0.00  0.00    +0.210 HD
ENDBRANCH  24  31
BRANCH  23  33
ATOM     33  C   UNL     1       5.650  -6.113  28.335  0.00  0.00    +0.190 C 
BRANCH  33  34
ATOM     34  O   UNL     1       5.697  -7.531  28.196  0.00  0.00    -0.392 OA
ATOM     35  H   UNL     1       5.000  -7.891  28.779  0.00  0.00    +0.210 HD
ENDBRANCH  33  34
ENDBRANCH  23  33
ENDBRANCH  20  21
ENDBRANCH  16  20
ENDBRANCH   1  13
BRANCH   5  36
ATOM     36  O   UNL     1       9.312  -1.879  21.204  0.00  0.00    -0.506 OA
ATOM     37  H   UNL     1      10.248  -1.913  21.499  0.00  0.00    +0.292 HD
ENDBRANCH   5  36
BRANCH  11  38
ATOM     38  O   UNL     1       5.435  -4.318  24.188  0.00  0.00    -0.453 OA
BRANCH  38  39
ATOM     39  C   UNL     1       4.695  -5.024  23.166  0.00  0.00    +0.340 C 
ATOM     40  O   UNL     1       3.362  -4.492  23.039  0.00  0.00    -0.331 OA
ATOM     41  C   UNL     1       2.338  -4.889  23.995  0.00  0.00    +0.179 C 
ATOM     42  C   UNL     1       2.629  -6.038  24.999  0.00  0.00    +0.177 C 
ATOM     43  C   UNL     1       4.075  -6.517  24.998  0.00  0.00    +0.180 C 
ATOM     44  C   UNL     1       4.574  -6.509  23.548  0.00  0.00    +0.214 C 
BRANCH  44  45
ATOM     45  O   UNL     1       5.760  -7.291  23.434  0.00  0.00    -0.383 OA
ATOM     46  H   UNL     1       5.524  -8.242  23.410  0.00  0.00    +0.210 HD
ENDBRANCH  44  45
BRANCH  43  47
ATOM     47  O   UNL     1       4.130  -7.835  25.568  0.00  0.00    -0.386 OA
ATOM     48  H   UNL     1       3.397  -7.859  26.218  0.00  0.00    +0.210 HD
ENDBRANCH  43  47
BRANCH  42  49
ATOM     49  O   UNL     1       1.812  -7.199  24.739  0.00  0.00    -0.386 OA
ATOM     50  H   UNL     1       2.435  -7.956  24.818  0.00  0.00    +0.210 HD
ENDBRANCH  42  49
BRANCH  41  51
ATOM     51  C   UNL     1       1.063  -5.207  23.167  0.00  0.00    +0.190 C 
BRANCH  51  52
ATOM     52  O   UNL     1       1.331  -6.231  22.209  0.00  0.00    -0.392 OA
ATOM     53  H   UNL     1       2.051  -6.762  22.592  0.00  0.00    +0.210 HD
ENDBRANCH  51  52
ENDBRANCH  41  51
ENDBRANCH  38  39
ENDBRANCH  11  38
BRANCH   7  54
ATOM     54  O   UNL     1       8.628   2.679  22.409  0.00  0.00    -0.461 OA
BRANCH  54  55
ATOM     55  C   UNL     1       8.783   3.471  23.611  0.00  0.00    +0.339 C 
ATOM     56  O   UNL     1       7.827   4.534  23.630  0.00  0.00    -0.331 OA
ATOM     57  C   UNL     1       8.162   5.604  22.730  0.00  0.00    +0.179 C 
ATOM     58  C   UNL     1       9.376   6.334  23.301  0.00  0.00    +0.177 C 
ATOM     59  C   UNL     1      10.563   5.366  23.307  0.00  0.00    +0.180 C 
ATOM     60  C   UNL     1      10.205   4.012  23.950  0.00  0.00    +0.214 C 
BRANCH  60  61
ATOM     61  O   UNL     1      11.252   3.057  23.747  0.00  0.00    -0.383 OA
ATOM     62  H   UNL     1      11.636   3.210  22.864  0.00  0.00    +0.210 HD
ENDBRANCH  60  61
BRANCH  59  63
ATOM     63  O   UNL     1      11.647   6.015  24.002  0.00  0.00    -0.386 OA
ATOM     64  H   UNL     1      12.407   5.403  24.026  0.00  0.00    +0.210 HD
ENDBRANCH  59  63
BRANCH  58  65
ATOM     65  O   UNL     1       9.107   6.770  24.643  0.00  0.00    -0.386 OA
ATOM     66  H   UNL     1       8.396   7.436  24.575  0.00  0.00    +0.210 HD
ENDBRANCH  58  65
BRANCH  57  67
ATOM     67  C   UNL     1       6.943   6.522  22.596  0.00  0.00    +0.190 C 
BRANCH  67  68
ATOM     68  O   UNL     1       6.753   6.929  21.235  0.00  0.00    -0.392 OA
ATOM     69  H   UNL     1       5.840   7.252  21.140  0.00  0.00    +0.210 HD
ENDBRANCH  67  68
ENDBRANCH  57  67
ENDBRANCH  54  55
ENDBRANCH   7  54
TORSDOF 24
ENDMDL
MODEL 2
REMARK VINA RESULT:      -6.3      1.339      1.932
REMARK  Name = 
REMARK  24 active torsions:
REMARK  status: ('A' for Active; 'I' for Inactive)
REMARK    1  A    between atoms: C_3  and  O_49
REMARK    2  A    between atoms: C_4  and  O_48
REMARK    3  A    between atoms: C_6  and  C_7
REMARK    4  A    between atoms: C_8  and  O_34
REMARK    5  A    between atoms: C_12  and  O_33
REMARK    6  A    between atoms: C_14  and  O_18
REMARK    7  A    between atoms: O_18  and  C_19
REMARK    8  A    between atoms: C_21  and  O_32
REMARK    9  A    between atoms: C_22  and  O_31
REMARK   10  A    between atoms: C_23  and  O_30
REMARK   11  A    between atoms: C_25  and  C_28
REMARK   12  A    between atoms: C_28  and  O_29
REMARK   13  A    between atoms: O_34  and  C_35
REMARK   14  A    between atoms: C_37  and  O_47
REMARK   15  A    between atoms: C_38  and  O_46
REMARK   16  A    between atoms: C_39  and  O_45
REMARK   17  A    between atoms: C_41  and  C_43
REMARK   18  A    between atoms: C_43  and  O_44
REMARK   19  A    between atoms: O_49  and  C_50
REMARK   20  A    between atoms: C_52  and  O_62
REMARK   21  A    between atoms: C_53  and  O_61
REMARK   22  A    between atoms: C_54  and  O_60
REMARK   23  A    between atoms: C_56  and  C_58
REMARK   24  A    between atoms: C_58  and  O_59
REMARK                            x       y       z     vdW  Elec       q    Type
REMARK                         _______ _______ _______ _____ _____    ______ ____
ROOT
ATOM      1  C   UNL     1       6.016  -2.119  25.469  0.00  0.00    +0.181 A 
ATOM      2  O   UNL     1       6.866  -1.061  25.707  0.00  0.00    -0.451 OA
ATOM      3  C   UNL     1       7.944  -0.812  24.912  0.00  0.00    +0.147 A 
ATOM      4  C   UNL     1       8.346  -1.662  23.915  0.00  0.00    +0.109 A 
ATOM      5  C   UNL     1       9.518  -1.324  23.208  0.00  0.00    +0.135 A 
ATOM      6  C   UNL     1      10.191  -0.098  23.440  0.00  0.00    +0.092 A 
ATOM      7  C   UNL     1       9.713   0.799  24.398  0.00  0.00    +0.131 A 
ATOM      8  C   UNL     1       7.480  -2.856  23.664  0.00  0.00    +0.238 A 
ATOM      9  O   UNL     1       7.829  -3.675  22.816  0.00  0.00    -0.283 OA
ATOM     10  C   UNL     1       8.627   0.387  25.174  0.00  0.00    +0.093 A 
ATOM     11  C   UNL     1       6.198  -3.003  24.461  0.00  0.00    +0.214 A 
ENDROOT
BRANCH   1  13
ATOM     12  C   UNL     1       5.432  -2.178  27.862  0.00  0.00    +0.015 A 
ATOM     13  C   UNL     1       4.955  -2.175  26.534  0.00  0.00    +0.025 A 
ATOM     14  C   UNL     1       3.573  -2.341  26.379  0.00  0.00    +0.060 A 
ATOM     15  C   UNL     1       2.744  -2.603  27.497  0.00  0.00    +0.159 A 
ATOM     16  C   UNL     1       3.265  -2.767  28.783  0.00  0.00    +0.165 A 
ATOM     17  C   UNL     1       4.609  -2.470  28.944  0.00  0.00    +0.050 A 
BRANCH  15  18
ATOM     18  O   UNL     1       1.400  -2.710  27.268  0.00  0.00    -0.503 OA
ATOM     19  H   UNL     1       1.024  -3.126  28.067  0.00  0.00    +0.292 HD
ENDBRANCH  15  18
BRANCH  16  20
ATOM     20  O   UNL     1       2.462  -3.201  29.832  0.00  0.00    -0.457 OA
BRANCH  20  21
ATOM     21  C   UNL     1       2.618  -4.624  30.139  0.00  0.00    +0.339 C 
ATOM     22  O   UNL     1       4.001  -5.042  30.163  0.00  0.00    -0.331 OA
ATOM     23  C   UNL     1       4.523  -5.789  29.059  0.00  0.00    +0.179 C 
ATOM     24  C   UNL     1       3.603  -6.941  28.632  0.00  0.00    +0.177 C 
ATOM     25  C   UNL     1       2.291  -6.328  28.186  0.00  0.00    +0.180 C 
ATOM     26  C   UNL     1       1.645  -5.559  29.340  0.00  0.00    +0.214 C 
BRANCH  26  27
ATOM     27  O   UNL     1       0.445  -4.927  28.876  0.00  0.00    -0.383 OA
ATOM     28  H   UNL     1      -0.236  -4.999  29.568  0.00  0.00    +0.210 HD
ENDBRANCH  26  27
BRANCH  25  29
ATOM     29  O   UNL     1       1.411  -7.376  27.731  0.00  0.00    -0.386 OA
ATOM     30  H   UNL     1       1.910  -8.207  27.739  0.00  0.00    +0.210 HD
ENDBRANCH  25  29
BRANCH  24  31
ATOM     31  O   UNL     1       3.329  -7.845  29.712  0.00  0.00    -0.386 OA
ATOM     32  H   UNL     1       2.985  -8.665  29.309  0.00  0.00    +0.210 HD
ENDBRANCH  24  31
BRANCH  23  33
ATOM     33  C   UNL     1       5.920  -6.323  29.453  0.00  0.00    +0.190 C 
BRANCH  33  34
ATOM     34  O   UNL     1       6.184  -7.628  28.945  0.00  0.00    -0.392 OA
ATOM     35  H   UNL     1       6.208  -8.227  29.716  0.00  0.00    +0.210 HD
ENDBRANCH  33  34
ENDBRANCH  23  33
ENDBRANCH  20  21
ENDBRANCH  16  20
ENDBRANCH   1  13
BRANCH   5  36
ATOM     36  O   UNL     1      10.070  -2.147  22.263  0.00  0.00    -0.506 OA
ATOM     37  H   UNL     1      11.039  -2.194  22.412  0.00  0.00    +0.292 HD
ENDBRANCH   5  36
BRANCH  11  38
ATOM     38  O   UNL     1       5.428  -4.146  24.346  0.00  0.00    -0.453 OA
BRANCH  38  39
ATOM     39  C   UNL     1       4.540  -4.328  23.219  0.00  0.00    +0.340 C 
ATOM     40  O   UNL     1       3.204  -3.896  23.546  0.00  0.00    -0.331 OA
ATOM     41  C   UNL     1       2.336  -4.773  24.318  0.00  0.00    +0.179 C 
ATOM     42  C   UNL     1       2.773  -6.239  24.592  0.00  0.00    +0.177 C 
ATOM     43  C   UNL     1       4.200  -6.555  24.165  0.00  0.00    +0.180 C 
ATOM     44  C   UNL     1       4.473  -5.819  22.848  0.00  0.00    +0.214 C 
BRANCH  44  45
ATOM     45  O   UNL     1       5.626  -6.364  22.212  0.00  0.00    -0.383 OA
ATOM     46  H   UNL     1       6.411  -5.820  22.434  0.00  0.00    +0.210 HD
ENDBRANCH  44  45
BRANCH  43  47
ATOM     47  O   UNL     1       4.337  -7.978  24.013  0.00  0.00    -0.386 OA
ATOM     48  H   UNL     1       4.273  -8.134  23.048  0.00  0.00    +0.210 HD
ENDBRANCH  43  47
BRANCH  42  49
ATOM     49  O   UNL     1       1.922  -7.188  23.916  0.00  0.00    -0.386 OA
ATOM     50  H   UNL     1       1.113  -6.673  23.696  0.00  0.00    +0.210 HD
ENDBRANCH  42  49
BRANCH  41  51
ATOM     51  C   UNL     1       0.950  -4.746  23.620  0.00  0.00    +0.190 C 
BRANCH  51  52
ATOM     52  O   UNL     1       1.054  -5.226  22.280  0.00  0.00    -0.392 OA
ATOM     53  H   UNL     1       0.178  -5.075  21.882  0.00  0.00    +0.210 HD
ENDBRANCH  51  52
ENDBRANCH  41  51
ENDBRANCH  38  39
ENDBRANCH  11  38
BRANCH   7  54
ATOM     54  O   UNL     1      10.302   2.062  24.482  0.00  0.00    -0.461 OA
BRANCH  54  55
ATOM     55  C   UNL     1       9.619   3.061  23.688  0.00  0.00    +0.339 C 
ATOM     56  O   UNL     1      10.559   3.793  22.897  0.00  0.00    -0.331 OA
ATOM     57  C   UNL     1      11.321   4.740  23.665  0.00  0.00    +0.179 C 
ATOM     58  C   UNL     1      10.383   5.875  24.072  0.00  0.00    +0.177 C 
ATOM     59  C   UNL     1       9.310   5.304  25.002  0.00  0.00    +0.180 C 
ATOM     60  C   UNL     1       8.651   4.038  24.422  0.00  0.00    +0.214 C 
BRANCH  60  61
ATOM     61  O   UNL     1       7.815   3.403  25.396  0.00  0.00    -0.383 OA
ATOM     62  H   UNL     1       7.918   2.439  25.303  0.00  0.00    +0.210 HD
ENDBRANCH  60  61
BRANCH  59  63
ATOM     63  O   UNL     1       8.341   6.347  25.238  0.00  0.00    -0.386 OA
ATOM     64  H   UNL     1       8.538   7.091  24.638  0.00  0.00    +0.210 HD
ENDBRANCH  59  63
BRANCH  58  65
ATOM     65  O   UNL     1       9.757   6.442  22.909  0.00  0.00    -0.386 OA
ATOM     66  H   UNL     1      10.339   6.227  22.155  0.00  0.00    +0.210 HD
ENDBRANCH  58  65
BRANCH  57  67
ATOM     67  C   UNL     1      12.488   5.231  22.804  0.00  0.00    +0.190 C 
BRANCH  67  68
ATOM     68  O   UNL     1      13.746   4.913  23.413  0.00  0.00    -0.392 OA
ATOM     69  H   UNL     1      14.408   4.815  22.708  0.00  0.00    +0.210 HD
ENDBRANCH  67  68
ENDBRANCH  57  67
ENDBRANCH  54  55
ENDBRANCH   7  54
TORSDOF 24
ENDMDL
MODEL 3
REMARK VINA RESULT:      -6.3      2.555     10.956
REMARK  Name = 
REMARK  24 active torsions:
REMARK  status: ('A' for Active; 'I' for Inactive)
REMARK    1  A    between atoms: C_3  and  O_49
REMARK    2  A    between atoms: C_4  and  O_48
REMARK    3  A    between atoms: C_6  and  C_7
REMARK    4  A    between atoms: C_8  and  O_34
REMARK    5  A    between atoms: C_12  and  O_33
REMARK    6  A    between atoms: C_14  and  O_18
REMARK    7  A    between atoms: O_18  and  C_19
REMARK    8  A    between atoms: C_21  and  O_32
REMARK    9  A    between atoms: C_22  and  O_31
REMARK   10  A    between atoms: C_23  and  O_30
REMARK   11  A    between atoms: C_25  and  C_28
REMARK   12  A    between atoms: C_28  and  O_29
REMARK   13  A    between atoms: O_34  and  C_35
REMARK   14  A    between atoms: C_37  and  O_47
REMARK   15  A    between atoms: C_38  and  O_46
REMARK   16  A    between atoms: C_39  and  O_45
REMARK   17  A    between atoms: C_41  and  C_43
REMARK   18  A    between atoms: C_43  and  O_44
REMARK   19  A    between atoms: O_49  and  C_50
REMARK   20  A    between atoms: C_52  and  O_62
REMARK   21  A    between atoms: C_53  and  O_61
REMARK   22  A    between atoms: C_54  and  O_60
REMARK   23  A    between atoms: C_56  and  C_58
REMARK   24  A    between atoms: C_58  and  O_59
REMARK                            x       y       z     vdW  Elec       q    Type
REMARK                         _______ _______ _______ _____ _____    ______ ____
ROOT
ATOM      1  C   UNL     1       5.348  -0.696  25.413  0.00  0.00    +0.181 A 
ATOM      2  O   UNL     1       4.347  -1.529  25.863  0.00  0.00    -0.451 OA
ATOM      3  C   UNL     1       4.070  -2.716  25.256  0.00  0.00    +0.147 A 
ATOM      4  C   UNL     1       4.660  -3.106  24.081  0.00  0.00    +0.109 A 
ATOM      5  C   UNL     1       4.238  -4.328  23.518  0.00  0.00    +0.135 A 
ATOM      6  C   UNL     1       3.325  -5.175  24.195  0.00  0.00    +0.092 A 
ATOM      7  C   UNL     1       2.805  -4.803  25.436  0.00  0.00    +0.131 A 
ATOM      8  C   UNL     1       5.713  -2.198  23.527  0.00  0.00    +0.238 A 
ATOM      9  O   UNL     1       6.231  -2.479  22.449  0.00  0.00    -0.283 OA
ATOM     10  C   UNL     1       3.137  -3.533  25.915  0.00  0.00    +0.093 A 
ATOM     11  C   UNL     1       6.107  -0.971  24.327  0.00  0.00    +0.214 A 
ENDROOT
BRANCH   1  13
ATOM     12  C   UNL     1       4.224   1.358  26.180  0.00  0.00    +0.015 A 
ATOM     13  C   UNL     1       5.385   0.558  26.242  0.00  0.00    +0.025 A 
ATOM     14  C   UNL     1       6.458   1.091  26.968  0.00  0.00    +0.060 A 
ATOM     15  C   UNL     1       6.390   2.400  27.506  0.00  0.00    +0.159 A 
ATOM     16  C   UNL     1       5.291   3.235  27.287  0.00  0.00    +0.165 A 
ATOM     17  C   UNL     1       4.189   2.653  26.684  0.00  0.00    +0.050 A 
BRANCH  15  18
ATOM     18  O   UNL     1       7.461   2.831  28.238  0.00  0.00    -0.503 OA
ATOM     19  H   UNL     1       7.866   2.030  28.620  0.00  0.00    +0.292 HD
ENDBRANCH  15  18
BRANCH  16  20
ATOM     20  O   UNL     1       5.321   4.573  27.666  0.00  0.00    -0.457 OA
BRANCH  20  21
ATOM     21  C   UNL     1       5.735   5.476  26.592  0.00  0.00    +0.339 C 
ATOM     22  O   UNL     1       5.264   5.054  25.293  0.00  0.00    -0.331 OA
ATOM     23  C   UNL     1       6.183   4.441  24.383  0.00  0.00    +0.179 C 
ATOM     24  C   UNL     1       7.508   5.207  24.269  0.00  0.00    +0.177 C 
ATOM     25  C   UNL     1       8.152   5.199  25.641  0.00  0.00    +0.180 C 
ATOM     26  C   UNL     1       7.246   5.894  26.658  0.00  0.00    +0.214 C 
BRANCH  26  27
ATOM     27  O   UNL     1       7.840   5.809  27.959  0.00  0.00    -0.383 OA
ATOM     28  H   UNL     1       8.807   5.763  27.861  0.00  0.00    +0.210 HD
ENDBRANCH  26  27
BRANCH  25  29
ATOM     29  O   UNL     1       9.427   5.871  25.568  0.00  0.00    -0.386 OA
ATOM     30  H   UNL     1       9.940   5.456  24.857  0.00  0.00    +0.210 HD
ENDBRANCH  25  29
BRANCH  24  31
ATOM     31  O   UNL     1       7.313   6.574  23.877  0.00  0.00    -0.386 OA
ATOM     32  H   UNL     1       6.669   6.955  24.504  0.00  0.00    +0.210 HD
ENDBRANCH  24  31
BRANCH  23  33
ATOM     33  C   UNL     1       5.496   4.330  23.002  0.00  0.00    +0.190 C 
BRANCH  33  34
ATOM     34  O   UNL     1       6.407   4.454  21.912  0.00  0.00    -0.392 OA
ATOM     35  H   UNL     1       6.819   5.336  21.992  0.00  0.00    +0.210 HD
ENDBRANCH  33  34
ENDBRANCH  23  33
ENDBRANCH  20  21
ENDBRANCH  16  20
ENDBRANCH   1  13
BRANCH   5  36
ATOM     36  O   UNL     1       4.680  -4.768  22.300  0.00  0.00    -0.506 OA
ATOM     37  H   UNL     1       3.959  -5.272  21.864  0.00  0.00    +0.292 HD
ENDBRANCH   5  36
BRANCH  11  38
ATOM     38  O   UNL     1       6.989  -0.046  23.800  0.00  0.00    -0.453 OA
BRANCH  38  39
ATOM     39  C   UNL     1       8.400  -0.110  24.111  0.00  0.00    +0.340 C 
ATOM     40  O   UNL     1       8.882   1.170  24.567  0.00  0.00    -0.331 OA
ATOM     41  C   UNL     1       9.187   2.209  23.594  0.00  0.00    +0.179 C 
ATOM     42  C   UNL     1       9.200   1.863  22.080  0.00  0.00    +0.177 C 
ATOM     43  C   UNL     1       8.691   0.465  21.754  0.00  0.00    +0.180 C 
ATOM     44  C   UNL     1       9.192  -0.487  22.848  0.00  0.00    +0.214 C 
BRANCH  44  45
ATOM     45  O   UNL     1       9.079  -1.838  22.410  0.00  0.00    -0.383 OA
ATOM     46  H   UNL     1       9.814  -2.046  21.796  0.00  0.00    +0.210 HD
ENDBRANCH  44  45
BRANCH  43  47
ATOM     47  O   UNL     1       9.177   0.081  20.457  0.00  0.00    -0.386 OA
ATOM     48  H   UNL     1       8.843  -0.830  20.324  0.00  0.00    +0.210 HD
ENDBRANCH  43  47
BRANCH  42  49
ATOM     49  O   UNL     1      10.526   1.958  21.519  0.00  0.00    -0.386 OA
ATOM     50  H   UNL     1      10.722   2.922  21.524  0.00  0.00    +0.210 HD
ENDBRANCH  42  49
BRANCH  41  51
ATOM     51  C   UNL     1      10.549   2.823  24.018  0.00  0.00    +0.190 C 
BRANCH  51  52
ATOM     52  O   UNL     1      10.756   4.078  23.372  0.00  0.00    -0.392 OA
ATOM     53  H   UNL     1      10.770   3.879  22.419  0.00  0.00    +0.210 HD
ENDBRANCH  51  52
ENDBRANCH  41  51
ENDBRANCH  38  39
ENDBRANCH  11  38
BRANCH   7  54
ATOM     54  O   UNL     1       2.042  -5.732  26.147  0.00  0.00    -0.461 OA
BRANCH  54  55
ATOM     55  C   UNL     1       2.656  -7.042  26.210  0.00  0.00    +0.339 C 
ATOM     56  O   UNL     1       2.526  -7.711  24.954  0.00  0.00    -0.331 OA
ATOM     57  C   UNL     1       1.197  -8.206  24.718  0.00  0.00    +0.179 C 
ATOM     58  C   UNL     1       0.959  -9.381  25.666  0.00  0.00    +0.177 C 
ATOM     59  C   UNL     1       0.993  -8.855  27.103  0.00  0.00    +0.180 C 
ATOM     60  C   UNL     1       2.237  -7.987  27.376  0.00  0.00    +0.214 C 
BRANCH  60  61
ATOM     61  O   UNL     1       2.136  -7.334  28.646  0.00  0.00    -0.383 OA
ATOM     62  H   UNL     1       3.029  -7.287  29.036  0.00  0.00    +0.210 HD
ENDBRANCH  60  61
BRANCH  59  63
ATOM     63  O   UNL     1       0.938  -9.997  27.983  0.00  0.00    -0.386 OA
ATOM     64  H   UNL     1       1.281 -10.774  27.502  0.00  0.00    +0.210 HD
ENDBRANCH  59  63
BRANCH  58  65
ATOM     65  O   UNL     1       1.985 -10.371  25.493  0.00  0.00    -0.386 OA
ATOM     66  H   UNL     1       2.085 -10.494  24.530  0.00  0.00    +0.210 HD
ENDBRANCH  58  65
BRANCH  57  67
ATOM     67  C   UNL     1       1.088  -8.616  23.247  0.00  0.00    +0.190 C 
BRANCH  67  68
ATOM     68  O   UNL     1       2.100  -7.976  22.458  0.00  0.00    -0.392 OA
ATOM     69  H   UNL     1       2.051  -8.332  21.555  0.00  0.00    +0.210 HD
ENDBRANCH  67  68
ENDBRANCH  57  67
ENDBRANCH  54  55
ENDBRANCH   7  54
TORSDOF 24
ENDMDL
MODEL 4
REMARK VINA RESULT:      -6.2      2.396     10.733
REMARK  Name = 
REMARK  24 active torsions:
REMARK  status: ('A' for Active; 'I' for Inactive)
REMARK    1  A    between atoms: C_3  and  O_49
REMARK    2  A    between atoms: C_4  and  O_48
REMARK    3  A    between atoms: C_6  and  C_7
REMARK    4  A    between atoms: C_8  and  O_34
REMARK    5  A    between atoms: C_12  and  O_33
REMARK    6  A    between atoms: C_14  and  O_18
REMARK    7  A    between atoms: O_18  and  C_19
REMARK    8  A    between atoms: C_21  and  O_32
REMARK    9  A    between atoms: C_22  and  O_31
REMARK   10  A    between atoms: C_23  and  O_30
REMARK   11  A    between atoms: C_25  and  C_28
REMARK   12  A    between atoms: C_28  and  O_29
REMARK   13  A    between atoms: O_34  and  C_35
REMARK   14  A    between atoms: C_37  and  O_47
REMARK   15  A    between atoms: C_38  and  O_46
REMARK   16  A    between atoms: C_39  and  O_45
REMARK   17  A    between atoms: C_41  and  C_43
REMARK   18  A    between atoms: C_43  and  O_44
REMARK   19  A    between atoms: O_49  and  C_50
REMARK   20  A    between atoms: C_52  and  O_62
REMARK   21  A    between atoms: C_53  and  O_61
REMARK   22  A    between atoms: C_54  and  O_60
REMARK   23  A    between atoms: C_56  and  C_58
REMARK   24  A    between atoms: C_58  and  O_59
REMARK                            x       y       z     vdW  Elec       q    Type
REMARK                         _______ _______ _______ _____ _____    ______ ____
ROOT
ATOM      1  C   UNL     1       5.519  -0.273  25.554  0.00  0.00    +0.181 A 
ATOM      2  O   UNL     1       4.546  -1.129  26.020  0.00  0.00    -0.451 OA
ATOM      3  C   UNL     1       4.308  -2.336  25.436  0.00  0.00    +0.147 A 
ATOM      4  C   UNL     1       4.910  -2.729  24.268  0.00  0.00    +0.109 A 
ATOM      5  C   UNL     1       4.529  -3.974  23.729  0.00  0.00    +0.135 A 
ATOM      6  C   UNL     1       3.645  -4.837  24.423  0.00  0.00    +0.092 A 
ATOM      7  C   UNL     1       3.112  -4.460  25.657  0.00  0.00    +0.131 A 
ATOM      8  C   UNL     1       5.933  -1.798  23.696  0.00  0.00    +0.238 A 
ATOM      9  O   UNL     1       6.459  -2.082  22.623  0.00  0.00    -0.283 OA
ATOM     10  C   UNL     1       3.403  -3.171  26.111  0.00  0.00    +0.093 A 
ATOM     11  C   UNL     1       6.286  -0.543  24.472  0.00  0.00    +0.214 A 
ENDROOT
BRANCH   1  13
ATOM     12  C   UNL     1       4.361   1.798  26.218  0.00  0.00    +0.015 A 
ATOM     13  C   UNL     1       5.515   0.998  26.359  0.00  0.00    +0.025 A 
ATOM     14  C   UNL     1       6.548   1.542  27.132  0.00  0.00    +0.060 A 
ATOM     15  C   UNL     1       6.456   2.862  27.639  0.00  0.00    +0.159 A 
ATOM     16  C   UNL     1       5.373   3.695  27.345  0.00  0.00    +0.165 A 
ATOM     17  C   UNL     1       4.303   3.103  26.694  0.00  0.00    +0.050 A 
BRANCH  15  18
ATOM     18  O   UNL     1       7.487   3.306  28.420  0.00  0.00    -0.503 OA
ATOM     19  H   UNL     1       8.280   3.288  27.853  0.00  0.00    +0.292 HD
ENDBRANCH  15  18
BRANCH  16  20
ATOM     20  O   UNL     1       5.386   5.040  27.698  0.00  0.00    -0.457 OA
BRANCH  20  21
ATOM     21  C   UNL     1       5.867   5.920  26.633  0.00  0.00    +0.339 C 
ATOM     22  O   UNL     1       5.392   5.528  25.326  0.00  0.00    -0.331 OA
ATOM     23  C   UNL     1       6.288   4.865  24.428  0.00  0.00    +0.179 C 
ATOM     24  C   UNL     1       7.656   5.556  24.335  0.00  0.00    +0.177 C 
ATOM     25  C   UNL     1       8.279   5.508  25.717  0.00  0.00    +0.180 C 
ATOM     26  C   UNL     1       7.398   6.251  26.722  0.00  0.00    +0.214 C 
BRANCH  26  27
ATOM     27  O   UNL     1       7.967   6.131  28.032  0.00  0.00    -0.383 OA
ATOM     28  H   UNL     1       7.249   6.151  28.690  0.00  0.00    +0.210 HD
ENDBRANCH  26  27
BRANCH  25  29
ATOM     29  O   UNL     1       9.590   6.107  25.665  0.00  0.00    -0.386 OA
ATOM     30  H   UNL     1       9.878   6.109  24.739  0.00  0.00    +0.210 HD
ENDBRANCH  25  29
BRANCH  24  31
ATOM     31  O   UNL     1       7.545   6.932  23.944  0.00  0.00    -0.386 OA
ATOM     32  H   UNL     1       8.137   7.053  23.178  0.00  0.00    +0.210 HD
ENDBRANCH  24  31
BRANCH  23  33
ATOM     33  C   UNL     1       5.617   4.797  23.036  0.00  0.00    +0.190 C 
BRANCH  33  34
ATOM     34  O   UNL     1       6.525   5.036  21.964  0.00  0.00    -0.392 OA
ATOM     35  H   UNL     1       6.247   4.455  21.229  0.00  0.00    +0.210 HD
ENDBRANCH  33  34
ENDBRANCH  23  33
ENDBRANCH  20  21
ENDBRANCH  16  20
ENDBRANCH   1  13
BRANCH   5  36
ATOM     36  O   UNL     1       4.985  -4.422  22.518  0.00  0.00    -0.506 OA
ATOM     37  H   UNL     1       4.225  -4.492  21.900  0.00  0.00    +0.292 HD
ENDBRANCH   5  36
BRANCH  11  38
ATOM     38  O   UNL     1       7.137   0.401  23.927  0.00  0.00    -0.453 OA
BRANCH  38  39
ATOM     39  C   UNL     1       8.552   0.377  24.222  0.00  0.00    +0.340 C 
ATOM     40  O   UNL     1       9.025   1.694  24.571  0.00  0.00    -0.331 OA
ATOM     41  C   UNL     1       9.304   2.658  23.517  0.00  0.00    +0.179 C 
ATOM     42  C   UNL     1       9.301   2.196  22.034  0.00  0.00    +0.177 C 
ATOM     43  C   UNL     1       8.806   0.771  21.824  0.00  0.00    +0.180 C 
ATOM     44  C   UNL     1       9.333  -0.087  22.981  0.00  0.00    +0.214 C 
BRANCH  44  45
ATOM     45  O   UNL     1       9.231  -1.470  22.651  0.00  0.00    -0.383 OA
ATOM     46  H   UNL     1       9.629  -2.008  23.368  0.00  0.00    +0.210 HD
ENDBRANCH  44  45
BRANCH  43  47
ATOM     47  O   UNL     1       9.280   0.294  20.554  0.00  0.00    -0.386 OA
ATOM     48  H   UNL     1       9.741   1.061  20.155  0.00  0.00    +0.210 HD
ENDBRANCH  43  47
BRANCH  42  49
ATOM     49  O   UNL     1      10.619   2.262  21.448  0.00  0.00    -0.386 OA
ATOM     50  H   UNL     1      10.990   3.109  21.786  0.00  0.00    +0.210 HD
ENDBRANCH  42  49
BRANCH  41  51
ATOM     51  C   UNL     1      10.663   3.318  23.873  0.00  0.00    +0.190 C 
BRANCH  51  52
ATOM     52  O   UNL     1      10.838   4.532  23.142  0.00  0.00    -0.392 OA
ATOM     53  H   UNL     1      10.157   5.139  23.483  0.00  0.00    +0.210 HD
ENDBRANCH  51  52
ENDBRANCH  41  51
ENDBRANCH  38  39
ENDBRANCH  11  38
BRANCH   7  54
ATOM     54  O   UNL     1       2.380  -5.400  26.385  0.00  0.00    -0.461 OA
BRANCH  54  55
ATOM     55  C   UNL     1       2.545  -5.262  27.818  0.00  0.00    +0.339 C 
ATOM     56  O   UNL     1       3.934  -5.220  28.154  0.00  0.00    -0.331 OA
ATOM     57  C   UNL     1       4.568  -6.508  28.077  0.00  0.00    +0.179 C 
ATOM     58  C   UNL     1       4.044  -7.358  29.234  0.00  0.00    +0.177 C 
ATOM     59  C   UNL     1       2.544  -7.584  29.026  0.00  0.00    +0.180 C 
ATOM     60  C   UNL     1       1.793  -6.270  28.738  0.00  0.00    +0.214 C 
BRANCH  60  61
ATOM     61  O   UNL     1       0.444  -6.530  28.333  0.00  0.00    -0.383 OA
ATOM     62  H   UNL     1       0.012  -7.053  29.033  0.00  0.00    +0.210 HD
ENDBRANCH  60  61
BRANCH  59  63
ATOM     63  O   UNL     1       2.037  -8.239  30.206  0.00  0.00    -0.386 OA
ATOM     64  H   UNL     1       2.423  -7.804  30.990  0.00  0.00    +0.210 HD
ENDBRANCH  59  63
BRANCH  58  65
ATOM     65  O   UNL     1       4.258  -6.682  30.482  0.00  0.00    -0.386 OA
ATOM     66  H   UNL     1       3.373  -6.443  30.817  0.00  0.00    +0.210 HD
ENDBRANCH  58  65
BRANCH  57  67
ATOM     67  C   UNL     1       6.084  -6.305  28.146  0.00  0.00    +0.190 C 
BRANCH  67  68
ATOM     68  O   UNL     1       6.671  -7.146  29.149  0.00  0.00    -0.392 OA
ATOM     69  H   UNL     1       7.535  -6.771  29.390  0.00  0.00    +0.210 HD
ENDBRANCH  67  68
ENDBRANCH  57  67
ENDBRANCH  54  55
ENDBRANCH   7  54
TORSDOF 24
ENDMDL
MODEL 5
REMARK VINA RESULT:      -6.0      2.899      4.397
REMARK  Name = 
REMARK  24 active torsions:
REMARK  status: ('A' for Active; 'I' for Inactive)
REMARK    1  A    between atoms: C_3  and  O_49
REMARK    2  A    between atoms: C_4  and  O_48
REMARK    3  A    between atoms: C_6  and  C_7
REMARK    4  A    between atoms: C_8  and  O_34
REMARK    5  A    between atoms: C_12  and  O_33
REMARK    6  A    between atoms: C_14  and  O_18
REMARK    7  A    between atoms: O_18  and  C_19
REMARK    8  A    between atoms: C_21  and  O_32
REMARK    9  A    between atoms: C_22  and  O_31
REMARK   10  A    between atoms: C_23  and  O_30
REMARK   11  A    between atoms: C_25  and  C_28
REMARK   12  A    between atoms: C_28  and  O_29
REMARK   13  A    between atoms: O_34  and  C_35
REMARK   14  A    between atoms: C_37  and  O_47
REMARK   15  A    between atoms: C_38  and  O_46
REMARK   16  A    between atoms: C_39  and  O_45
REMARK   17  A    between atoms: C_41  and  C_43
REMARK   18  A    between atoms: C_43  and  O_44
REMARK   19  A    between atoms: O_49  and  C_50
REMARK   20  A    between atoms: C_52  and  O_62
REMARK   21  A    between atoms: C_53  and  O_61
REMARK   22  A    between atoms: C_54  and  O_60
REMARK   23  A    between atoms: C_56  and  C_58
REMARK   24  A    between atoms: C_58  and  O_59
REMARK                            x       y       z     vdW  Elec       q    Type
REMARK                         _______ _______ _______ _____ _____    ______ ____
ROOT
ATOM      1  C   UNL     1       6.274  -0.884  24.752  0.00  0.00    +0.181 A 
ATOM      2  O   UNL     1       5.699   0.338  24.482  0.00  0.00    -0.451 OA
ATOM      3  C   UNL     1       6.265   1.224  23.617  0.00  0.00    +0.147 A 
ATOM      4  C   UNL     1       7.506   1.036  23.064  0.00  0.00    +0.109 A 
ATOM      5  C   UNL     1       8.009   2.060  22.237  0.00  0.00    +0.135 A 
ATOM      6  C   UNL     1       7.220   3.187  21.897  0.00  0.00    +0.092 A 
ATOM      7  C   UNL     1       5.922   3.317  22.396  0.00  0.00    +0.131 A 
ATOM      8  C   UNL     1       8.190  -0.256  23.382  0.00  0.00    +0.238 A 
ATOM      9  O   UNL     1       9.326  -0.447  22.953  0.00  0.00    -0.283 OA
ATOM     10  C   UNL     1       5.491   2.356  23.314  0.00  0.00    +0.093 A 
ATOM     11  C   UNL     1       7.449  -1.286  24.213  0.00  0.00    +0.214 A 
ENDROOT
BRANCH   1  13
ATOM     12  C   UNL     1       4.492  -2.509  25.258  0.00  0.00    +0.015 A 
ATOM     13  C   UNL     1       5.457  -1.621  25.778  0.00  0.00    +0.025 A 
ATOM     14  C   UNL     1       5.451  -1.456  27.169  0.00  0.00    +0.060 A 
ATOM     15  C   UNL     1       4.456  -2.071  27.968  0.00  0.00    +0.159 A 
ATOM     16  C   UNL     1       3.410  -2.811  27.410  0.00  0.00    +0.165 A 
ATOM     17  C   UNL     1       3.503  -3.076  26.053  0.00  0.00    +0.050 A 
BRANCH  15  18
ATOM     18  O   UNL     1       4.544  -1.896  29.322  0.00  0.00    -0.503 OA
ATOM     19  H   UNL     1       5.412  -2.255  29.583  0.00  0.00    +0.292 HD
ENDBRANCH  15  18
BRANCH  16  20
ATOM     20  O   UNL     1       2.347  -3.252  28.190  0.00  0.00    -0.457 OA
BRANCH  20  21
ATOM     21  C   UNL     1       2.536  -4.599  28.729  0.00  0.00    +0.339 C 
ATOM     22  O   UNL     1       3.839  -4.785  29.324  0.00  0.00    -0.331 OA
ATOM     23  C   UNL     1       4.832  -5.529  28.610  0.00  0.00    +0.179 C 
ATOM     24  C   UNL     1       4.291  -6.847  28.039  0.00  0.00    +0.177 C 
ATOM     25  C   UNL     1       3.192  -6.494  27.056  0.00  0.00    +0.180 C 
ATOM     26  C   UNL     1       2.065  -5.743  27.766  0.00  0.00    +0.214 C 
BRANCH  26  27
ATOM     27  O   UNL     1       1.074  -5.355  26.806  0.00  0.00    -0.383 OA
ATOM     28  H   UNL     1       1.161  -5.920  26.018  0.00  0.00    +0.210 HD
ENDBRANCH  26  27
BRANCH  25  29
ATOM     29  O   UNL     1       2.686  -7.705  26.458  0.00  0.00    -0.386 OA
ATOM     30  H   UNL     1       2.635  -8.380  27.153  0.00  0.00    +0.210 HD
ENDBRANCH  25  29
BRANCH  24  31
ATOM     31  O   UNL     1       3.726  -7.688  29.054  0.00  0.00    -0.386 OA
ATOM     32  H   UNL     1       3.677  -7.150  29.867  0.00  0.00    +0.210 HD
ENDBRANCH  24  31
BRANCH  23  33
ATOM     33  C   UNL     1       6.018  -5.796  29.566  0.00  0.00    +0.190 C 
BRANCH  33  34
ATOM     34  O   UNL     1       6.935  -6.764  29.063  0.00  0.00    -0.392 OA
ATOM     35  H   UNL     1       7.735  -6.707  29.622  0.00  0.00    +0.210 HD
ENDBRANCH  33  34
ENDBRANCH  23  33
ENDBRANCH  20  21
ENDBRANCH  16  20
ENDBRANCH   1  13
BRANCH   5  36
ATOM     36  O   UNL     1       9.274   2.029  21.714  0.00  0.00    -0.506 OA
ATOM     37  H   UNL     1       9.339   2.700  21.001  0.00  0.00    +0.292 HD
ENDBRANCH   5  36
BRANCH  11  38
ATOM     38  O   UNL     1       8.084  -2.441  24.627  0.00  0.00    -0.453 OA
BRANCH  38  39
ATOM     39  C   UNL     1       8.322  -3.526  23.701  0.00  0.00    +0.340 C 
ATOM     40  O   UNL     1       7.169  -3.746  22.863  0.00  0.00    -0.331 OA
ATOM     41  C   UNL     1       6.036  -4.496  23.386  0.00  0.00    +0.179 C 
ATOM     42  C   UNL     1       6.166  -5.234  24.747  0.00  0.00    +0.177 C 
ATOM     43  C   UNL     1       7.451  -4.926  25.505  0.00  0.00    +0.180 C 
ATOM     44  C   UNL     1       8.589  -4.824  24.481  0.00  0.00    +0.214 C 
BRANCH  44  45
ATOM     45  O   UNL     1       9.850  -4.918  25.140  0.00  0.00    -0.383 OA
ATOM     46  H   UNL     1       9.800  -5.597  25.846  0.00  0.00    +0.210 HD
ENDBRANCH  44  45
BRANCH  43  47
ATOM     47  O   UNL     1       7.692  -5.973  26.459  0.00  0.00    -0.386 OA
ATOM     48  H   UNL     1       7.654  -5.529  27.332  0.00  0.00    +0.210 HD
ENDBRANCH  43  47
BRANCH  42  49
ATOM     49  O   UNL     1       6.116  -6.667  24.588  0.00  0.00    -0.386 OA
ATOM     50  H   UNL     1       5.460  -6.962  25.259  0.00  0.00    +0.210 HD
ENDBRANCH  42  49
BRANCH  41  51
ATOM     51  C   UNL     1       5.617  -5.492  22.271  0.00  0.00    +0.190 C 
BRANCH  51  52
ATOM     52  O   UNL     1       4.277  -5.939  22.476  0.00  0.00    -0.392 OA
ATOM     53  H   UNL     1       3.768  -5.139  22.696  0.00  0.00    +0.210 HD
ENDBRANCH  51  52
ENDBRANCH  41  51
ENDBRANCH  38  39
ENDBRANCH  11  38
BRANCH   7  54
ATOM     54  O   UNL     1       5.119   4.351  21.910  0.00  0.00    -0.461 OA
BRANCH  54  55
ATOM     55  C   UNL     1       3.876   4.496  22.638  0.00  0.00    +0.339 C 
ATOM     56  O   UNL     1       2.975   3.440  22.294  0.00  0.00    -0.331 OA
ATOM     57  C   UNL     1       2.382   3.612  20.996  0.00  0.00    +0.179 C 
ATOM     58  C   UNL     1       1.398   4.778  21.080  0.00  0.00    +0.177 C 
ATOM     59  C   UNL     1       2.188   6.054  21.384  0.00  0.00    +0.180 C 
ATOM     60  C   UNL     1       3.150   5.873  22.574  0.00  0.00    +0.214 C 
BRANCH  60  61
ATOM     61  O   UNL     1       4.027   6.998  22.699  0.00  0.00    -0.383 OA
ATOM     62  H   UNL     1       4.401   6.994  23.599  0.00  0.00    +0.210 HD
ENDBRANCH  60  61
BRANCH  59  63
ATOM     63  O   UNL     1       1.233   7.107  21.628  0.00  0.00    -0.386 OA
ATOM     64  H   UNL     1       0.474   6.729  22.111  0.00  0.00    +0.210 HD
ENDBRANCH  59  63
BRANCH  58  65
ATOM     65  O   UNL     1       0.443   4.545  22.128  0.00  0.00    -0.386 OA
ATOM     66  H   UNL     1      -0.373   5.009  21.859  0.00  0.00    +0.210 HD
ENDBRANCH  58  65
BRANCH  57  67
ATOM     67  C   UNL     1       1.695   2.301  20.602  0.00  0.00    +0.190 C 
BRANCH  67  68
ATOM     68  O   UNL     1       0.898   1.794  21.680  0.00  0.00    -0.392 OA
ATOM     69  H   UNL     1       0.264   1.154  21.313  0.00  0.00    +0.210 HD
ENDBRANCH  67  68
ENDBRANCH  57  67
ENDBRANCH  54  55
ENDBRANCH   7  54
TORSDOF 24
ENDMDL
MODEL 6
REMARK VINA RESULT:      -6.0      2.727     11.257
REMARK  Name = 
REMARK  24 active torsions:
REMARK  status: ('A' for Active; 'I' for Inactive)
REMARK    1  A    between atoms: C_3  and  O_49
REMARK    2  A    between atoms: C_4  and  O_48
REMARK    3  A    between atoms: C_6  and  C_7
REMARK    4  A    between atoms: C_8  and  O_34
REMARK    5  A    between atoms: C_12  and  O_33
REMARK    6  A    between atoms: C_14  and  O_18
REMARK    7  A    between atoms: O_18  and  C_19
REMARK    8  A    between atoms: C_21  and  O_32
REMARK    9  A    between atoms: C_22  and  O_31
REMARK   10  A    between atoms: C_23  and  O_30
REMARK   11  A    between atoms: C_25  and  C_28
REMARK   12  A    between atoms: C_28  and  O_29
REMARK   13  A    between atoms: O_34  and  C_35
REMARK   14  A    between atoms: C_37  and  O_47
REMARK   15  A    between atoms: C_38  and  O_46
REMARK   16  A    between atoms: C_39  and  O_45
REMARK   17  A    between atoms: C_41  and  C_43
REMARK   18  A    between atoms: C_43  and  O_44
REMARK   19  A    between atoms: O_49  and  C_50
REMARK   20  A    between atoms: C_52  and  O_62
REMARK   21  A    between atoms: C_53  and  O_61
REMARK   22  A    between atoms: C_54  and  O_60
REMARK   23  A    between atoms: C_56  and  C_58
REMARK   24  A    between atoms: C_58  and  O_59
REMARK                            x       y       z     vdW  Elec       q    Type
REMARK                         _______ _______ _______ _____ _____    ______ ____
ROOT
ATOM      1  C   UNL     1       4.803  -1.105  26.701  0.00  0.00    +0.181 A 
ATOM      2  O   UNL     1       4.357  -2.395  26.514  0.00  0.00    -0.451 OA
ATOM      3  C   UNL     1       3.171  -2.827  27.023  0.00  0.00    +0.147 A 
ATOM      4  C   UNL     1       2.404  -2.070  27.872  0.00  0.00    +0.109 A 
ATOM      5  C   UNL     1       1.230  -2.658  28.384  0.00  0.00    +0.135 A 
ATOM      6  C   UNL     1       0.798  -3.937  27.953  0.00  0.00    +0.092 A 
ATOM      7  C   UNL     1       1.544  -4.656  27.017  0.00  0.00    +0.131 A 
ATOM      8  C   UNL     1       2.887  -0.680  28.148  0.00  0.00    +0.238 A 
ATOM      9  O   UNL     1       2.262   0.017  28.943  0.00  0.00    -0.283 OA
ATOM     10  C   UNL     1       2.767  -4.111  26.619  0.00  0.00    +0.093 A 
ATOM     11  C   UNL     1       4.124  -0.184  27.424  0.00  0.00    +0.214 A 
ENDROOT
BRANCH   1  13
ATOM     12  C   UNL     1       6.259  -1.342  24.727  0.00  0.00    +0.015 A 
ATOM     13  C   UNL     1       6.160  -0.934  26.074  0.00  0.00    +0.025 A 
ATOM     14  C   UNL     1       7.356  -0.534  26.683  0.00  0.00    +0.060 A 
ATOM     15  C   UNL     1       8.591  -0.646  25.998  0.00  0.00    +0.159 A 
ATOM     16  C   UNL     1       8.682  -1.211  24.723  0.00  0.00    +0.165 A 
ATOM     17  C   UNL     1       7.483  -1.478  24.083  0.00  0.00    +0.050 A 
BRANCH  15  18
ATOM     18  O   UNL     1       9.709  -0.195  26.644  0.00  0.00    -0.503 OA
ATOM     19  H   UNL     1       9.768  -0.712  27.470  0.00  0.00    +0.292 HD
ENDBRANCH  15  18
BRANCH  16  20
ATOM     20  O   UNL     1       9.918  -1.478  24.143  0.00  0.00    -0.457 OA
BRANCH  20  21
ATOM     21  C   UNL     1      10.422  -0.385  23.310  0.00  0.00    +0.339 C 
ATOM     22  O   UNL     1      10.372   0.895  23.978  0.00  0.00    -0.331 OA
ATOM     23  C   UNL     1       9.349   1.830  23.618  0.00  0.00    +0.179 C 
ATOM     24  C   UNL     1       9.199   1.991  22.098  0.00  0.00    +0.177 C 
ATOM     25  C   UNL     1       8.797   0.639  21.541  0.00  0.00    +0.180 C 
ATOM     26  C   UNL     1       9.877  -0.401  21.840  0.00  0.00    +0.214 C 
BRANCH  26  27
ATOM     27  O   UNL     1       9.445  -1.684  21.369  0.00  0.00    -0.383 OA
ATOM     28  H   UNL     1      10.046  -2.365  21.716  0.00  0.00    +0.210 HD
ENDBRANCH  26  27
BRANCH  25  29
ATOM     29  O   UNL     1       8.598   0.757  20.117  0.00  0.00    -0.386 OA
ATOM     30  H   UNL     1       7.657   0.933  19.962  0.00  0.00    +0.210 HD
ENDBRANCH  25  29
BRANCH  24  31
ATOM     31  O   UNL     1      10.426   2.385  21.470  0.00  0.00    -0.386 OA
ATOM     32  H   UNL     1      11.072   2.533  22.186  0.00  0.00    +0.210 HD
ENDBRANCH  24  31
BRANCH  23  33
ATOM     33  C   UNL     1       9.679   3.188  24.280  0.00  0.00    +0.190 C 
BRANCH  33  34
ATOM     34  O   UNL     1       9.384   4.304  23.444  0.00  0.00    -0.392 OA
ATOM     35  H   UNL     1       8.531   4.109  23.010  0.00  0.00    +0.210 HD
ENDBRANCH  33  34
ENDBRANCH  23  33
ENDBRANCH  20  21
ENDBRANCH  16  20
ENDBRANCH   1  13
BRANCH   5  36
ATOM     36  O   UNL     1       0.443  -2.036  29.316  0.00  0.00    -0.506 OA
ATOM     37  H   UNL     1       0.550  -1.064  29.224  0.00  0.00    +0.292 HD
ENDBRANCH   5  36
BRANCH  11  38
ATOM     38  O   UNL     1       4.671   1.047  27.735  0.00  0.00    -0.453 OA
BRANCH  38  39
ATOM     39  C   UNL     1       4.081   2.266  27.229  0.00  0.00    +0.340 C 
ATOM     40  O   UNL     1       3.751   2.134  25.832  0.00  0.00    -0.331 OA
ATOM     41  C   UNL     1       4.799   2.276  24.831  0.00  0.00    +0.179 C 
ATOM     42  C   UNL     1       6.205   2.781  25.259  0.00  0.00    +0.177 C 
ATOM     43  C   UNL     1       6.395   2.900  26.765  0.00  0.00    +0.180 C 
ATOM     44  C   UNL     1       5.085   3.424  27.366  0.00  0.00    +0.214 C 
BRANCH  44  45
ATOM     45  O   UNL     1       5.311   3.910  28.687  0.00  0.00    -0.383 OA
ATOM     46  H   UNL     1       4.646   4.598  28.900  0.00  0.00    +0.210 HD
ENDBRANCH  44  45
BRANCH  43  47
ATOM     47  O   UNL     1       7.490   3.792  27.029  0.00  0.00    -0.386 OA
ATOM     48  H   UNL     1       7.876   3.982  26.148  0.00  0.00    +0.210 HD
ENDBRANCH  43  47
BRANCH  42  49
ATOM     49  O   UNL     1       6.500   4.081  24.704  0.00  0.00    -0.386 OA
ATOM     50  H   UNL     1       6.965   4.553  25.431  0.00  0.00    +0.210 HD
ENDBRANCH  42  49
BRANCH  41  51
ATOM     51  C   UNL     1       4.218   3.182  23.712  0.00  0.00    +0.190 C 
BRANCH  51  52
ATOM     52  O   UNL     1       2.935   2.711  23.301  0.00  0.00    -0.392 OA
ATOM     53  H   UNL     1       2.307   3.404  23.570  0.00  0.00    +0.210 HD
ENDBRANCH  51  52
ENDBRANCH  41  51
ENDBRANCH  38  39
ENDBRANCH  11  38
BRANCH   7  54
ATOM     54  O   UNL     1       1.005  -5.833  26.494  0.00  0.00    -0.461 OA
BRANCH  54  55
ATOM     55  C   UNL     1       1.922  -6.953  26.553  0.00  0.00    +0.339 C 
ATOM     56  O   UNL     1       2.173  -7.457  25.239  0.00  0.00    -0.331 OA
ATOM     57  C   UNL     1       1.074  -8.220  24.712  0.00  0.00    +0.179 C 
ATOM     58  C   UNL     1       1.003  -9.535  25.486  0.00  0.00    +0.177 C 
ATOM     59  C   UNL     1       0.668  -9.217  26.946  0.00  0.00    +0.180 C 
ATOM     60  C   UNL     1       1.583  -8.121  27.528  0.00  0.00    +0.214 C 
BRANCH  60  61
ATOM     61  O   UNL     1       1.113  -7.690  28.810  0.00  0.00    -0.383 OA
ATOM     62  H   UNL     1       1.773  -7.079  29.185  0.00  0.00    +0.210 HD
ENDBRANCH  60  61
BRANCH  59  63
ATOM     63  O   UNL     1       0.773 -10.447  27.692  0.00  0.00    -0.386 OA
ATOM     64  H   UNL     1       1.638 -10.854  27.497  0.00  0.00    +0.210 HD
ENDBRANCH  59  63
BRANCH  58  65
ATOM     65  O   UNL     1       2.266 -10.217  25.422  0.00  0.00    -0.386 OA
ATOM     66  H   UNL     1       2.918  -9.553  25.125  0.00  0.00    +0.210 HD
ENDBRANCH  58  65
BRANCH  57  67
ATOM     67  C   UNL     1       1.313  -8.440  23.216  0.00  0.00    +0.190 C 
BRANCH  67  68
ATOM     68  O   UNL     1       2.410  -7.644  22.747  0.00  0.00    -0.392 OA
ATOM     69  H   UNL     1       2.267  -6.728  23.041  0.00  0.00    +0.210 HD
ENDBRANCH  67  68
ENDBRANCH  57  67
ENDBRANCH  54  55
ENDBRANCH   7  54
TORSDOF 24
ENDMDL
MODEL 7
REMARK VINA RESULT:      -5.7      3.242     10.537
REMARK  Name = 
REMARK  24 active torsions:
REMARK  status: ('A' for Active; 'I' for Inactive)
REMARK    1  A    between atoms: C_3  and  O_49
REMARK    2  A    between atoms: C_4  and  O_48
REMARK    3  A    between atoms: C_6  and  C_7
REMARK    4  A    between atoms: C_8  and  O_34
REMARK    5  A    between atoms: C_12  and  O_33
REMARK    6  A    between atoms: C_14  and  O_18
REMARK    7  A    between atoms: O_18  and  C_19
REMARK    8  A    between atoms: C_21  and  O_32
REMARK    9  A    between atoms: C_22  and  O_31
REMARK   10  A    between atoms: C_23  and  O_30
REMARK   11  A    between atoms: C_25  and  C_28
REMARK   12  A    between atoms: C_28  and  O_29
REMARK   13  A    between atoms: O_34  and  C_35
REMARK   14  A    between atoms: C_37  and  O_47
REMARK   15  A    between atoms: C_38  and  O_46
REMARK   16  A    between atoms: C_39  and  O_45
REMARK   17  A    between atoms: C_41  and  C_43
REMARK   18  A    between atoms: C_43  and  O_44
REMARK   19  A    between atoms: O_49  and  C_50
REMARK   20  A    between atoms: C_52  and  O_62
REMARK   21  A    between atoms: C_53  and  O_61
REMARK   22  A    between atoms: C_54  and  O_60
REMARK   23  A    between atoms: C_56  and  C_58
REMARK   24  A    between atoms: C_58  and  O_59
REMARK                            x       y       z     vdW  Elec       q    Type
REMARK                         _______ _______ _______ _____ _____    ______ ____
ROOT
ATOM      1  C   UNL     1       5.910  -0.991  25.950  0.00  0.00    +0.181 A 
ATOM      2  O   UNL     1       4.786  -1.786  25.981  0.00  0.00    -0.451 OA
ATOM      3  C   UNL     1       4.552  -2.738  25.036  0.00  0.00    +0.147 A 
ATOM      4  C   UNL     1       5.330  -2.882  23.915  0.00  0.00    +0.109 A 
ATOM      5  C   UNL     1       4.943  -3.862  22.979  0.00  0.00    +0.135 A 
ATOM      6  C   UNL     1       3.860  -4.740  23.236  0.00  0.00    +0.092 A 
ATOM      7  C   UNL     1       3.135  -4.638  24.425  0.00  0.00    +0.131 A 
ATOM      8  C   UNL     1       6.530  -1.995  23.816  0.00  0.00    +0.238 A 
ATOM      9  O   UNL     1       7.227  -2.050  22.805  0.00  0.00    -0.283 OA
ATOM     10  C   UNL     1       3.455  -3.580  25.280  0.00  0.00    +0.093 A 
ATOM     11  C   UNL     1       6.845  -1.067  24.974  0.00  0.00    +0.214 A 
ENDROOT
BRANCH   1  13
ATOM     12  C   UNL     1       4.651   0.065  27.786  0.00  0.00    +0.015 A 
ATOM     13  C   UNL     1       5.872  -0.002  27.083  0.00  0.00    +0.025 A 
ATOM     14  C   UNL     1       6.845   0.936  27.454  0.00  0.00    +0.060 A 
ATOM     15  C   UNL     1       6.553   1.946  28.403  0.00  0.00    +0.159 A 
ATOM     16  C   UNL     1       5.280   2.092  28.961  0.00  0.00    +0.165 A 
ATOM     17  C   UNL     1       4.370   1.084  28.689  0.00  0.00    +0.050 A 
BRANCH  15  18
ATOM     18  O   UNL     1       7.568   2.797  28.743  0.00  0.00    -0.503 OA
ATOM     19  H   UNL     1       7.584   2.818  29.719  0.00  0.00    +0.292 HD
ENDBRANCH  15  18
BRANCH  16  20
ATOM     20  O   UNL     1       4.965   3.194  29.748  0.00  0.00    -0.457 OA
BRANCH  20  21
ATOM     21  C   UNL     1       4.397   4.311  28.992  0.00  0.00    +0.339 C 
ATOM     22  O   UNL     1       3.648   3.878  27.835  0.00  0.00    -0.331 OA
ATOM     23  C   UNL     1       4.232   4.015  26.535  0.00  0.00    +0.179 C 
ATOM     24  C   UNL     1       4.855   5.399  26.305  0.00  0.00    +0.177 C 
ATOM     25  C   UNL     1       5.967   5.566  27.322  0.00  0.00    +0.180 C 
ATOM     26  C   UNL     1       5.403   5.489  28.742  0.00  0.00    +0.214 C 
BRANCH  26  27
ATOM     27  O   UNL     1       6.479   5.575  29.685  0.00  0.00    -0.383 OA
ATOM     28  H   UNL     1       6.258   6.246  30.353  0.00  0.00    +0.210 HD
ENDBRANCH  26  27
BRANCH  25  29
ATOM     29  O   UNL     1       6.613   6.838  27.110  0.00  0.00    -0.386 OA
ATOM     30  H   UNL     1       5.991   7.534  27.373  0.00  0.00    +0.210 HD
ENDBRANCH  25  29
BRANCH  24  31
ATOM     31  O   UNL     1       3.910   6.460  26.499  0.00  0.00    -0.386 OA
ATOM     32  H   UNL     1       3.570   6.367  27.409  0.00  0.00    +0.210 HD
ENDBRANCH  24  31
BRANCH  23  33
ATOM     33  C   UNL     1       3.138   3.728  25.480  0.00  0.00    +0.190 C 
BRANCH  33  34
ATOM     34  O   UNL     1       3.439   2.608  24.651  0.00  0.00    -0.392 OA
ATOM     35  H   UNL     1       4.353   2.737  24.331  0.00  0.00    +0.210 HD
ENDBRANCH  33  34
ENDBRANCH  23  33
ENDBRANCH  20  21
ENDBRANCH  16  20
ENDBRANCH   1  13
BRANCH   5  36
ATOM     36  O   UNL     1       5.582  -4.026  21.779  0.00  0.00    -0.506 OA
ATOM     37  H   UNL     1       5.832  -3.142  21.430  0.00  0.00    +0.292 HD
ENDBRANCH   5  36
BRANCH  11  38
ATOM     38  O   UNL     1       7.874  -0.149  24.876  0.00  0.00    -0.453 OA
BRANCH  38  39
ATOM     39  C   UNL     1       8.351   0.291  23.584  0.00  0.00    +0.340 C 
ATOM     40  O   UNL     1       9.694   0.807  23.682  0.00  0.00    -0.331 OA
ATOM     41  C   UNL     1       9.907   2.160  24.175  0.00  0.00    +0.179 C 
ATOM     42  C   UNL     1       8.690   3.104  24.379  0.00  0.00    +0.177 C 
ATOM     43  C   UNL     1       7.337   2.424  24.213  0.00  0.00    +0.180 C 
ATOM     44  C   UNL     1       7.451   1.422  23.057  0.00  0.00    +0.214 C 
BRANCH  44  45
ATOM     45  O   UNL     1       6.153   1.041  22.609  0.00  0.00    -0.383 OA
ATOM     46  H   UNL     1       6.174   0.882  21.642  0.00  0.00    +0.210 HD
ENDBRANCH  44  45
BRANCH  43  47
ATOM     47  O   UNL     1       6.341   3.425  23.948  0.00  0.00    -0.386 OA
ATOM     48  H   UNL     1       6.528   4.141  24.590  0.00  0.00    +0.210 HD
ENDBRANCH  43  47
BRANCH  42  49
ATOM     49  O   UNL     1       8.709   4.212  23.455  0.00  0.00    -0.386 OA
ATOM     50  H   UNL     1       9.665   4.374  23.292  0.00  0.00    +0.210 HD
ENDBRANCH  42  49
BRANCH  41  51
ATOM     51  C   UNL     1      10.943   2.816  23.222  0.00  0.00    +0.190 C 
BRANCH  51  52
ATOM     52  O   UNL     1      10.574   2.608  21.859  0.00  0.00    -0.392 OA
ATOM     53  H   UNL     1       9.643   2.323  21.885  0.00  0.00    +0.210 HD
ENDBRANCH  51  52
ENDBRANCH  41  51
ENDBRANCH  38  39
ENDBRANCH  11  38
BRANCH   7  54
ATOM     54  O   UNL     1       2.187  -5.621  24.716  0.00  0.00    -0.461 OA
BRANCH  54  55
ATOM     55  C   UNL     1       2.778  -6.902  25.041  0.00  0.00    +0.339 C 
ATOM     56  O   UNL     1       2.506  -7.850  24.007  0.00  0.00    -0.331 OA
ATOM     57  C   UNL     1       1.150  -8.328  24.028  0.00  0.00    +0.179 C 
ATOM     58  C   UNL     1       0.987  -9.225  25.254  0.00  0.00    +0.177 C 
ATOM     59  C   UNL     1       1.180  -8.367  26.508  0.00  0.00    +0.180 C 
ATOM     60  C   UNL     1       2.462  -7.516  26.439  0.00  0.00    +0.214 C 
BRANCH  60  61
ATOM     61  O   UNL     1       2.506  -6.569  27.512  0.00  0.00    -0.383 OA
ATOM     62  H   UNL     1       2.184  -5.713  27.175  0.00  0.00    +0.210 HD
ENDBRANCH  60  61
BRANCH  59  63
ATOM     63  O   UNL     1       1.193  -9.257  27.643  0.00  0.00    -0.386 OA
ATOM     64  H   UNL     1       1.931  -9.885  27.534  0.00  0.00    +0.210 HD
ENDBRANCH  59  63
BRANCH  58  65
ATOM     65  O   UNL     1       1.970 -10.272  25.235  0.00  0.00    -0.386 OA
ATOM     66  H   UNL     1       2.709  -9.942  24.688  0.00  0.00    +0.210 HD
ENDBRANCH  58  65
BRANCH  57  67
ATOM     67  C   UNL     1       0.882  -9.078  22.720  0.00  0.00    +0.190 C 
BRANCH  67  68
ATOM     68  O   UNL     1       1.533  -8.437  21.616  0.00  0.00    -0.392 OA
ATOM     69  H   UNL     1       2.008  -7.658  21.955  0.00  0.00    +0.210 HD
ENDBRANCH  67  68
ENDBRANCH  57  67
ENDBRANCH  54  55
ENDBRANCH   7  54
TORSDOF 24
ENDMDL
MODEL 8
REMARK VINA RESULT:      -5.6      3.317     10.237
REMARK  Name = 
REMARK  24 active torsions:
REMARK  status: ('A' for Active; 'I' for Inactive)
REMARK    1  A    between atoms: C_3  and  O_49
REMARK    2  A    between atoms: C_4  and  O_48
REMARK    3  A    between atoms: C_6  and  C_7
REMARK    4  A    between atoms: C_8  and  O_34
REMARK    5  A    between atoms: C_12  and  O_33
REMARK    6  A    between atoms: C_14  and  O_18
REMARK    7  A    between atoms: O_18  and  C_19
REMARK    8  A    between atoms: C_21  and  O_32
REMARK    9  A    between atoms: C_22  and  O_31
REMARK   10  A    between atoms: C_23  and  O_30
REMARK   11  A    between atoms: C_25  and  C_28
REMARK   12  A    between atoms: C_28  and  O_29
REMARK   13  A    between atoms: O_34  and  C_35
REMARK   14  A    between atoms: C_37  and  O_47
REMARK   15  A    between atoms: C_38  and  O_46
REMARK   16  A    between atoms: C_39  and  O_45
REMARK   17  A    between atoms: C_41  and  C_43
REMARK   18  A    between atoms: C_43  and  O_44
REMARK   19  A    between atoms: O_49  and  C_50
REMARK   20  A    between atoms: C_52  and  O_62
REMARK   21  A    between atoms: C_53  and  O_61
REMARK   22  A    between atoms: C_54  and  O_60
REMARK   23  A    between atoms: C_56  and  C_58
REMARK   24  A    between atoms: C_58  and  O_59
REMARK                            x       y       z     vdW  Elec       q    Type
REMARK                         _______ _______ _______ _____ _____    ______ ____
ROOT
ATOM      1  C   UNL     1       4.358   1.998  25.365  0.00  0.00    +0.181 A 
ATOM      2  O   UNL     1       4.657   0.752  25.871  0.00  0.00    -0.451 OA
ATOM      3  C   UNL     1       3.838   0.119  26.756  0.00  0.00    +0.147 A 
ATOM      4  C   UNL     1       2.741   0.720  27.317  0.00  0.00    +0.109 A 
ATOM      5  C   UNL     1       2.013  -0.019  28.271  0.00  0.00    +0.135 A 
ATOM      6  C   UNL     1       2.334  -1.370  28.557  0.00  0.00    +0.092 A 
ATOM      7  C   UNL     1       3.400  -1.995  27.908  0.00  0.00    +0.131 A 
ATOM      8  C   UNL     1       2.415   2.099  26.836  0.00  0.00    +0.238 A 
ATOM      9  O   UNL     1       1.473   2.699  27.348  0.00  0.00    -0.283 OA
ATOM     10  C   UNL     1       4.184  -1.208  27.062  0.00  0.00    +0.093 A 
ATOM     11  C   UNL     1       3.257   2.699  25.725  0.00  0.00    +0.214 A 
ENDROOT
BRANCH   1  13
ATOM     12  C   UNL     1       5.454   1.913  23.160  0.00  0.00    +0.015 A 
ATOM     13  C   UNL     1       5.464   2.464  24.459  0.00  0.00    +0.025 A 
ATOM     14  C   UNL     1       6.560   3.279  24.771  0.00  0.00    +0.060 A 
ATOM     15  C   UNL     1       7.631   3.434  23.857  0.00  0.00    +0.159 A 
ATOM     16  C   UNL     1       7.676   2.743  22.643  0.00  0.00    +0.165 A 
ATOM     17  C   UNL     1       6.530   2.048  22.290  0.00  0.00    +0.050 A 
BRANCH  15  18
ATOM     18  O   UNL     1       8.644   4.280  24.217  0.00  0.00    -0.503 OA
ATOM     19  H   UNL     1       8.416   4.606  25.108  0.00  0.00    +0.292 HD
ENDBRANCH  15  18
BRANCH  16  20
ATOM     20  O   UNL     1       8.814   2.766  21.846  0.00  0.00    -0.457 OA
BRANCH  20  21
ATOM     21  C   UNL     1       9.632   1.557  21.956  0.00  0.00    +0.339 C 
ATOM     22  O   UNL     1       8.870   0.347  21.750  0.00  0.00    -0.331 OA
ATOM     23  C   UNL     1       8.516  -0.455  22.883  0.00  0.00    +0.179 C 
ATOM     24  C   UNL     1       9.697  -0.698  23.832  0.00  0.00    +0.177 C 
ATOM     25  C   UNL     1      10.142   0.654  24.353  0.00  0.00    +0.180 C 
ATOM     26  C   UNL     1      10.591   1.548  23.197  0.00  0.00    +0.214 C 
BRANCH  26  27
ATOM     27  O   UNL     1      10.936   2.843  23.704  0.00  0.00    -0.383 OA
ATOM     28  H   UNL     1      11.071   3.449  22.954  0.00  0.00    +0.210 HD
ENDBRANCH  26  27
BRANCH  25  29
ATOM     29  O   UNL     1      11.223   0.467  25.289  0.00  0.00    -0.386 OA
ATOM     30  H   UNL     1      11.140  -0.424  25.665  0.00  0.00    +0.210 HD
ENDBRANCH  25  29
BRANCH  24  31
ATOM     31  O   UNL     1      10.812  -1.308  23.166  0.00  0.00    -0.386 OA
ATOM     32  H   UNL     1      10.828  -2.242  23.446  0.00  0.00    +0.210 HD
ENDBRANCH  24  31
BRANCH  23  33
ATOM     33  C   UNL     1       7.945  -1.796  22.367  0.00  0.00    +0.190 C 
BRANCH  33  34
ATOM     34  O   UNL     1       8.604  -2.934  22.918  0.00  0.00    -0.392 OA
ATOM     35  H   UNL     1       7.943  -3.398  23.468  0.00  0.00    +0.210 HD
ENDBRANCH  33  34
ENDBRANCH  23  33
ENDBRANCH  20  21
ENDBRANCH  16  20
ENDBRANCH   1  13
BRANCH   5  36
ATOM     36  O   UNL     1       0.963   0.514  28.969  0.00  0.00    -0.506 OA
ATOM     37  H   UNL     1       0.133   0.346  28.471  0.00  0.00    +0.292 HD
ENDBRANCH   5  36
BRANCH  11  38
ATOM     38  O   UNL     1       3.066   4.010  25.332  0.00  0.00    -0.453 OA
BRANCH  38  39
ATOM     39  C   UNL     1       1.891   4.392  24.580  0.00  0.00    +0.340 C 
ATOM     40  O   UNL     1       1.423   3.296  23.770  0.00  0.00    -0.331 OA
ATOM     41  C   UNL     1       2.085   3.006  22.506  0.00  0.00    +0.179 C 
ATOM     42  C   UNL     1       3.135   4.003  21.942  0.00  0.00    +0.177 C 
ATOM     43  C   UNL     1       3.508   5.126  22.901  0.00  0.00    +0.180 C 
ATOM     44  C   UNL     1       2.235   5.559  23.639  0.00  0.00    +0.214 C 
BRANCH  44  45
ATOM     45  O   UNL     1       2.434   6.830  24.253  0.00  0.00    -0.383 OA
ATOM     46  H   UNL     1       3.106   6.749  24.962  0.00  0.00    +0.210 HD
ENDBRANCH  44  45
BRANCH  43  47
ATOM     47  O   UNL     1       4.079   6.210  22.151  0.00  0.00    -0.386 OA
ATOM     48  H   UNL     1       3.341   6.552  21.605  0.00  0.00    +0.210 HD
ENDBRANCH  43  47
BRANCH  42  49
ATOM     49  O   UNL     1       2.678   4.635  20.728  0.00  0.00    -0.386 OA
ATOM     50  H   UNL     1       1.783   4.974  20.955  0.00  0.00    +0.210 HD
ENDBRANCH  42  49
BRANCH  41  51
ATOM     51  C   UNL     1       0.958   2.765  21.465  0.00  0.00    +0.190 C 
BRANCH  51  52
ATOM     52  O   UNL     1       1.387   1.839  20.467  0.00  0.00    -0.392 OA
ATOM     53  H   UNL     1       0.929   2.108  19.651  0.00  0.00    +0.210 HD
ENDBRANCH  51  52
ENDBRANCH  41  51
ENDBRANCH  38  39
ENDBRANCH  11  38
BRANCH   7  54
ATOM     54  O   UNL     1       3.582  -3.368  28.091  0.00  0.00    -0.461 OA
BRANCH  54  55
ATOM     55  C   UNL     1       4.925  -3.712  28.509  0.00  0.00    +0.339 C 
ATOM     56  O   UNL     1       5.826  -3.623  27.403  0.00  0.00    -0.331 OA
ATOM     57  C   UNL     1       5.694  -4.720  26.483  0.00  0.00    +0.179 C 
ATOM     58  C   UNL     1       6.243  -5.972  27.166  0.00  0.00    +0.177 C 
ATOM     59  C   UNL     1       5.356  -6.290  28.374  0.00  0.00    +0.180 C 
ATOM     60  C   UNL     1       5.130  -5.057  29.270  0.00  0.00    +0.214 C 
BRANCH  60  61
ATOM     61  O   UNL     1       4.130  -5.321  30.260  0.00  0.00    -0.383 OA
ATOM     62  H   UNL     1       3.628  -6.109  29.983  0.00  0.00    +0.210 HD
ENDBRANCH  60  61
BRANCH  59  63
ATOM     63  O   UNL     1       5.984  -7.366  29.100  0.00  0.00    -0.386 OA
ATOM     64  H   UNL     1       6.903  -7.107  29.303  0.00  0.00    +0.210 HD
ENDBRANCH  59  63
BRANCH  58  65
ATOM     65  O   UNL     1       7.590  -5.745  27.608  0.00  0.00    -0.386 OA
ATOM     66  H   UNL     1       8.167  -6.001  26.863  0.00  0.00    +0.210 HD
ENDBRANCH  58  65
BRANCH  57  67
ATOM     67  C   UNL     1       6.461  -4.373  25.204  0.00  0.00    +0.190 C 
BRANCH  67  68
ATOM     68  O   UNL     1       7.683  -3.687  25.507  0.00  0.00    -0.392 OA
ATOM     69  H   UNL     1       7.915  -3.130  24.744  0.00  0.00    +0.210 HD
ENDBRANCH  67  68
ENDBRANCH  57  67
ENDBRANCH  54  55
ENDBRANCH   7  54
TORSDOF 24
ENDMDL
MODEL 9
REMARK VINA RESULT:      -5.5      2.025      3.833
REMARK  Name = 
REMARK  24 active torsions:
REMARK  status: ('A' for Active; 'I' for Inactive)
REMARK    1  A    between atoms: C_3  and  O_49
REMARK    2  A    between atoms: C_4  and  O_48
REMARK    3  A    between atoms: C_6  and  C_7
REMARK    4  A    between atoms: C_8  and  O_34
REMARK    5  A    between atoms: C_12  and  O_33
REMARK    6  A    between atoms: C_14  and  O_18
REMARK    7  A    between atoms: O_18  and  C_19
REMARK    8  A    between atoms: C_21  and  O_32
REMARK    9  A    between atoms: C_22  and  O_31
REMARK   10  A    between atoms: C_23  and  O_30
REMARK   11  A    between atoms: C_25  and  C_28
REMARK   12  A    between atoms: C_28  and  O_29
REMARK   13  A    between atoms: O_34  and  C_35
REMARK   14  A    between atoms: C_37  and  O_47
REMARK   15  A    between atoms: C_38  and  O_46
REMARK   16  A    between atoms: C_39  and  O_45
REMARK   17  A    between atoms: C_41  and  C_43
REMARK   18  A    between atoms: C_43  and  O_44
REMARK   19  A    between atoms: O_49  and  C_50
REMARK   20  A    between atoms: C_52  and  O_62
REMARK   21  A    between atoms: C_53  and  O_61
REMARK   22  A    between atoms: C_54  and  O_60
REMARK   23  A    between atoms: C_56  and  C_58
REMARK   24  A    between atoms: C_58  and  O_59
REMARK                            x       y       z     vdW  Elec       q    Type
REMARK                         _______ _______ _______ _____ _____    ______ ____
ROOT
ATOM      1  C   UNL     1       6.070  -0.014  25.678  0.00  0.00    +0.181 A 
ATOM      2  O   UNL     1       6.062   1.267  26.184  0.00  0.00    -0.451 OA
ATOM      3  C   UNL     1       6.956   2.209  25.772  0.00  0.00    +0.147 A 
ATOM      4  C   UNL     1       8.009   1.923  24.941  0.00  0.00    +0.109 A 
ATOM      5  C   UNL     1       8.902   2.972  24.643  0.00  0.00    +0.135 A 
ATOM      6  C   UNL     1       8.661   4.295  25.091  0.00  0.00    +0.092 A 
ATOM      7  C   UNL     1       7.534   4.585  25.861  0.00  0.00    +0.131 A 
ATOM      8  C   UNL     1       8.085   0.524  24.415  0.00  0.00    +0.238 A 
ATOM      9  O   UNL     1       9.040   0.208  23.710  0.00  0.00    -0.283 OA
ATOM     10  C   UNL     1       6.731   3.510  26.251  0.00  0.00    +0.093 A 
ATOM     11  C   UNL     1       6.973  -0.445  24.766  0.00  0.00    +0.214 A 
ENDROOT
BRANCH   1  13
ATOM     12  C   UNL     1       5.017  -0.795  27.764  0.00  0.00    +0.015 A 
ATOM     13  C   UNL     1       5.010  -0.840  26.354  0.00  0.00    +0.025 A 
ATOM     14  C   UNL     1       4.100  -1.733  25.774  0.00  0.00    +0.060 A 
ATOM     15  C   UNL     1       3.324  -2.602  26.579  0.00  0.00    +0.159 A 
ATOM     16  C   UNL     1       3.471  -2.655  27.968  0.00  0.00    +0.165 A 
ATOM     17  C   UNL     1       4.274  -1.680  28.537  0.00  0.00    +0.050 A 
BRANCH  15  18
ATOM     18  O   UNL     1       2.427  -3.413  25.940  0.00  0.00    -0.503 OA
ATOM     19  H   UNL     1       2.566  -3.268  24.986  0.00  0.00    +0.292 HD
ENDBRANCH  15  18
BRANCH  16  20
ATOM     20  O   UNL     1       2.835  -3.636  28.720  0.00  0.00    -0.457 OA
BRANCH  20  21
ATOM     21  C   UNL     1       3.599  -4.880  28.825  0.00  0.00    +0.339 C 
ATOM     22  O   UNL     1       5.019  -4.680  28.646  0.00  0.00    -0.331 OA
ATOM     23  C   UNL     1       5.626  -5.059  27.406  0.00  0.00    +0.179 C 
ATOM     24  C   UNL     1       5.201  -6.458  26.938  0.00  0.00    +0.177 C 
ATOM     25  C   UNL     1       3.701  -6.422  26.719  0.00  0.00    +0.180 C 
ATOM     26  C   UNL     1       2.981  -6.078  28.023  0.00  0.00    +0.214 C 
BRANCH  26  27
ATOM     27  O   UNL     1       1.573  -5.977  27.776  0.00  0.00    -0.383 OA
ATOM     28  H   UNL     1       1.259  -5.113  28.095  0.00  0.00    +0.210 HD
ENDBRANCH  26  27
BRANCH  25  29
ATOM     29  O   UNL     1       3.265  -7.707  26.231  0.00  0.00    -0.386 OA
ATOM     30  H   UNL     1       2.310  -7.776  26.389  0.00  0.00    +0.210 HD
ENDBRANCH  25  29
BRANCH  24  31
ATOM     31  O   UNL     1       5.483  -7.468  27.918  0.00  0.00    -0.386 OA
ATOM     32  H   UNL     1       4.672  -7.576  28.449  0.00  0.00    +0.210 HD
ENDBRANCH  24  31
BRANCH  23  33
ATOM     33  C   UNL     1       7.162  -4.985  27.576  0.00  0.00    +0.190 C 
BRANCH  33  34
ATOM     34  O   UNL     1       7.853  -6.019  26.879  0.00  0.00    -0.392 OA
ATOM     35  H   UNL     1       8.411  -6.473  27.540  0.00  0.00    +0.210 HD
ENDBRANCH  33  34
ENDBRANCH  23  33
ENDBRANCH  20  21
ENDBRANCH  16  20
ENDBRANCH   1  13
BRANCH   5  36
ATOM     36  O   UNL     1      10.042   2.780  23.909  0.00  0.00    -0.506 OA
ATOM     37  H   UNL     1      10.778   2.558  24.520  0.00  0.00    +0.292 HD
ENDBRANCH   5  36
BRANCH  11  38
ATOM     38  O   UNL     1       7.061  -1.775  24.400  0.00  0.00    -0.453 OA
BRANCH  38  39
ATOM     39  C   UNL     1       7.496  -2.149  23.072  0.00  0.00    +0.340 C 
ATOM     40  O   UNL     1       6.475  -2.907  22.394  0.00  0.00    -0.331 OA
ATOM     41  C   UNL     1       6.315  -4.323  22.694  0.00  0.00    +0.179 C 
ATOM     42  C   UNL     1       7.376  -5.047  23.568  0.00  0.00    +0.177 C 
ATOM     43  C   UNL     1       8.408  -4.118  24.195  0.00  0.00    +0.180 C 
ATOM     44  C   UNL     1       8.751  -3.032  23.167  0.00  0.00    +0.214 C 
BRANCH  44  45
ATOM     45  O   UNL     1       9.961  -2.375  23.535  0.00  0.00    -0.383 OA
ATOM     46  H   UNL     1      10.592  -2.407  22.786  0.00  0.00    +0.210 HD
ENDBRANCH  44  45
BRANCH  43  47
ATOM     47  O   UNL     1       9.567  -4.886  24.558  0.00  0.00    -0.386 OA
ATOM     48  H   UNL     1      10.293  -4.518  24.012  0.00  0.00    +0.210 HD
ENDBRANCH  43  47
BRANCH  42  49
ATOM     49  O   UNL     1       8.114  -6.031  22.813  0.00  0.00    -0.386 OA
ATOM     50  H   UNL     1       8.021  -5.737  21.879  0.00  0.00    +0.210 HD
ENDBRANCH  42  49
BRANCH  41  51
ATOM     51  C   UNL     1       6.157  -5.046  21.329  0.00  0.00    +0.190 C 
BRANCH  51  52
ATOM     52  O   UNL     1       5.734  -6.396  21.523  0.00  0.00    -0.392 OA
ATOM     53  H   UNL     1       5.101  -6.574  20.804  0.00  0.00    +0.210 HD
ENDBRANCH  51  52
ENDBRANCH  41  51
ENDBRANCH  38  39
ENDBRANCH  11  38
BRANCH   7  54
ATOM     54  O   UNL     1       7.243   5.922  26.143  0.00  0.00    -0.461 OA
BRANCH  54  55
ATOM     55  C   UNL     1       6.583   6.602  25.049  0.00  0.00    +0.339 C 
ATOM     56  O   UNL     1       5.291   6.034  24.819  0.00  0.00    -0.331 OA
ATOM     57  C   UNL     1       5.350   4.759  24.158  0.00  0.00    +0.179 C 
ATOM     58  C   UNL     1       5.791   4.998  22.715  0.00  0.00    +0.177 C 
ATOM     59  C   UNL     1       7.215   5.559  22.732  0.00  0.00    +0.180 C 
ATOM     60  C   UNL     1       7.361   6.745  23.705  0.00  0.00    +0.214 C 
BRANCH  60  61
ATOM     61  O   UNL     1       8.737   7.108  23.867  0.00  0.00    -0.383 OA
ATOM     62  H   UNL     1       9.277   6.498  23.332  0.00  0.00    +0.210 HD
ENDBRANCH  60  61
BRANCH  59  63
ATOM     63  O   UNL     1       7.548   5.937  21.381  0.00  0.00    -0.386 OA
ATOM     64  H   UNL     1       7.128   6.796  21.188  0.00  0.00    +0.210 HD
ENDBRANCH  59  63
BRANCH  58  65
ATOM     65  O   UNL     1       4.913   5.940  22.079  0.00  0.00    -0.386 OA
ATOM     66  H   UNL     1       5.483   6.656  21.739  0.00  0.00    +0.210 HD
ENDBRANCH  58  65
BRANCH  57  67
ATOM     67  C   UNL     1       3.967   4.108  24.242  0.00  0.00    +0.190 C 
BRANCH  67  68
ATOM     68  O   UNL     1       3.764   3.189  23.161  0.00  0.00    -0.392 OA
ATOM     69  H   UNL     1       2.860   2.836  23.228  0.00  0.00    +0.210 HD
ENDBRANCH  67  68
ENDBRANCH  57  67
ENDBRANCH  54  55
ENDBRANCH   7  54
TORSDOF 24
ENDMDL
