MODEL 1
REMARK VINA RESULT:      -6.0      0.000      0.000
REMARK  Name = 
REMARK  32 active torsions:
REMARK  status: ('A' for Active; 'I' for Inactive)
REMARK    1  A    between atoms: C_1  and  O_2
REMARK    2  A    between atoms: O_2  and  C_3
REMARK    3  A    between atoms: C_5  and  C_12
REMARK    4  A    between atoms: C_7  and  O_10
REMARK    5  A    between atoms: C_8  and  O_9
REMARK    6  A    between atoms: O_10  and  C_11
REMARK    7  A    between atoms: C_13  and  C_14
REMARK    8  A    between atoms: C_14  and  O_16
REMARK    9  A    between atoms: O_16  and  C_17
REMARK   10  A    between atoms: C_17  and  C_18
REMARK   11  A    between atoms: C_20  and  O_85
REMARK   12  A    between atoms: C_22  and  O_84
REMARK   13  A    between atoms: C_24  and  O_83
REMARK   14  A    between atoms: C_26  and  O_29
REMARK   15  A    between atoms: O_29  and  C_30
REMARK   16  A    between atoms: C_32  and  O_82
REMARK   17  A    between atoms: C_34  and  O_81
REMARK   18  A    between atoms: C_36  and  C_79
REMARK   19  A    between atoms: C_39  and  O_41
REMARK   20  A    between atoms: O_41  and  C_42
REMARK   21  A    between atoms: C_43  and  C_71
REMARK   22  A    between atoms: C_47  and  O_54
REMARK   23  A    between atoms: C_49  and  O_53
REMARK   24  A    between atoms: O_54  and  C_55
REMARK   25  A    between atoms: C_57  and  O_70
REMARK   26  A    between atoms: C_59  and  O_69
REMARK   27  A    between atoms: C_61  and  O_68
REMARK   28  A    between atoms: C_63  and  C_66
REMARK   29  A    between atoms: C_66  and  O_67
REMARK   30  A    between atoms: C_73  and  O_78
REMARK   31  A    between atoms: C_74  and  O_77
REMARK   32  A    between atoms: C_79  and  O_80
REMARK                            x       y       z     vdW  Elec       q    Type
REMARK                         _______ _______ _______ _____ _____    ______ ____
ROOT
ATOM      1  C   UNL     1       3.367  -6.128  25.089  0.00  0.00    +0.221 C 
ATOM      2  C   UNL     1       2.730  -5.970  26.523  0.00  0.00    +0.340 C 
ATOM      3  O   UNL     1       2.252  -7.275  26.924  0.00  0.00    -0.331 OA
ATOM      4  C   UNL     1       1.179  -7.754  26.073  0.00  0.00    +0.179 C 
ATOM      5  C   UNL     1       1.590  -7.859  24.597  0.00  0.00    +0.177 C 
ATOM      6  C   UNL     1       2.209  -6.544  24.171  0.00  0.00    +0.180 C 
ENDROOT
BRANCH   5   7
ATOM      7  O   UNL     1       0.443  -8.080  23.759  0.00  0.00    -0.386 OA
ATOM      8  H   UNL     1       0.406  -7.292  23.175  0.00  0.00    +0.210 HD
ENDBRANCH   5   7
BRANCH   6   9
ATOM      9  O   UNL     1       2.614  -6.631  22.793  0.00  0.00    -0.386 OA
ATOM     10  H   UNL     1       2.321  -5.788  22.385  0.00  0.00    +0.210 HD
ENDBRANCH   6   9
BRANCH   2  11
ATOM     11  O   UNL     1       3.649  -5.396  27.471  0.00  0.00    -0.453 OA
BRANCH  11  12
ATOM     12  C   UNL     1       3.859  -4.024  27.556  0.00  0.00    +0.214 A 
ATOM     13  C   UNL     1       2.629  -3.215  28.029  0.00  0.00    +0.238 A 
ATOM     14  O   UNL     1       1.550  -3.783  28.168  0.00  0.00    -0.283 OA
ATOM     15  C   UNL     1       2.785  -1.756  28.325  0.00  0.00    +0.109 A 
ATOM     16  C   UNL     1       4.018  -1.190  28.057  0.00  0.00    +0.147 A 
ATOM     17  C   UNL     1       4.291   0.180  28.247  0.00  0.00    +0.093 A 
ATOM     18  C   UNL     1       3.317   1.032  28.758  0.00  0.00    +0.131 A 
ATOM     19  C   UNL     1       2.067   0.481  29.051  0.00  0.00    +0.092 A 
ATOM     20  O   UNL     1       5.049  -1.919  27.588  0.00  0.00    -0.451 OA
ATOM     21  C   UNL     1       1.799  -0.897  28.830  0.00  0.00    +0.135 A 
ATOM     22  C   UNL     1       5.019  -3.305  27.437  0.00  0.00    +0.181 A 
BRANCH  22  23
ATOM     23  C   UNL     1       6.449  -3.697  27.159  0.00  0.00    +0.025 A 
ATOM     24  C   UNL     1       6.760  -5.082  27.333  0.00  0.00    +0.015 A 
ATOM     25  C   UNL     1       7.975  -5.654  26.971  0.00  0.00    +0.050 A 
ATOM     26  C   UNL     1       8.917  -4.849  26.380  0.00  0.00    +0.158 A 
ATOM     27  C   UNL     1       8.665  -3.491  26.184  0.00  0.00    +0.159 A 
ATOM     28  C   UNL     1       7.444  -2.901  26.571  0.00  0.00    +0.060 A 
BRANCH  26  29
ATOM     29  O   UNL     1      10.066  -5.436  25.935  0.00  0.00    -0.503 OA
ATOM     30  H   UNL     1       9.817  -5.879  25.104  0.00  0.00    +0.292 HD
ENDBRANCH  26  29
BRANCH  27  31
ATOM     31  O   UNL     1       9.646  -2.778  25.547  0.00  0.00    -0.503 OA
ATOM     32  H   UNL     1       9.467  -2.779  24.594  0.00  0.00    +0.292 HD
ENDBRANCH  27  31
ENDBRANCH  22  23
BRANCH  21  33
ATOM     33  O   UNL     1       0.550  -1.346  29.131  0.00  0.00    -0.506 OA
ATOM     34  H   UNL     1       0.091  -1.624  28.319  0.00  0.00    +0.292 HD
ENDBRANCH  21  33
BRANCH  18  35
ATOM     35  O   UNL     1       3.627   2.368  28.866  0.00  0.00    -0.461 OA
BRANCH  35  36
ATOM     36  C   UNL     1       3.135   3.219  27.798  0.00  0.00    +0.339 C 
ATOM     37  O   UNL     1       3.183   2.548  26.540  0.00  0.00    -0.331 OA
ATOM     38  C   UNL     1       4.017   2.950  25.449  0.00  0.00    +0.179 C 
ATOM     39  C   UNL     1       4.678   4.330  25.553  0.00  0.00    +0.177 C 
ATOM     40  C   UNL     1       5.102   4.621  26.993  0.00  0.00    +0.180 C 
ATOM     41  C   UNL     1       3.863   4.582  27.894  0.00  0.00    +0.214 C 
BRANCH  40  42
ATOM     42  O   UNL     1       6.134   3.730  27.412  0.00  0.00    -0.386 OA
ATOM     43  H   UNL     1       5.822   2.808  27.328  0.00  0.00    +0.210 HD
ENDBRANCH  40  42
BRANCH  41  44
ATOM     44  O   UNL     1       2.961   5.650  27.543  0.00  0.00    -0.383 OA
ATOM     45  H   UNL     1       3.041   6.336  28.242  0.00  0.00    +0.210 HD
ENDBRANCH  41  44
BRANCH  39  46
ATOM     46  O   UNL     1       3.719   5.318  25.126  0.00  0.00    -0.386 OA
ATOM     47  H   UNL     1       3.492   5.862  25.906  0.00  0.00    +0.210 HD
ENDBRANCH  39  46
BRANCH  38  48
ATOM     48  C   UNL     1       5.016   1.822  25.126  0.00  0.00    +0.190 C 
BRANCH  48  49
ATOM     49  O   UNL     1       5.227   1.694  23.724  0.00  0.00    -0.392 OA
ATOM     50  H   UNL     1       5.599   2.531  23.394  0.00  0.00    +0.210 HD
ENDBRANCH  48  49
ENDBRANCH  38  48
ENDBRANCH  35  36
ENDBRANCH  18  35
ENDBRANCH  11  12
ENDBRANCH   2  11
BRANCH   1  51
ATOM     51  O   UNL     1       3.816  -4.946  24.418  0.00  0.00    -0.337 OA
BRANCH  51  54
ATOM     52  C   UNL     1       6.571  -3.055  23.311  0.00  0.00    +0.190 C 
ATOM     53  O   UNL     1       5.440  -3.488  24.044  0.00  0.00    -0.339 OA
ATOM     54  C   UNL     1       5.207  -4.871  24.119  0.00  0.00    +0.282 C 
ATOM     55  C   UNL     1       5.370  -5.635  22.776  0.00  0.00    +0.201 C 
ATOM     56  C   UNL     1       6.535  -5.114  21.932  0.00  0.00    +0.179 C 
ATOM     57  C   UNL     1       6.491  -3.585  21.873  0.00  0.00    +0.178 C 
BRANCH  57  58
ATOM     58  O   UNL     1       7.560  -3.145  21.035  0.00  0.00    -0.386 OA
ATOM     59  H   UNL     1       7.290  -2.285  20.658  0.00  0.00    +0.210 HD
ENDBRANCH  57  58
BRANCH  55  60
ATOM     60  O   UNL     1       5.484  -7.047  23.039  0.00  0.00    -0.384 OA
ATOM     61  H   UNL     1       5.767  -7.493  22.222  0.00  0.00    +0.210 HD
ENDBRANCH  55  60
BRANCH  56  62
ATOM     62  O   UNL     1       6.440  -5.645  20.600  0.00  0.00    -0.386 OA
ATOM     63  H   UNL     1       6.263  -4.874  20.021  0.00  0.00    +0.210 HD
ENDBRANCH  56  62
BRANCH  52  64
ATOM     64  C   UNL     1       6.482  -1.528  23.395  0.00  0.00    +0.266 C 
BRANCH  64  65
ATOM     65  O   UNL     1       7.387  -0.860  22.524  0.00  0.00    -0.459 OA
BRANCH  65  66
ATOM     66  C   UNL     1       8.650  -0.777  22.984  0.00  0.00    +0.332 C 
ATOM     67  O   UNL     1       9.517  -1.645  22.918  0.00  0.00    -0.246 OA
BRANCH  66  69
ATOM     68  C   UNL     1       9.115   1.645  22.718  0.00  0.00    +0.015 C 
ATOM     69  C   UNL     1       8.918   0.575  23.504  0.00  0.00    +0.092 C 
BRANCH  68  74
ATOM     70  C   UNL     1      11.193   4.624  23.718  0.00  0.00    +0.166 A 
ATOM     71  C   UNL     1      10.201   5.529  24.151  0.00  0.00    +0.201 A 
ATOM     72  C   UNL     1       8.849   5.155  24.118  0.00  0.00    +0.166 A 
ATOM     73  C   UNL     1       8.524   3.863  23.660  0.00  0.00    +0.057 A 
ATOM     74  C   UNL     1       9.499   2.958  23.235  0.00  0.00    -0.018 A 
ATOM     75  C   UNL     1      10.830   3.367  23.233  0.00  0.00    +0.057 A 
BRANCH  70  77
ATOM     76  C   UNL     1      13.118   5.234  22.475  0.00  0.00    +0.277 C 
ATOM     77  O   UNL     1      12.503   5.050  23.747  0.00  0.00    -0.491 OA
ENDBRANCH  70  77
BRANCH  72  78
ATOM     78  O   UNL     1       7.718   5.835  24.470  0.00  0.00    -0.491 OA
ATOM     79  C   UNL     1       6.887   6.466  23.519  0.00  0.00    +0.277 C 
ENDBRANCH  72  78
BRANCH  71  80
ATOM     80  O   UNL     1      10.673   6.733  24.598  0.00  0.00    -0.501 OA
ATOM     81  H   UNL     1      10.612   6.790  25.556  0.00  0.00    +0.292 HD
ENDBRANCH  71  80
ENDBRANCH  68  74
ENDBRANCH  66  69
ENDBRANCH  65  66
ENDBRANCH  64  65
ENDBRANCH  52  64
ENDBRANCH  51  54
ENDBRANCH   1  51
BRANCH   4  82
ATOM     82  C   UNL     1       0.625  -9.093  26.585  0.00  0.00    +0.190 C 
BRANCH  82  83
ATOM     83  O   UNL     1       1.311 -10.210  26.025  0.00  0.00    -0.392 OA
ATOM     84  H   UNL     1       2.042  -9.849  25.493  0.00  0.00    +0.210 HD
ENDBRANCH  82  83
ENDBRANCH   4  82
TORSDOF 30
ENDMDL
MODEL 2
REMARK VINA RESULT:      -4.5      1.678      2.838
REMARK  Name = 
REMARK  32 active torsions:
REMARK  status: ('A' for Active; 'I' for Inactive)
REMARK    1  A    between atoms: C_1  and  O_2
REMARK    2  A    between atoms: O_2  and  C_3
REMARK    3  A    between atoms: C_5  and  C_12
REMARK    4  A    between atoms: C_7  and  O_10
REMARK    5  A    between atoms: C_8  and  O_9
REMARK    6  A    between atoms: O_10  and  C_11
REMARK    7  A    between atoms: C_13  and  C_14
REMARK    8  A    between atoms: C_14  and  O_16
REMARK    9  A    between atoms: O_16  and  C_17
REMARK   10  A    between atoms: C_17  and  C_18
REMARK   11  A    between atoms: C_20  and  O_85
REMARK   12  A    between atoms: C_22  and  O_84
REMARK   13  A    between atoms: C_24  and  O_83
REMARK   14  A    between atoms: C_26  and  O_29
REMARK   15  A    between atoms: O_29  and  C_30
REMARK   16  A    between atoms: C_32  and  O_82
REMARK   17  A    between atoms: C_34  and  O_81
REMARK   18  A    between atoms: C_36  and  C_79
REMARK   19  A    between atoms: C_39  and  O_41
REMARK   20  A    between atoms: O_41  and  C_42
REMARK   21  A    between atoms: C_43  and  C_71
REMARK   22  A    between atoms: C_47  and  O_54
REMARK   23  A    between atoms: C_49  and  O_53
REMARK   24  A    between atoms: O_54  and  C_55
REMARK   25  A    between atoms: C_57  and  O_70
REMARK   26  A    between atoms: C_59  and  O_69
REMARK   27  A    between atoms: C_61  and  O_68
REMARK   28  A    between atoms: C_63  and  C_66
REMARK   29  A    between atoms: C_66  and  O_67
REMARK   30  A    between atoms: C_73  and  O_78
REMARK   31  A    between atoms: C_74  and  O_77
REMARK   32  A    between atoms: C_79  and  O_80
REMARK                            x       y       z     vdW  Elec       q    Type
REMARK                         _______ _______ _______ _____ _____    ______ ____
ROOT
ATOM      1  C   UNL     1       3.433  -6.212  24.770  0.00  0.00    +0.221 C 
ATOM      2  C   UNL     1       2.789  -6.100  26.204  0.00  0.00    +0.340 C 
ATOM      3  O   UNL     1       2.308  -7.417  26.560  0.00  0.00    -0.331 OA
ATOM      4  C   UNL     1       1.238  -7.866  25.689  0.00  0.00    +0.179 C 
ATOM      5  C   UNL     1       1.657  -7.924  24.212  0.00  0.00    +0.177 C 
ATOM      6  C   UNL     1       2.280  -6.596  23.832  0.00  0.00    +0.180 C 
ENDROOT
BRANCH   5   7
ATOM      7  O   UNL     1       0.514  -8.116  23.361  0.00  0.00    -0.386 OA
ATOM      8  H   UNL     1       0.670  -7.520  22.597  0.00  0.00    +0.210 HD
ENDBRANCH   5   7
BRANCH   6   9
ATOM      9  O   UNL     1       2.692  -6.639  22.454  0.00  0.00    -0.386 OA
ATOM     10  H   UNL     1       2.291  -7.457  22.091  0.00  0.00    +0.210 HD
ENDBRANCH   6   9
BRANCH   2  11
ATOM     11  O   UNL     1       3.703  -5.558  27.176  0.00  0.00    -0.453 OA
BRANCH  11  12
ATOM     12  C   UNL     1       3.863  -4.188  27.354  0.00  0.00    +0.214 A 
ATOM     13  C   UNL     1       2.599  -3.457  27.863  0.00  0.00    +0.238 A 
ATOM     14  O   UNL     1       1.540  -4.070  27.950  0.00  0.00    -0.283 OA
ATOM     15  C   UNL     1       2.699  -2.016  28.257  0.00  0.00    +0.109 A 
ATOM     16  C   UNL     1       3.913  -1.391  28.042  0.00  0.00    +0.147 A 
ATOM     17  C   UNL     1       4.135  -0.027  28.326  0.00  0.00    +0.093 A 
ATOM     18  C   UNL     1       3.126   0.754  28.880  0.00  0.00    +0.131 A 
ATOM     19  C   UNL     1       1.893   0.141  29.120  0.00  0.00    +0.092 A 
ATOM     20  O   UNL     1       4.975  -2.050  27.540  0.00  0.00    -0.451 OA
ATOM     21  C   UNL     1       1.677  -1.228  28.805  0.00  0.00    +0.135 A 
ATOM     22  C   UNL     1       4.996  -3.422  27.297  0.00  0.00    +0.181 A 
BRANCH  22  23
ATOM     23  C   UNL     1       6.443  -3.744  27.012  0.00  0.00    +0.025 A 
ATOM     24  C   UNL     1       6.800  -5.127  27.086  0.00  0.00    +0.015 A 
ATOM     25  C   UNL     1       8.038  -5.629  26.699  0.00  0.00    +0.050 A 
ATOM     26  C   UNL     1       8.959  -4.750  26.186  0.00  0.00    +0.158 A 
ATOM     27  C   UNL     1       8.662  -3.391  26.090  0.00  0.00    +0.159 A 
ATOM     28  C   UNL     1       7.417  -2.873  26.501  0.00  0.00    +0.060 A 
BRANCH  26  29
ATOM     29  O   UNL     1      10.133  -5.263  25.716  0.00  0.00    -0.503 OA
ATOM     30  H   UNL     1      10.579  -4.514  25.280  0.00  0.00    +0.292 HD
ENDBRANCH  26  29
BRANCH  27  31
ATOM     31  O   UNL     1       9.627  -2.598  25.524  0.00  0.00    -0.503 OA
ATOM     32  H   UNL     1       9.204  -1.810  25.147  0.00  0.00    +0.292 HD
ENDBRANCH  27  31
ENDBRANCH  22  23
BRANCH  21  33
ATOM     33  O   UNL     1       0.443  -1.740  29.060  0.00  0.00    -0.506 OA
ATOM     34  H   UNL     1      -0.144  -1.590  28.298  0.00  0.00    +0.292 HD
ENDBRANCH  21  33
BRANCH  18  35
ATOM     35  O   UNL     1       3.386   2.090  29.080  0.00  0.00    -0.461 OA
BRANCH  35  36
ATOM     36  C   UNL     1       3.718   2.854  27.891  0.00  0.00    +0.339 C 
ATOM     37  O   UNL     1       5.036   2.551  27.435  0.00  0.00    -0.331 OA
ATOM     38  C   UNL     1       6.114   3.491  27.418  0.00  0.00    +0.179 C 
ATOM     39  C   UNL     1       5.753   4.965  27.644  0.00  0.00    +0.177 C 
ATOM     40  C   UNL     1       4.633   5.096  28.677  0.00  0.00    +0.180 C 
ATOM     41  C   UNL     1       3.398   4.342  28.171  0.00  0.00    +0.214 C 
BRANCH  40  42
ATOM     42  O   UNL     1       5.072   4.665  29.964  0.00  0.00    -0.386 OA
ATOM     43  H   UNL     1       5.607   5.369  30.378  0.00  0.00    +0.210 HD
ENDBRANCH  40  42
BRANCH  41  44
ATOM     44  O   UNL     1       2.888   4.971  26.978  0.00  0.00    -0.383 OA
ATOM     45  H   UNL     1       3.532   5.668  26.722  0.00  0.00    +0.210 HD
ENDBRANCH  41  44
BRANCH  39  46
ATOM     46  O   UNL     1       5.313   5.514  26.386  0.00  0.00    -0.386 OA
ATOM     47  H   UNL     1       4.454   5.100  26.170  0.00  0.00    +0.210 HD
ENDBRANCH  39  46
BRANCH  38  48
ATOM     48  C   UNL     1       7.240   2.994  28.346  0.00  0.00    +0.190 C 
BRANCH  48  49
ATOM     49  O   UNL     1       6.749   2.081  29.323  0.00  0.00    -0.392 OA
ATOM     50  H   UNL     1       6.622   1.217  28.894  0.00  0.00    +0.210 HD
ENDBRANCH  48  49
ENDBRANCH  38  48
ENDBRANCH  35  36
ENDBRANCH  18  35
ENDBRANCH  11  12
ENDBRANCH   2  11
BRANCH   1  51
ATOM     51  O   UNL     1       3.887  -5.009  24.139  0.00  0.00    -0.337 OA
BRANCH  51  54
ATOM     52  C   UNL     1       6.647  -2.991  23.300  0.00  0.00    +0.190 C 
ATOM     53  O   UNL     1       5.477  -3.483  23.928  0.00  0.00    -0.339 OA
ATOM     54  C   UNL     1       5.294  -4.875  23.959  0.00  0.00    +0.282 C 
ATOM     55  C   UNL     1       5.597  -5.603  22.620  0.00  0.00    +0.201 C 
ATOM     56  C   UNL     1       6.806  -5.020  21.886  0.00  0.00    +0.179 C 
ATOM     57  C   UNL     1       6.707  -3.493  21.851  0.00  0.00    +0.178 C 
BRANCH  57  58
ATOM     58  O   UNL     1       7.823  -2.994  21.113  0.00  0.00    -0.386 OA
ATOM     59  H   UNL     1       7.986  -3.625  20.385  0.00  0.00    +0.210 HD
ENDBRANCH  57  58
BRANCH  55  60
ATOM     60  O   UNL     1       5.745  -7.015  22.866  0.00  0.00    -0.384 OA
ATOM     61  H   UNL     1       6.280  -7.136  23.671  0.00  0.00    +0.210 HD
ENDBRANCH  55  60
BRANCH  56  62
ATOM     62  O   UNL     1       6.843  -5.526  20.541  0.00  0.00    -0.386 OA
ATOM     63  H   UNL     1       7.773  -5.429  20.249  0.00  0.00    +0.210 HD
ENDBRANCH  56  62
BRANCH  52  64
ATOM     64  C   UNL     1       6.490  -1.471  23.404  0.00  0.00    +0.266 C 
BRANCH  64  65
ATOM     65  O   UNL     1       7.087  -0.765  22.323  0.00  0.00    -0.459 OA
BRANCH  65  66
ATOM     66  C   UNL     1       7.993   0.161  22.690  0.00  0.00    +0.332 C 
ATOM     67  O   UNL     1       9.171  -0.036  22.983  0.00  0.00    -0.246 OA
BRANCH  66  69
ATOM     68  C   UNL     1       6.377   1.928  23.338  0.00  0.00    +0.015 C 
ATOM     69  C   UNL     1       7.414   1.512  22.593  0.00  0.00    +0.092 C 
BRANCH  68  74
ATOM     70  C   UNL     1       3.764   4.641  23.269  0.00  0.00    +0.166 A 
ATOM     71  C   UNL     1       4.529   5.761  22.881  0.00  0.00    +0.201 A 
ATOM     72  C   UNL     1       5.903   5.620  22.637  0.00  0.00    +0.166 A 
ATOM     73  C   UNL     1       6.480   4.342  22.777  0.00  0.00    +0.057 A 
ATOM     74  C   UNL     1       5.730   3.226  23.155  0.00  0.00    -0.018 A 
ATOM     75  C   UNL     1       4.377   3.398  23.436  0.00  0.00    +0.057 A 
BRANCH  70  77
ATOM     76  C   UNL     1       1.576   4.840  22.375  0.00  0.00    +0.277 C 
ATOM     77  O   UNL     1       2.424   4.838  23.520  0.00  0.00    -0.491 OA
ENDBRANCH  70  77
BRANCH  72  78
ATOM     78  O   UNL     1       6.849   6.532  22.263  0.00  0.00    -0.491 OA
ATOM     79  C   UNL     1       8.193   6.447  22.687  0.00  0.00    +0.277 C 
ENDBRANCH  72  78
BRANCH  71  80
ATOM     80  O   UNL     1       3.823   6.926  22.757  0.00  0.00    -0.501 OA
ATOM     81  H   UNL     1       4.267   7.646  23.215  0.00  0.00    +0.292 HD
ENDBRANCH  71  80
ENDBRANCH  68  74
ENDBRANCH  66  69
ENDBRANCH  65  66
ENDBRANCH  64  65
ENDBRANCH  52  64
ENDBRANCH  51  54
ENDBRANCH   1  51
BRANCH   4  82
ATOM     82  C   UNL     1       0.680  -9.221  26.154  0.00  0.00    +0.190 C 
BRANCH  82  83
ATOM     83  O   UNL     1       0.468 -10.119  25.067  0.00  0.00    -0.392 OA
ATOM     84  H   UNL     1       1.223 -10.733  25.062  0.00  0.00    +0.210 HD
ENDBRANCH  82  83
ENDBRANCH   4  82
TORSDOF 30
ENDMDL
MODEL 3
REMARK VINA RESULT:      -4.4      2.556     10.768
REMARK  Name = 
REMARK  32 active torsions:
REMARK  status: ('A' for Active; 'I' for Inactive)
REMARK    1  A    between atoms: C_1  and  O_2
REMARK    2  A    between atoms: O_2  and  C_3
REMARK    3  A    between atoms: C_5  and  C_12
REMARK    4  A    between atoms: C_7  and  O_10
REMARK    5  A    between atoms: C_8  and  O_9
REMARK    6  A    between atoms: O_10  and  C_11
REMARK    7  A    between atoms: C_13  and  C_14
REMARK    8  A    between atoms: C_14  and  O_16
REMARK    9  A    between atoms: O_16  and  C_17
REMARK   10  A    between atoms: C_17  and  C_18
REMARK   11  A    between atoms: C_20  and  O_85
REMARK   12  A    between atoms: C_22  and  O_84
REMARK   13  A    between atoms: C_24  and  O_83
REMARK   14  A    between atoms: C_26  and  O_29
REMARK   15  A    between atoms: O_29  and  C_30
REMARK   16  A    between atoms: C_32  and  O_82
REMARK   17  A    between atoms: C_34  and  O_81
REMARK   18  A    between atoms: C_36  and  C_79
REMARK   19  A    between atoms: C_39  and  O_41
REMARK   20  A    between atoms: O_41  and  C_42
REMARK   21  A    between atoms: C_43  and  C_71
REMARK   22  A    between atoms: C_47  and  O_54
REMARK   23  A    between atoms: C_49  and  O_53
REMARK   24  A    between atoms: O_54  and  C_55
REMARK   25  A    between atoms: C_57  and  O_70
REMARK   26  A    between atoms: C_59  and  O_69
REMARK   27  A    between atoms: C_61  and  O_68
REMARK   28  A    between atoms: C_63  and  C_66
REMARK   29  A    between atoms: C_66  and  O_67
REMARK   30  A    between atoms: C_73  and  O_78
REMARK   31  A    between atoms: C_74  and  O_77
REMARK   32  A    between atoms: C_79  and  O_80
REMARK                            x       y       z     vdW  Elec       q    Type
REMARK                         _______ _______ _______ _____ _____    ______ ____
ROOT
ATOM      1  C   UNL     1       4.901   2.098  28.911  0.00  0.00    +0.221 C 
ATOM      2  C   UNL     1       5.894   3.038  28.126  0.00  0.00    +0.340 C 
ATOM      3  O   UNL     1       6.184   4.165  28.985  0.00  0.00    -0.331 OA
ATOM      4  C   UNL     1       5.009   4.974  29.247  0.00  0.00    +0.179 C 
ATOM      5  C   UNL     1       3.875   4.181  29.913  0.00  0.00    +0.177 C 
ATOM      6  C   UNL     1       3.622   2.925  29.105  0.00  0.00    +0.180 C 
ENDROOT
BRANCH   5   7
ATOM      7  O   UNL     1       2.653   4.937  29.917  0.00  0.00    -0.386 OA
ATOM      8  H   UNL     1       2.822   5.687  29.307  0.00  0.00    +0.210 HD
ENDBRANCH   5   7
BRANCH   6   9
ATOM      9  O   UNL     1       2.572   2.161  29.725  0.00  0.00    -0.386 OA
ATOM     10  H   UNL     1       2.825   1.223  29.594  0.00  0.00    +0.210 HD
ENDBRANCH   6   9
BRANCH   2  11
ATOM     11  O   UNL     1       7.080   2.346  27.694  0.00  0.00    -0.453 OA
BRANCH  11  12
ATOM     12  C   UNL     1       7.118   1.617  26.510  0.00  0.00    +0.214 A 
ATOM     13  C   UNL     1       7.736   0.205  26.646  0.00  0.00    +0.238 A 
ATOM     14  O   UNL     1       8.255  -0.127  27.707  0.00  0.00    -0.283 OA
ATOM     15  C   UNL     1       7.672  -0.734  25.482  0.00  0.00    +0.109 A 
ATOM     16  C   UNL     1       7.144  -0.238  24.304  0.00  0.00    +0.147 A 
ATOM     17  C   UNL     1       7.064  -0.998  23.119  0.00  0.00    +0.093 A 
ATOM     18  C   UNL     1       7.491  -2.322  23.097  0.00  0.00    +0.131 A 
ATOM     19  C   UNL     1       8.015  -2.852  24.279  0.00  0.00    +0.092 A 
ATOM     20  O   UNL     1       6.670   1.019  24.210  0.00  0.00    -0.451 OA
ATOM     21  C   UNL     1       8.113  -2.065  25.459  0.00  0.00    +0.135 A 
ATOM     22  C   UNL     1       6.558   1.893  25.291  0.00  0.00    +0.181 A 
BRANCH  22  23
ATOM     23  C   UNL     1       5.738   3.049  24.772  0.00  0.00    +0.025 A 
ATOM     24  C   UNL     1       6.363   3.855  23.769  0.00  0.00    +0.015 A 
ATOM     25  C   UNL     1       5.706   4.857  23.062  0.00  0.00    +0.050 A 
ATOM     26  C   UNL     1       4.373   5.061  23.319  0.00  0.00    +0.158 A 
ATOM     27  C   UNL     1       3.715   4.302  24.285  0.00  0.00    +0.159 A 
ATOM     28  C   UNL     1       4.381   3.300  25.021  0.00  0.00    +0.060 A 
BRANCH  26  29
ATOM     29  O   UNL     1       3.712   5.976  22.552  0.00  0.00    -0.503 OA
ATOM     30  H   UNL     1       3.399   6.652  23.180  0.00  0.00    +0.292 HD
ENDBRANCH  26  29
BRANCH  27  31
ATOM     31  O   UNL     1       2.375   4.547  24.440  0.00  0.00    -0.503 OA
ATOM     32  H   UNL     1       2.235   4.999  25.287  0.00  0.00    +0.292 HD
ENDBRANCH  27  31
ENDBRANCH  22  23
BRANCH  21  33
ATOM     33  O   UNL     1       8.648  -2.656  26.561  0.00  0.00    -0.506 OA
ATOM     34  H   UNL     1       8.045  -3.344  26.896  0.00  0.00    +0.292 HD
ENDBRANCH  21  33
BRANCH  18  35
ATOM     35  O   UNL     1       7.440  -2.992  21.897  0.00  0.00    -0.461 OA
BRANCH  35  36
ATOM     36  C   UNL     1       6.194  -3.679  21.609  0.00  0.00    +0.339 C 
ATOM     37  O   UNL     1       5.172  -3.302  22.531  0.00  0.00    -0.331 OA
ATOM     38  C   UNL     1       4.570  -4.200  23.469  0.00  0.00    +0.179 C 
ATOM     39  C   UNL     1       4.847  -5.696  23.274  0.00  0.00    +0.177 C 
ATOM     40  C   UNL     1       6.285  -5.924  22.805  0.00  0.00    +0.180 C 
ATOM     41  C   UNL     1       6.497  -5.191  21.476  0.00  0.00    +0.214 C 
BRANCH  40  42
ATOM     42  O   UNL     1       7.218  -5.546  23.816  0.00  0.00    -0.386 OA
ATOM     43  H   UNL     1       6.771  -5.535  24.684  0.00  0.00    +0.210 HD
ENDBRANCH  40  42
BRANCH  41  44
ATOM     44  O   UNL     1       5.668  -5.774  20.451  0.00  0.00    -0.383 OA
ATOM     45  H   UNL     1       5.686  -6.747  20.585  0.00  0.00    +0.210 HD
ENDBRANCH  41  44
BRANCH  39  46
ATOM     46  O   UNL     1       3.932  -6.193  22.278  0.00  0.00    -0.386 OA
ATOM     47  H   UNL     1       3.354  -5.450  22.014  0.00  0.00    +0.210 HD
ENDBRANCH  39  46
BRANCH  38  48
ATOM     48  C   UNL     1       4.859  -3.711  24.902  0.00  0.00    +0.190 C 
BRANCH  48  49
ATOM     49  O   UNL     1       4.303  -2.421  25.138  0.00  0.00    -0.392 OA
ATOM     50  H   UNL     1       3.382  -2.536  25.432  0.00  0.00    +0.210 HD
ENDBRANCH  48  49
ENDBRANCH  38  48
ENDBRANCH  35  36
ENDBRANCH  18  35
ENDBRANCH  11  12
ENDBRANCH   2  11
BRANCH   1  51
ATOM     51  O   UNL     1       4.369   0.959  28.226  0.00  0.00    -0.337 OA
BRANCH  51  54
ATOM     52  C   UNL     1       2.214  -1.574  29.382  0.00  0.00    +0.190 C 
ATOM     53  O   UNL     1       3.289  -0.658  29.287  0.00  0.00    -0.339 OA
ATOM     54  C   UNL     1       3.058   0.545  28.599  0.00  0.00    +0.282 C 
ATOM     55  C   UNL     1       2.288   0.393  27.258  0.00  0.00    +0.201 C 
ATOM     56  C   UNL     1       1.182  -0.661  27.322  0.00  0.00    +0.179 C 
ATOM     57  C   UNL     1       1.716  -1.937  27.977  0.00  0.00    +0.178 C 
BRANCH  57  58
ATOM     58  O   UNL     1       0.671  -2.910  27.969  0.00  0.00    -0.386 OA
ATOM     59  H   UNL     1       1.088  -3.777  28.141  0.00  0.00    +0.210 HD
ENDBRANCH  57  58
BRANCH  55  60
ATOM     60  O   UNL     1       1.785   1.679  26.845  0.00  0.00    -0.384 OA
ATOM     61  H   UNL     1       0.996   1.540  26.293  0.00  0.00    +0.210 HD
ENDBRANCH  55  60
BRANCH  56  62
ATOM     62  O   UNL     1       0.726  -0.964  25.993  0.00  0.00    -0.386 OA
ATOM     63  H   UNL     1      -0.042  -0.376  25.838  0.00  0.00    +0.210 HD
ENDBRANCH  56  62
BRANCH  52  64
ATOM     64  C   UNL     1       2.828  -2.761  30.130  0.00  0.00    +0.266 C 
BRANCH  64  65
ATOM     65  O   UNL     1       4.063  -3.200  29.578  0.00  0.00    -0.459 OA
BRANCH  65  66
ATOM     66  C   UNL     1       4.191  -4.537  29.483  0.00  0.00    +0.332 C 
ATOM     67  O   UNL     1       4.868  -5.266  30.205  0.00  0.00    -0.246 OA
BRANCH  66  69
ATOM     68  C   UNL     1       3.625  -6.099  27.641  0.00  0.00    +0.015 C 
ATOM     69  C   UNL     1       3.301  -5.065  28.434  0.00  0.00    +0.092 C 
BRANCH  68  74
ATOM     70  C   UNL     1       1.343  -6.046  24.643  0.00  0.00    +0.166 A 
ATOM     71  C   UNL     1       1.266  -7.417  24.321  0.00  0.00    +0.201 A 
ATOM     72  C   UNL     1       1.961  -8.358  25.096  0.00  0.00    +0.166 A 
ATOM     73  C   UNL     1       2.713  -7.897  26.195  0.00  0.00    +0.057 A 
ATOM     74  C   UNL     1       2.791  -6.541  26.523  0.00  0.00    -0.018 A 
ATOM     75  C   UNL     1       2.131  -5.621  25.714  0.00  0.00    +0.057 A 
BRANCH  70  77
ATOM     76  C   UNL     1       0.601  -3.818  24.310  0.00  0.00    +0.277 C 
ATOM     77  O   UNL     1       0.663  -5.161  23.836  0.00  0.00    -0.491 OA
ENDBRANCH  70  77
BRANCH  72  78
ATOM     78  O   UNL     1       2.052  -9.717  24.993  0.00  0.00    -0.491 OA
ATOM     79  C   UNL     1       1.004 -10.579  25.382  0.00  0.00    +0.277 C 
ENDBRANCH  72  78
BRANCH  71  80
ATOM     80  O   UNL     1       0.471  -7.714  23.248  0.00  0.00    -0.501 OA
ATOM     81  H   UNL     1       0.814  -7.311  22.446  0.00  0.00    +0.292 HD
ENDBRANCH  71  80
ENDBRANCH  68  74
ENDBRANCH  66  69
ENDBRANCH  65  66
ENDBRANCH  64  65
ENDBRANCH  52  64
ENDBRANCH  51  54
ENDBRANCH   1  51
BRANCH   4  82
ATOM     82  C   UNL     1       5.370   6.217  30.077  0.00  0.00    +0.190 C 
BRANCH  82  83
ATOM     83  O   UNL     1       4.264   7.104  30.229  0.00  0.00    -0.392 OA
ATOM     84  H   UNL     1       3.859   7.196  29.348  0.00  0.00    +0.210 HD
ENDBRANCH  82  83
ENDBRANCH   4  82
TORSDOF 30
ENDMDL
MODEL 4
REMARK VINA RESULT:      -4.3      2.197      6.472
REMARK  Name = 
REMARK  32 active torsions:
REMARK  status: ('A' for Active; 'I' for Inactive)
REMARK    1  A    between atoms: C_1  and  O_2
REMARK    2  A    between atoms: O_2  and  C_3
REMARK    3  A    between atoms: C_5  and  C_12
REMARK    4  A    between atoms: C_7  and  O_10
REMARK    5  A    between atoms: C_8  and  O_9
REMARK    6  A    between atoms: O_10  and  C_11
REMARK    7  A    between atoms: C_13  and  C_14
REMARK    8  A    between atoms: C_14  and  O_16
REMARK    9  A    between atoms: O_16  and  C_17
REMARK   10  A    between atoms: C_17  and  C_18
REMARK   11  A    between atoms: C_20  and  O_85
REMARK   12  A    between atoms: C_22  and  O_84
REMARK   13  A    between atoms: C_24  and  O_83
REMARK   14  A    between atoms: C_26  and  O_29
REMARK   15  A    between atoms: O_29  and  C_30
REMARK   16  A    between atoms: C_32  and  O_82
REMARK   17  A    between atoms: C_34  and  O_81
REMARK   18  A    between atoms: C_36  and  C_79
REMARK   19  A    between atoms: C_39  and  O_41
REMARK   20  A    between atoms: O_41  and  C_42
REMARK   21  A    between atoms: C_43  and  C_71
REMARK   22  A    between atoms: C_47  and  O_54
REMARK   23  A    between atoms: C_49  and  O_53
REMARK   24  A    between atoms: O_54  and  C_55
REMARK   25  A    between atoms: C_57  and  O_70
REMARK   26  A    between atoms: C_59  and  O_69
REMARK   27  A    between atoms: C_61  and  O_68
REMARK   28  A    between atoms: C_63  and  C_66
REMARK   29  A    between atoms: C_66  and  O_67
REMARK   30  A    between atoms: C_73  and  O_78
REMARK   31  A    between atoms: C_74  and  O_77
REMARK   32  A    between atoms: C_79  and  O_80
REMARK                            x       y       z     vdW  Elec       q    Type
REMARK                         _______ _______ _______ _____ _____    ______ ____
ROOT
ATOM      1  C   UNL     1       2.969  -5.012  26.230  0.00  0.00    +0.221 C 
ATOM      2  C   UNL     1       3.811  -3.797  26.778  0.00  0.00    +0.340 C 
ATOM      3  O   UNL     1       5.203  -4.188  26.735  0.00  0.00    -0.331 OA
ATOM      4  C   UNL     1       5.492  -5.294  27.629  0.00  0.00    +0.179 C 
ATOM      5  C   UNL     1       4.663  -6.548  27.313  0.00  0.00    +0.177 C 
ATOM      6  C   UNL     1       3.202  -6.154  27.229  0.00  0.00    +0.180 C 
ENDROOT
BRANCH   5   7
ATOM      7  O   UNL     1       4.781  -7.520  28.365  0.00  0.00    -0.386 OA
ATOM      8  H   UNL     1       4.115  -7.248  29.032  0.00  0.00    +0.210 HD
ENDBRANCH   5   7
BRANCH   6   9
ATOM      9  O   UNL     1       2.412  -7.316  26.918  0.00  0.00    -0.386 OA
ATOM     10  H   UNL     1       2.305  -7.301  25.943  0.00  0.00    +0.210 HD
ENDBRANCH   6   9
BRANCH   2  11
ATOM     11  O   UNL     1       3.550  -2.579  26.056  0.00  0.00    -0.453 OA
BRANCH  11  12
ATOM     12  C   UNL     1       4.576  -1.758  25.601  0.00  0.00    +0.214 A 
ATOM     13  C   UNL     1       4.849  -0.521  26.488  0.00  0.00    +0.238 A 
ATOM     14  O   UNL     1       4.096  -0.272  27.424  0.00  0.00    -0.283 OA
ATOM     15  C   UNL     1       6.039   0.338  26.196  0.00  0.00    +0.109 A 
ATOM     16  C   UNL     1       6.777   0.024  25.070  0.00  0.00    +0.147 A 
ATOM     17  C   UNL     1       7.896   0.774  24.652  0.00  0.00    +0.093 A 
ATOM     18  C   UNL     1       8.334   1.866  25.394  0.00  0.00    +0.131 A 
ATOM     19  C   UNL     1       7.613   2.196  26.545  0.00  0.00    +0.092 A 
ATOM     20  O   UNL     1       6.471  -1.029  24.288  0.00  0.00    -0.451 OA
ATOM     21  C   UNL     1       6.472   1.445  26.940  0.00  0.00    +0.135 A 
ATOM     22  C   UNL     1       5.474  -1.956  24.586  0.00  0.00    +0.181 A 
BRANCH  22  23
ATOM     23  C   UNL     1       5.680  -3.078  23.598  0.00  0.00    +0.025 A 
ATOM     24  C   UNL     1       7.012  -3.234  23.100  0.00  0.00    +0.015 A 
ATOM     25  C   UNL     1       7.424  -4.304  22.313  0.00  0.00    +0.050 A 
ATOM     26  C   UNL     1       6.508  -5.285  22.027  0.00  0.00    +0.158 A 
ATOM     27  C   UNL     1       5.196  -5.185  22.489  0.00  0.00    +0.159 A 
ATOM     28  C   UNL     1       4.767  -4.090  23.267  0.00  0.00    +0.060 A 
BRANCH  26  29
ATOM     29  O   UNL     1       6.945  -6.381  21.341  0.00  0.00    -0.503 OA
ATOM     30  H   UNL     1       7.001  -7.090  22.007  0.00  0.00    +0.292 HD
ENDBRANCH  26  29
BRANCH  27  31
ATOM     31  O   UNL     1       4.366  -6.234  22.190  0.00  0.00    -0.503 OA
ATOM     32  H   UNL     1       4.121  -6.685  23.014  0.00  0.00    +0.292 HD
ENDBRANCH  27  31
ENDBRANCH  22  23
BRANCH  21  33
ATOM     33  O   UNL     1       5.822   1.843  28.066  0.00  0.00    -0.506 OA
ATOM     34  H   UNL     1       4.972   1.375  28.144  0.00  0.00    +0.292 HD
ENDBRANCH  21  33
BRANCH  18  35
ATOM     35  O   UNL     1       9.395   2.591  24.903  0.00  0.00    -0.461 OA
BRANCH  35  36
ATOM     36  C   UNL     1       9.108   3.436  23.758  0.00  0.00    +0.339 C 
ATOM     37  O   UNL     1      10.265   4.166  23.353  0.00  0.00    -0.331 OA
ATOM     38  C   UNL     1      10.376   5.591  23.417  0.00  0.00    +0.179 C 
ATOM     39  C   UNL     1       9.083   6.376  23.676  0.00  0.00    +0.177 C 
ATOM     40  C   UNL     1       8.182   5.629  24.660  0.00  0.00    +0.180 C 
ATOM     41  C   UNL     1       7.834   4.257  24.072  0.00  0.00    +0.214 C 
BRANCH  40  42
ATOM     42  O   UNL     1       8.786   5.556  25.951  0.00  0.00    -0.386 OA
ATOM     43  H   UNL     1       8.811   6.447  26.349  0.00  0.00    +0.210 HD
ENDBRANCH  40  42
BRANCH  41  44
ATOM     44  O   UNL     1       7.041   4.416  22.880  0.00  0.00    -0.383 OA
ATOM     45  H   UNL     1       6.591   3.558  22.717  0.00  0.00    +0.210 HD
ENDBRANCH  41  44
BRANCH  39  46
ATOM     46  O   UNL     1       8.396   6.532  22.418  0.00  0.00    -0.386 OA
ATOM     47  H   UNL     1       8.453   7.476  22.169  0.00  0.00    +0.210 HD
ENDBRANCH  39  46
BRANCH  38  48
ATOM     48  C   UNL     1      11.518   5.972  24.379  0.00  0.00    +0.190 C 
BRANCH  48  49
ATOM     49  O   UNL     1      12.792   5.639  23.836  0.00  0.00    -0.392 OA
ATOM     50  H   UNL     1      12.651   5.166  22.997  0.00  0.00    +0.210 HD
ENDBRANCH  48  49
ENDBRANCH  38  48
ENDBRANCH  35  36
ENDBRANCH  18  35
ENDBRANCH  11  12
ENDBRANCH   2  11
BRANCH   1  51
ATOM     51  O   UNL     1       1.541  -4.918  26.276  0.00  0.00    -0.337 OA
BRANCH  51  54
ATOM     52  C   UNL     1       0.890  -1.885  27.941  0.00  0.00    +0.190 C 
ATOM     53  O   UNL     1       0.937  -2.898  26.952  0.00  0.00    -0.339 OA
ATOM     54  C   UNL     1       0.982  -4.231  27.392  0.00  0.00    +0.282 C 
ATOM     55  C   UNL     1       1.967  -4.500  28.563  0.00  0.00    +0.201 C 
ATOM     56  C   UNL     1       1.993  -3.369  29.591  0.00  0.00    +0.179 C 
ATOM     57  C   UNL     1       2.098  -2.019  28.877  0.00  0.00    +0.178 C 
BRANCH  57  58
ATOM     58  O   UNL     1       2.172  -0.997  29.872  0.00  0.00    -0.386 OA
ATOM     59  H   UNL     1       1.277  -0.905  30.253  0.00  0.00    +0.210 HD
ENDBRANCH  57  58
BRANCH  55  60
ATOM     60  O   UNL     1       1.658  -5.771  29.167  0.00  0.00    -0.384 OA
ATOM     61  H   UNL     1       2.298  -6.431  28.846  0.00  0.00    +0.210 HD
ENDBRANCH  55  60
BRANCH  56  62
ATOM     62  O   UNL     1       3.123  -3.535  30.464  0.00  0.00    -0.386 OA
ATOM     63  H   UNL     1       3.178  -4.496  30.643  0.00  0.00    +0.210 HD
ENDBRANCH  56  62
BRANCH  52  64
ATOM     64  C   UNL     1       0.904  -0.591  27.120  0.00  0.00    +0.266 C 
BRANCH  64  65
ATOM     65  O   UNL     1       0.445   0.543  27.845  0.00  0.00    -0.459 OA
BRANCH  65  66
ATOM     66  C   UNL     1       1.309   1.576  27.875  0.00  0.00    +0.332 C 
ATOM     67  O   UNL     1       1.982   1.947  28.834  0.00  0.00    -0.246 OA
BRANCH  66  69
ATOM     68  C   UNL     1       2.578   2.719  26.076  0.00  0.00    +0.015 C 
ATOM     69  C   UNL     1       1.440   2.174  26.535  0.00  0.00    +0.092 C 
BRANCH  68  74
ATOM     70  C   UNL     1       3.655   5.130  23.389  0.00  0.00    +0.166 A 
ATOM     71  C   UNL     1       2.896   4.683  22.286  0.00  0.00    +0.201 A 
ATOM     72  C   UNL     1       2.027   3.592  22.431  0.00  0.00    +0.166 A 
ATOM     73  C   UNL     1       1.928   2.977  23.696  0.00  0.00    +0.057 A 
ATOM     74  C   UNL     1       2.671   3.416  24.794  0.00  0.00    -0.018 A 
ATOM     75  C   UNL     1       3.561   4.471  24.616  0.00  0.00    +0.057 A 
BRANCH  70  77
ATOM     76  C   UNL     1       4.916   6.887  24.362  0.00  0.00    +0.277 C 
ATOM     77  O   UNL     1       4.512   6.189  23.187  0.00  0.00    -0.491 OA
ENDBRANCH  70  77
BRANCH  72  78
ATOM     78  O   UNL     1       1.202   2.973  21.535  0.00  0.00    -0.491 OA
ATOM     79  C   UNL     1       1.297   3.190  20.143  0.00  0.00    +0.277 C 
ENDBRANCH  72  78
BRANCH  71  80
ATOM     80  O   UNL     1       3.075   5.399  21.135  0.00  0.00    -0.501 OA
ATOM     81  H   UNL     1       3.098   6.342  21.318  0.00  0.00    +0.292 HD
ENDBRANCH  71  80
ENDBRANCH  68  74
ENDBRANCH  66  69
ENDBRANCH  65  66
ENDBRANCH  64  65
ENDBRANCH  52  64
ENDBRANCH  51  54
ENDBRANCH   1  51
BRANCH   4  82
ATOM     82  C   UNL     1       6.994  -5.618  27.637  0.00  0.00    +0.190 C 
BRANCH  82  83
ATOM     83  O   UNL     1       7.326  -6.614  28.601  0.00  0.00    -0.392 OA
ATOM     84  H   UNL     1       6.526  -7.153  28.730  0.00  0.00    +0.210 HD
ENDBRANCH  82  83
ENDBRANCH   4  82
TORSDOF 30
ENDMDL
MODEL 5
REMARK VINA RESULT:      -3.5      2.187      5.823
REMARK  Name = 
REMARK  32 active torsions:
REMARK  status: ('A' for Active; 'I' for Inactive)
REMARK    1  A    between atoms: C_1  and  O_2
REMARK    2  A    between atoms: O_2  and  C_3
REMARK    3  A    between atoms: C_5  and  C_12
REMARK    4  A    between atoms: C_7  and  O_10
REMARK    5  A    between atoms: C_8  and  O_9
REMARK    6  A    between atoms: O_10  and  C_11
REMARK    7  A    between atoms: C_13  and  C_14
REMARK    8  A    between atoms: C_14  and  O_16
REMARK    9  A    between atoms: O_16  and  C_17
REMARK   10  A    between atoms: C_17  and  C_18
REMARK   11  A    between atoms: C_20  and  O_85
REMARK   12  A    between atoms: C_22  and  O_84
REMARK   13  A    between atoms: C_24  and  O_83
REMARK   14  A    between atoms: C_26  and  O_29
REMARK   15  A    between atoms: O_29  and  C_30
REMARK   16  A    between atoms: C_32  and  O_82
REMARK   17  A    between atoms: C_34  and  O_81
REMARK   18  A    between atoms: C_36  and  C_79
REMARK   19  A    between atoms: C_39  and  O_41
REMARK   20  A    between atoms: O_41  and  C_42
REMARK   21  A    between atoms: C_43  and  C_71
REMARK   22  A    between atoms: C_47  and  O_54
REMARK   23  A    between atoms: C_49  and  O_53
REMARK   24  A    between atoms: O_54  and  C_55
REMARK   25  A    between atoms: C_57  and  O_70
REMARK   26  A    between atoms: C_59  and  O_69
REMARK   27  A    between atoms: C_61  and  O_68
REMARK   28  A    between atoms: C_63  and  C_66
REMARK   29  A    between atoms: C_66  and  O_67
REMARK   30  A    between atoms: C_73  and  O_78
REMARK   31  A    between atoms: C_74  and  O_77
REMARK   32  A    between atoms: C_79  and  O_80
REMARK                            x       y       z     vdW  Elec       q    Type
REMARK                         _______ _______ _______ _____ _____    ______ ____
ROOT
ATOM      1  C   UNL     1       7.563  -2.732  23.897  0.00  0.00    +0.221 C 
ATOM      2  C   UNL     1       8.921  -2.589  24.684  0.00  0.00    +0.340 C 
ATOM      3  O   UNL     1       9.480  -1.300  24.339  0.00  0.00    -0.331 OA
ATOM      4  C   UNL     1       9.834  -1.211  22.935  0.00  0.00    +0.179 C 
ATOM      5  C   UNL     1       8.636  -1.446  22.002  0.00  0.00    +0.177 C 
ATOM      6  C   UNL     1       7.948  -2.732  22.411  0.00  0.00    +0.180 C 
ENDROOT
BRANCH   5   7
ATOM      7  O   UNL     1       9.068  -1.609  20.641  0.00  0.00    -0.386 OA
ATOM      8  H   UNL     1       8.707  -2.480  20.368  0.00  0.00    +0.210 HD
ENDBRANCH   5   7
BRANCH   6   9
ATOM      9  O   UNL     1       6.813  -2.960  21.556  0.00  0.00    -0.386 OA
ATOM     10  H   UNL     1       6.905  -3.886  21.247  0.00  0.00    +0.210 HD
ENDBRANCH   6   9
BRANCH   2  11
ATOM     11  O   UNL     1       8.755  -2.764  26.103  0.00  0.00    -0.453 OA
BRANCH  11  12
ATOM     12  C   UNL     1       7.884  -1.974  26.846  0.00  0.00    +0.214 A 
ATOM     13  C   UNL     1       8.150  -0.454  26.740  0.00  0.00    +0.238 A 
ATOM     14  O   UNL     1       9.145  -0.055  26.144  0.00  0.00    -0.283 OA
ATOM     15  C   UNL     1       7.174   0.501  27.354  0.00  0.00    +0.109 A 
ATOM     16  C   UNL     1       6.130  -0.047  28.077  0.00  0.00    +0.147 A 
ATOM     17  C   UNL     1       5.165   0.735  28.743  0.00  0.00    +0.093 A 
ATOM     18  C   UNL     1       5.204   2.124  28.669  0.00  0.00    +0.131 A 
ATOM     19  C   UNL     1       6.241   2.702  27.932  0.00  0.00    +0.092 A 
ATOM     20  O   UNL     1       5.968  -1.379  28.195  0.00  0.00    -0.451 OA
ATOM     21  C   UNL     1       7.221   1.901  27.287  0.00  0.00    +0.135 A 
ATOM     22  C   UNL     1       6.747  -2.321  27.525  0.00  0.00    +0.181 A 
BRANCH  22  23
ATOM     23  C   UNL     1       6.037  -3.635  27.740  0.00  0.00    +0.025 A 
ATOM     24  C   UNL     1       6.681  -4.788  27.190  0.00  0.00    +0.015 A 
ATOM     25  C   UNL     1       6.265  -6.094  27.426  0.00  0.00    +0.050 A 
ATOM     26  C   UNL     1       5.193  -6.289  28.262  0.00  0.00    +0.158 A 
ATOM     27  C   UNL     1       4.530  -5.200  28.827  0.00  0.00    +0.159 A 
ATOM     28  C   UNL     1       4.934  -3.873  28.573  0.00  0.00    +0.060 A 
BRANCH  26  29
ATOM     29  O   UNL     1       4.852  -7.574  28.569  0.00  0.00    -0.503 OA
ATOM     30  H   UNL     1       3.893  -7.547  28.737  0.00  0.00    +0.292 HD
ENDBRANCH  26  29
BRANCH  27  31
ATOM     31  O   UNL     1       3.500  -5.494  29.683  0.00  0.00    -0.503 OA
ATOM     32  H   UNL     1       3.861  -5.621  30.575  0.00  0.00    +0.292 HD
ENDBRANCH  27  31
ENDBRANCH  22  23
BRANCH  21  33
ATOM     33  O   UNL     1       8.203   2.547  26.602  0.00  0.00    -0.506 OA
ATOM     34  H   UNL     1       8.256   2.205  25.692  0.00  0.00    +0.292 HD
ENDBRANCH  21  33
BRANCH  18  35
ATOM     35  O   UNL     1       4.268   2.831  29.388  0.00  0.00    -0.461 OA
BRANCH  35  36
ATOM     36  C   UNL     1       4.029   4.192  28.946  0.00  0.00    +0.339 C 
ATOM     37  O   UNL     1       3.136   4.871  29.828  0.00  0.00    -0.331 OA
ATOM     38  C   UNL     1       1.832   5.326  29.455  0.00  0.00    +0.179 C 
ATOM     39  C   UNL     1       1.498   5.323  27.957  0.00  0.00    +0.177 C 
ATOM     40  C   UNL     1       2.116   4.107  27.267  0.00  0.00    +0.180 C 
ATOM     41  C   UNL     1       3.637   4.151  27.449  0.00  0.00    +0.214 C 
BRANCH  40  42
ATOM     42  O   UNL     1       1.525   2.897  27.738  0.00  0.00    -0.386 OA
ATOM     43  H   UNL     1       2.227   2.278  28.017  0.00  0.00    +0.210 HD
ENDBRANCH  40  42
BRANCH  41  44
ATOM     44  O   UNL     1       4.185   5.294  26.762  0.00  0.00    -0.383 OA
ATOM     45  H   UNL     1       3.635   5.439  25.961  0.00  0.00    +0.210 HD
ENDBRANCH  41  44
BRANCH  39  46
ATOM     46  O   UNL     1       2.036   6.529  27.378  0.00  0.00    -0.386 OA
ATOM     47  H   UNL     1       2.734   6.856  27.979  0.00  0.00    +0.210 HD
ENDBRANCH  39  46
BRANCH  38  48
ATOM     48  C   UNL     1       0.774   4.605  30.312  0.00  0.00    +0.190 C 
BRANCH  48  49
ATOM     49  O   UNL     1       1.091   3.227  30.485  0.00  0.00    -0.392 OA
ATOM     50  H   UNL     1       2.030   3.159  30.729  0.00  0.00    +0.210 HD
ENDBRANCH  48  49
ENDBRANCH  38  48
ENDBRANCH  35  36
ENDBRANCH  18  35
ENDBRANCH  11  12
ENDBRANCH   2  11
BRANCH   1  51
ATOM     51  O   UNL     1       6.864  -3.979  23.981  0.00  0.00    -0.337 OA
BRANCH  51  54
ATOM     52  C   UNL     1       3.617  -3.047  24.972  0.00  0.00    +0.190 C 
ATOM     53  O   UNL     1       4.989  -2.994  24.628  0.00  0.00    -0.339 OA
ATOM     54  C   UNL     1       5.465  -3.946  23.711  0.00  0.00    +0.282 C 
ATOM     55  C   UNL     1       4.974  -5.398  23.964  0.00  0.00    +0.201 C 
ATOM     56  C   UNL     1       3.517  -5.462  24.425  0.00  0.00    +0.179 C 
ATOM     57  C   UNL     1       3.276  -4.434  25.533  0.00  0.00    +0.178 C 
BRANCH  57  58
ATOM     58  O   UNL     1       1.923  -4.563  25.970  0.00  0.00    -0.386 OA
ATOM     59  H   UNL     1       1.911  -4.347  26.923  0.00  0.00    +0.210 HD
ENDBRANCH  57  58
BRANCH  55  60
ATOM     60  O   UNL     1       5.201  -6.193  22.783  0.00  0.00    -0.384 OA
ATOM     61  H   UNL     1       5.614  -7.033  23.050  0.00  0.00    +0.210 HD
ENDBRANCH  55  60
BRANCH  56  62
ATOM     62  O   UNL     1       3.227  -6.778  24.926  0.00  0.00    -0.386 OA
ATOM     63  H   UNL     1       3.739  -6.862  25.757  0.00  0.00    +0.210 HD
ENDBRANCH  56  62
BRANCH  52  64
ATOM     64  C   UNL     1       3.469  -1.926  26.005  0.00  0.00    +0.266 C 
BRANCH  64  65
ATOM     65  O   UNL     1       4.189  -0.747  25.668  0.00  0.00    -0.459 OA
BRANCH  65  66
ATOM     66  C   UNL     1       3.536   0.402  25.927  0.00  0.00    +0.332 C 
ATOM     67  O   UNL     1       2.610   0.561  26.720  0.00  0.00    -0.246 OA
BRANCH  66  69
ATOM     68  C   UNL     1       5.241   1.385  24.417  0.00  0.00    +0.015 C 
ATOM     69  C   UNL     1       4.157   1.521  25.197  0.00  0.00    +0.092 C 
BRANCH  68  74
ATOM     70  C   UNL     1       5.891   4.768  22.892  0.00  0.00    +0.166 A 
ATOM     71  C   UNL     1       7.284   4.716  22.670  0.00  0.00    +0.201 A 
ATOM     72  C   UNL     1       8.005   3.564  23.017  0.00  0.00    +0.166 A 
ATOM     73  C   UNL     1       7.303   2.476  23.572  0.00  0.00    +0.057 A 
ATOM     74  C   UNL     1       5.924   2.516  23.791  0.00  0.00    -0.018 A 
ATOM     75  C   UNL     1       5.236   3.686  23.481  0.00  0.00    +0.057 A 
BRANCH  70  77
ATOM     76  C   UNL     1       4.853   6.761  23.651  0.00  0.00    +0.277 C 
ATOM     77  O   UNL     1       5.234   5.931  22.557  0.00  0.00    -0.491 OA
ENDBRANCH  70  77
BRANCH  72  78
ATOM     78  O   UNL     1       9.335   3.269  22.911  0.00  0.00    -0.491 OA
ATOM     79  C   UNL     1      10.317   3.902  23.705  0.00  0.00    +0.277 C 
ENDBRANCH  72  78
BRANCH  71  80
ATOM     80  O   UNL     1       7.818   5.836  22.095  0.00  0.00    -0.501 OA
ATOM     81  H   UNL     1       7.331   6.621  22.357  0.00  0.00    +0.292 HD
ENDBRANCH  71  80
ENDBRANCH  68  74
ENDBRANCH  66  69
ENDBRANCH  65  66
ENDBRANCH  64  65
ENDBRANCH  52  64
ENDBRANCH  51  54
ENDBRANCH   1  51
BRANCH   4  82
ATOM     82  C   UNL     1      10.517   0.130  22.622  0.00  0.00    +0.190 C 
BRANCH  82  83
ATOM     83  O   UNL     1       9.804   0.884  21.644  0.00  0.00    -0.392 OA
ATOM     84  H   UNL     1      10.216   0.684  20.785  0.00  0.00    +0.210 HD
ENDBRANCH  82  83
ENDBRANCH   4  82
TORSDOF 30
ENDMDL
MODEL 6
REMARK VINA RESULT:      -3.2      2.184      8.078
REMARK  Name = 
REMARK  32 active torsions:
REMARK  status: ('A' for Active; 'I' for Inactive)
REMARK    1  A    between atoms: C_1  and  O_2
REMARK    2  A    between atoms: O_2  and  C_3
REMARK    3  A    between atoms: C_5  and  C_12
REMARK    4  A    between atoms: C_7  and  O_10
REMARK    5  A    between atoms: C_8  and  O_9
REMARK    6  A    between atoms: O_10  and  C_11
REMARK    7  A    between atoms: C_13  and  C_14
REMARK    8  A    between atoms: C_14  and  O_16
REMARK    9  A    between atoms: O_16  and  C_17
REMARK   10  A    between atoms: C_17  and  C_18
REMARK   11  A    between atoms: C_20  and  O_85
REMARK   12  A    between atoms: C_22  and  O_84
REMARK   13  A    between atoms: C_24  and  O_83
REMARK   14  A    between atoms: C_26  and  O_29
REMARK   15  A    between atoms: O_29  and  C_30
REMARK   16  A    between atoms: C_32  and  O_82
REMARK   17  A    between atoms: C_34  and  O_81
REMARK   18  A    between atoms: C_36  and  C_79
REMARK   19  A    between atoms: C_39  and  O_41
REMARK   20  A    between atoms: O_41  and  C_42
REMARK   21  A    between atoms: C_43  and  C_71
REMARK   22  A    between atoms: C_47  and  O_54
REMARK   23  A    between atoms: C_49  and  O_53
REMARK   24  A    between atoms: O_54  and  C_55
REMARK   25  A    between atoms: C_57  and  O_70
REMARK   26  A    between atoms: C_59  and  O_69
REMARK   27  A    between atoms: C_61  and  O_68
REMARK   28  A    between atoms: C_63  and  C_66
REMARK   29  A    between atoms: C_66  and  O_67
REMARK   30  A    between atoms: C_73  and  O_78
REMARK   31  A    between atoms: C_74  and  O_77
REMARK   32  A    between atoms: C_79  and  O_80
REMARK                            x       y       z     vdW  Elec       q    Type
REMARK                         _______ _______ _______ _____ _____    ______ ____
ROOT
ATOM      1  C   UNL     1       8.965   1.089  23.156  0.00  0.00    +0.221 C 
ATOM      2  C   UNL     1       7.442   1.276  23.518  0.00  0.00    +0.340 C 
ATOM      3  O   UNL     1       7.036   2.566  23.002  0.00  0.00    -0.331 OA
ATOM      4  C   UNL     1       7.727   3.662  23.654  0.00  0.00    +0.179 C 
ATOM      5  C   UNL     1       9.254   3.578  23.503  0.00  0.00    +0.177 C 
ATOM      6  C   UNL     1       9.706   2.194  23.921  0.00  0.00    +0.180 C 
ENDROOT
BRANCH   5   7
ATOM      7  O   UNL     1       9.908   4.518  24.371  0.00  0.00    -0.386 OA
ATOM      8  H   UNL     1       9.990   5.336  23.835  0.00  0.00    +0.210 HD
ENDBRANCH   5   7
BRANCH   6   9
ATOM      9  O   UNL     1      11.134   2.092  23.772  0.00  0.00    -0.386 OA
ATOM     10  H   UNL     1      11.271   1.491  23.009  0.00  0.00    +0.210 HD
ENDBRANCH   6   9
BRANCH   2  11
ATOM     11  O   UNL     1       6.625   0.197  23.029  0.00  0.00    -0.453 OA
BRANCH  11  12
ATOM     12  C   UNL     1       5.970  -0.679  23.888  0.00  0.00    +0.214 A 
ATOM     13  C   UNL     1       5.329  -0.005  25.124  0.00  0.00    +0.238 A 
ATOM     14  O   UNL     1       5.537   1.185  25.338  0.00  0.00    -0.283 OA
ATOM     15  C   UNL     1       4.451  -0.818  26.025  0.00  0.00    +0.109 A 
ATOM     16  C   UNL     1       4.348  -2.168  25.747  0.00  0.00    +0.147 A 
ATOM     17  C   UNL     1       3.592  -3.058  26.538  0.00  0.00    +0.093 A 
ATOM     18  C   UNL     1       2.874  -2.594  27.636  0.00  0.00    +0.131 A 
ATOM     19  C   UNL     1       2.951  -1.230  27.929  0.00  0.00    +0.092 A 
ATOM     20  O   UNL     1       4.971  -2.728  24.693  0.00  0.00    -0.451 OA
ATOM     21  C   UNL     1       3.737  -0.350  27.137  0.00  0.00    +0.135 A 
ATOM     22  C   UNL     1       5.675  -2.007  23.730  0.00  0.00    +0.181 A 
BRANCH  22  23
ATOM     23  C   UNL     1       5.950  -2.998  22.626  0.00  0.00    +0.025 A 
ATOM     24  C   UNL     1       6.240  -4.335  23.047  0.00  0.00    +0.015 A 
ATOM     25  C   UNL     1       6.359  -5.412  22.175  0.00  0.00    +0.050 A 
ATOM     26  C   UNL     1       6.151  -5.186  20.837  0.00  0.00    +0.158 A 
ATOM     27  C   UNL     1       5.862  -3.903  20.373  0.00  0.00    +0.159 A 
ATOM     28  C   UNL     1       5.764  -2.803  21.250  0.00  0.00    +0.060 A 
BRANCH  26  29
ATOM     29  O   UNL     1       6.169  -6.264  20.001  0.00  0.00    -0.503 OA
ATOM     30  H   UNL     1       5.300  -6.255  19.560  0.00  0.00    +0.292 HD
ENDBRANCH  26  29
BRANCH  27  31
ATOM     31  O   UNL     1       5.627  -3.783  19.028  0.00  0.00    -0.503 OA
ATOM     32  H   UNL     1       4.740  -3.411  18.897  0.00  0.00    +0.292 HD
ENDBRANCH  27  31
ENDBRANCH  22  23
BRANCH  21  33
ATOM     33  O   UNL     1       3.766   0.960  27.502  0.00  0.00    -0.506 OA
ATOM     34  H   UNL     1       2.987   1.422  27.146  0.00  0.00    +0.292 HD
ENDBRANCH  21  33
BRANCH  18  35
ATOM     35  O   UNL     1       2.203  -3.520  28.400  0.00  0.00    -0.461 OA
BRANCH  35  36
ATOM     36  C   UNL     1       3.023  -4.311  29.300  0.00  0.00    +0.339 C 
ATOM     37  O   UNL     1       4.411  -4.046  29.100  0.00  0.00    -0.331 OA
ATOM     38  C   UNL     1       5.350  -5.011  28.615  0.00  0.00    +0.179 C 
ATOM     39  C   UNL     1       4.884  -6.472  28.575  0.00  0.00    +0.177 C 
ATOM     40  C   UNL     1       3.411  -6.561  28.173  0.00  0.00    +0.180 C 
ATOM     41  C   UNL     1       2.569  -5.787  29.193  0.00  0.00    +0.214 C 
BRANCH  40  42
ATOM     42  O   UNL     1       3.221  -6.119  26.830  0.00  0.00    -0.386 OA
ATOM     43  H   UNL     1       2.501  -5.459  26.804  0.00  0.00    +0.210 HD
ENDBRANCH  40  42
BRANCH  41  44
ATOM     44  O   UNL     1       2.647  -6.423  30.484  0.00  0.00    -0.383 OA
ATOM     45  H   UNL     1       2.562  -5.715  31.160  0.00  0.00    +0.210 HD
ENDBRANCH  41  44
BRANCH  39  46
ATOM     46  O   UNL     1       5.057  -7.031  29.892  0.00  0.00    -0.386 OA
ATOM     47  H   UNL     1       4.202  -6.951  30.359  0.00  0.00    +0.210 HD
ENDBRANCH  39  46
BRANCH  38  48
ATOM     48  C   UNL     1       5.936  -4.525  27.275  0.00  0.00    +0.190 C 
BRANCH  48  49
ATOM     49  O   UNL     1       6.093  -5.598  26.352  0.00  0.00    -0.392 OA
ATOM     50  H   UNL     1       5.455  -5.472  25.628  0.00  0.00    +0.210 HD
ENDBRANCH  48  49
ENDBRANCH  38  48
ENDBRANCH  35  36
ENDBRANCH  18  35
ENDBRANCH  11  12
ENDBRANCH   2  11
BRANCH   1  51
ATOM     51  O   UNL     1       9.639  -0.070  23.658  0.00  0.00    -0.337 OA
BRANCH  51  54
ATOM     52  C   UNL     1       8.230  -1.882  26.327  0.00  0.00    +0.190 C 
ATOM     53  O   UNL     1       8.595  -0.825  25.459  0.00  0.00    -0.339 OA
ATOM     54  C   UNL     1       8.816  -1.142  24.108  0.00  0.00    +0.282 C 
ATOM     55  C   UNL     1       9.660  -2.424  23.868  0.00  0.00    +0.201 C 
ATOM     56  C   UNL     1       9.338  -3.543  24.859  0.00  0.00    +0.179 C 
ATOM     57  C   UNL     1       9.299  -2.982  26.283  0.00  0.00    +0.178 C 
BRANCH  57  58
ATOM     58  O   UNL     1       9.049  -4.065  27.179  0.00  0.00    -0.386 OA
ATOM     59  H   UNL     1       9.172  -4.890  26.669  0.00  0.00    +0.210 HD
ENDBRANCH  57  58
BRANCH  55  60
ATOM     60  O   UNL     1       9.501  -2.852  22.501  0.00  0.00    -0.384 OA
ATOM     61  H   UNL     1       8.604  -2.618  22.204  0.00  0.00    +0.210 HD
ENDBRANCH  55  60
BRANCH  56  62
ATOM     62  O   UNL     1      10.347  -4.564  24.778  0.00  0.00    -0.386 OA
ATOM     63  H   UNL     1      11.176  -4.097  24.546  0.00  0.00    +0.210 HD
ENDBRANCH  56  62
BRANCH  52  64
ATOM     64  C   UNL     1       8.127  -1.196  27.693  0.00  0.00    +0.266 C 
BRANCH  64  65
ATOM     65  O   UNL     1       8.055   0.222  27.610  0.00  0.00    -0.459 OA
BRANCH  65  66
ATOM     66  C   UNL     1       7.704   0.833  28.758  0.00  0.00    +0.332 C 
ATOM     67  O   UNL     1       8.235   0.696  29.858  0.00  0.00    -0.246 OA
BRANCH  66  69
ATOM     68  C   UNL     1       6.823   2.977  27.876  0.00  0.00    +0.015 C 
ATOM     69  C   UNL     1       6.630   1.810  28.510  0.00  0.00    +0.092 C 
BRANCH  68  74
ATOM     70  C   UNL     1       4.695   5.745  26.459  0.00  0.00    +0.166 A 
ATOM     71  C   UNL     1       3.711   5.886  27.459  0.00  0.00    +0.201 A 
ATOM     72  C   UNL     1       3.753   5.073  28.603  0.00  0.00    +0.166 A 
ATOM     73  C   UNL     1       4.800   4.139  28.721  0.00  0.00    +0.057 A 
ATOM     74  C   UNL     1       5.782   3.995  27.738  0.00  0.00    -0.018 A 
ATOM     75  C   UNL     1       5.695   4.780  26.592  0.00  0.00    +0.057 A 
BRANCH  70  77
ATOM     76  C   UNL     1       3.765   6.051  24.299  0.00  0.00    +0.277 C 
ATOM     77  O   UNL     1       4.594   6.549  25.345  0.00  0.00    -0.491 OA
ENDBRANCH  70  77
BRANCH  72  78
ATOM     78  O   UNL     1       2.931   5.010  29.692  0.00  0.00    -0.491 OA
ATOM     79  C   UNL     1       2.339   6.158  30.262  0.00  0.00    +0.277 C 
ENDBRANCH  72  78
BRANCH  71  80
ATOM     80  O   UNL     1       2.778   6.857  27.218  0.00  0.00    -0.501 OA
ATOM     81  H   UNL     1       2.347   6.715  26.372  0.00  0.00    +0.292 HD
ENDBRANCH  71  80
ENDBRANCH  68  74
ENDBRANCH  66  69
ENDBRANCH  65  66
ENDBRANCH  64  65
ENDBRANCH  52  64
ENDBRANCH  51  54
ENDBRANCH   1  51
BRANCH   4  82
ATOM     82  C   UNL     1       7.202   5.018  23.157  0.00  0.00    +0.190 C 
BRANCH  82  83
ATOM     83  O   UNL     1       7.863   5.452  21.971  0.00  0.00    -0.392 OA
ATOM     84  H   UNL     1       8.813   5.287  22.107  0.00  0.00    +0.210 HD
ENDBRANCH  82  83
ENDBRANCH   4  82
TORSDOF 30
ENDMDL
