MODEL 1
REMARK VINA RESULT:      -7.6      0.000      0.000
REMARK  Name = 
REMARK  13 active torsions:
REMARK  status: ('A' for Active; 'I' for Inactive)
REMARK    1  A    between atoms: C_1  and  O_2
REMARK    2  A    between atoms: O_2  and  C_3
REMARK    3  A    between atoms: C_4  and  C_30
REMARK    4  A    between atoms: C_8  and  O_15
REMARK    5  A    between atoms: C_10  and  O_14
REMARK    6  A    between atoms: O_15  and  C_16
REMARK    7  A    between atoms: C_18  and  O_29
REMARK    8  A    between atoms: C_19  and  O_28
REMARK    9  A    between atoms: C_21  and  O_27
REMARK   10  A    between atoms: C_23  and  C_25
REMARK   11  A    between atoms: C_25  and  O_26
REMARK   12  A    between atoms: C_32  and  O_37
REMARK   13  A    between atoms: C_33  and  O_36
REMARK                            x       y       z     vdW  Elec       q    Type
REMARK                         _______ _______ _______ _____ _____    ______ ____
ROOT
ATOM      1  C   UNL     1       8.606  -3.677  24.215  0.00  0.00    +0.211 A 
ATOM      2  C   UNL     1       9.324  -2.456  23.713  0.00  0.00    +0.238 A 
ATOM      3  O   UNL     1      10.413  -2.528  23.153  0.00  0.00    -0.283 OA
ATOM      4  C   UNL     1       8.632  -1.153  23.890  0.00  0.00    +0.109 A 
ATOM      5  C   UNL     1       7.272  -1.192  24.178  0.00  0.00    +0.147 A 
ATOM      6  C   UNL     1       6.526  -0.014  24.278  0.00  0.00    +0.093 A 
ATOM      7  C   UNL     1       7.151   1.221  24.134  0.00  0.00    +0.131 A 
ATOM      8  C   UNL     1       8.525   1.274  23.854  0.00  0.00    +0.092 A 
ATOM      9  O   UNL     1       6.580  -2.358  24.365  0.00  0.00    -0.451 OA
ATOM     10  C   UNL     1       9.262   0.088  23.748  0.00  0.00    +0.135 A 
ATOM     11  C   UNL     1       7.294  -3.534  24.491  0.00  0.00    +0.181 A 
ENDROOT
BRANCH  11  12
ATOM     12  C   UNL     1       6.448  -4.640  24.990  0.00  0.00    +0.025 A 
ATOM     13  C   UNL     1       6.190  -4.744  26.365  0.00  0.00    +0.015 A 
ATOM     14  C   UNL     1       5.315  -5.717  26.856  0.00  0.00    +0.050 A 
ATOM     15  C   UNL     1       4.698  -6.581  25.967  0.00  0.00    +0.158 A 
ATOM     16  C   UNL     1       4.957  -6.499  24.600  0.00  0.00    +0.159 A 
ATOM     17  C   UNL     1       5.830  -5.534  24.101  0.00  0.00    +0.060 A 
BRANCH  15  18
ATOM     18  O   UNL     1       3.821  -7.513  26.444  0.00  0.00    -0.503 OA
ATOM     19  H   UNL     1       3.695  -8.137  25.702  0.00  0.00    +0.292 HD
ENDBRANCH  15  18
BRANCH  16  20
ATOM     20  O   UNL     1       4.308  -7.387  23.785  0.00  0.00    -0.503 OA
ATOM     21  H   UNL     1       4.592  -7.225  22.870  0.00  0.00    +0.292 HD
ENDBRANCH  16  20
ENDBRANCH  11  12
BRANCH   1  23
ATOM     22  C   UNL     1       9.954  -5.135  25.530  0.00  0.00    +0.277 C 
ATOM     23  O   UNL     1       9.234  -4.912  24.320  0.00  0.00    -0.488 OA
ENDBRANCH   1  23
BRANCH  10  24
ATOM     24  O   UNL     1      10.607   0.165  23.522  0.00  0.00    -0.506 OA
ATOM     25  H   UNL     1      10.883  -0.496  22.869  0.00  0.00    +0.292 HD
ENDBRANCH  10  24
BRANCH   7  26
ATOM     26  O   UNL     1       6.467   2.407  24.174  0.00  0.00    -0.461 OA
BRANCH  26  27
ATOM     27  C   UNL     1       6.078   2.928  22.882  0.00  0.00    +0.339 C 
ATOM     28  O   UNL     1       6.912   3.986  22.412  0.00  0.00    -0.331 OA
ATOM     29  C   UNL     1       6.891   5.177  23.221  0.00  0.00    +0.179 C 
ATOM     30  C   UNL     1       5.465   5.739  23.430  0.00  0.00    +0.177 C 
ATOM     31  C   UNL     1       4.519   4.635  23.911  0.00  0.00    +0.180 C 
ATOM     32  C   UNL     1       4.617   3.425  22.962  0.00  0.00    +0.214 C 
BRANCH  30  33
ATOM     33  O   UNL     1       4.958   6.294  22.211  0.00  0.00    -0.386 OA
ATOM     34  H   UNL     1       3.987   6.336  22.286  0.00  0.00    +0.210 HD
ENDBRANCH  30  33
BRANCH  31  35
ATOM     35  O   UNL     1       4.820   4.327  25.279  0.00  0.00    -0.386 OA
ATOM     36  H   UNL     1       4.906   5.162  25.775  0.00  0.00    +0.210 HD
ENDBRANCH  31  35
BRANCH  32  37
ATOM     37  O   UNL     1       3.704   2.401  23.370  0.00  0.00    -0.383 OA
ATOM     38  H   UNL     1       3.473   2.559  24.301  0.00  0.00    +0.210 HD
ENDBRANCH  32  37
BRANCH  29  39
ATOM     39  C   UNL     1       7.789   6.224  22.536  0.00  0.00    +0.190 C 
BRANCH  39  40
ATOM     40  O   UNL     1       7.510   6.340  21.138  0.00  0.00    -0.392 OA
ATOM     41  H   UNL     1       7.506   7.282  20.904  0.00  0.00    +0.210 HD
ENDBRANCH  39  40
ENDBRANCH  29  39
ENDBRANCH  26  27
ENDBRANCH   7  26
TORSDOF 12
ENDMDL
MODEL 2
REMARK VINA RESULT:      -7.6      0.506      1.110
REMARK  Name = 
REMARK  13 active torsions:
REMARK  status: ('A' for Active; 'I' for Inactive)
REMARK    1  A    between atoms: C_1  and  O_2
REMARK    2  A    between atoms: O_2  and  C_3
REMARK    3  A    between atoms: C_4  and  C_30
REMARK    4  A    between atoms: C_8  and  O_15
REMARK    5  A    between atoms: C_10  and  O_14
REMARK    6  A    between atoms: O_15  and  C_16
REMARK    7  A    between atoms: C_18  and  O_29
REMARK    8  A    between atoms: C_19  and  O_28
REMARK    9  A    between atoms: C_21  and  O_27
REMARK   10  A    between atoms: C_23  and  C_25
REMARK   11  A    between atoms: C_25  and  O_26
REMARK   12  A    between atoms: C_32  and  O_37
REMARK   13  A    between atoms: C_33  and  O_36
REMARK                            x       y       z     vdW  Elec       q    Type
REMARK                         _______ _______ _______ _____ _____    ______ ____
ROOT
ATOM      1  C   UNL     1       8.430  -3.749  24.121  0.00  0.00    +0.211 A 
ATOM      2  C   UNL     1       9.235  -2.523  23.788  0.00  0.00    +0.238 A 
ATOM      3  O   UNL     1      10.382  -2.596  23.361  0.00  0.00    -0.283 OA
ATOM      4  C   UNL     1       8.556  -1.212  23.960  0.00  0.00    +0.109 A 
ATOM      5  C   UNL     1       7.171  -1.226  24.076  0.00  0.00    +0.147 A 
ATOM      6  C   UNL     1       6.446  -0.033  24.158  0.00  0.00    +0.093 A 
ATOM      7  C   UNL     1       7.113   1.188  24.168  0.00  0.00    +0.131 A 
ATOM      8  C   UNL     1       8.512   1.215  24.063  0.00  0.00    +0.092 A 
ATOM      9  O   UNL     1       6.433  -2.378  24.104  0.00  0.00    -0.451 OA
ATOM     10  C   UNL     1       9.229   0.015  23.974  0.00  0.00    +0.135 A 
ATOM     11  C   UNL     1       7.098  -3.582  24.243  0.00  0.00    +0.181 A 
ENDROOT
BRANCH  11  12
ATOM     12  C   UNL     1       6.172  -4.688  24.564  0.00  0.00    +0.025 A 
ATOM     13  C   UNL     1       5.381  -5.243  23.545  0.00  0.00    +0.015 A 
ATOM     14  C   UNL     1       4.571  -6.355  23.795  0.00  0.00    +0.050 A 
ATOM     15  C   UNL     1       4.557  -6.909  25.065  0.00  0.00    +0.158 A 
ATOM     16  C   UNL     1       5.326  -6.359  26.090  0.00  0.00    +0.159 A 
ATOM     17  C   UNL     1       6.135  -5.249  25.851  0.00  0.00    +0.060 A 
BRANCH  15  18
ATOM     18  O   UNL     1       3.787  -8.012  25.301  0.00  0.00    -0.503 OA
ATOM     19  H   UNL     1       3.929  -8.213  26.247  0.00  0.00    +0.292 HD
ENDBRANCH  15  18
BRANCH  16  20
ATOM     20  O   UNL     1       5.260  -6.964  27.315  0.00  0.00    -0.503 OA
ATOM     21  H   UNL     1       5.209  -6.270  27.995  0.00  0.00    +0.292 HD
ENDBRANCH  16  20
ENDBRANCH  11  12
BRANCH   1  23
ATOM     22  C   UNL     1       9.725  -5.257  25.433  0.00  0.00    +0.277 C 
ATOM     23  O   UNL     1       9.012  -5.006  24.225  0.00  0.00    -0.488 OA
ENDBRANCH   1  23
BRANCH  10  24
ATOM     24  O   UNL     1      10.593   0.063  23.919  0.00  0.00    -0.506 OA
ATOM     25  H   UNL     1      10.978  -0.173  24.776  0.00  0.00    +0.292 HD
ENDBRANCH  10  24
BRANCH   7  26
ATOM     26  O   UNL     1       6.458   2.391  24.199  0.00  0.00    -0.461 OA
BRANCH  26  27
ATOM     27  C   UNL     1       6.087   2.913  22.902  0.00  0.00    +0.339 C 
ATOM     28  O   UNL     1       6.934   3.966  22.442  0.00  0.00    -0.331 OA
ATOM     29  C   UNL     1       6.910   5.158  23.251  0.00  0.00    +0.179 C 
ATOM     30  C   UNL     1       5.485   5.728  23.443  0.00  0.00    +0.177 C 
ATOM     31  C   UNL     1       4.527   4.630  23.912  0.00  0.00    +0.180 C 
ATOM     32  C   UNL     1       4.629   3.419  22.964  0.00  0.00    +0.214 C 
BRANCH  30  33
ATOM     33  O   UNL     1       4.996   6.286  22.218  0.00  0.00    -0.386 OA
ATOM     34  H   UNL     1       5.740   6.743  21.783  0.00  0.00    +0.210 HD
ENDBRANCH  30  33
BRANCH  31  35
ATOM     35  O   UNL     1       4.809   4.320  25.284  0.00  0.00    -0.386 OA
ATOM     36  H   UNL     1       4.854   5.154  25.789  0.00  0.00    +0.210 HD
ENDBRANCH  31  35
BRANCH  32  37
ATOM     37  O   UNL     1       3.705   2.402  23.361  0.00  0.00    -0.383 OA
ATOM     38  H   UNL     1       3.103   2.784  24.022  0.00  0.00    +0.210 HD
ENDBRANCH  32  37
BRANCH  29  39
ATOM     39  C   UNL     1       7.823   6.199  22.577  0.00  0.00    +0.190 C 
BRANCH  39  40
ATOM     40  O   UNL     1       7.586   6.293  21.170  0.00  0.00    -0.392 OA
ATOM     41  H   UNL     1       7.005   5.561  20.908  0.00  0.00    +0.210 HD
ENDBRANCH  39  40
ENDBRANCH  29  39
ENDBRANCH  26  27
ENDBRANCH   7  26
TORSDOF 12
ENDMDL
MODEL 3
REMARK VINA RESULT:      -7.1      1.128      2.508
REMARK  Name = 
REMARK  13 active torsions:
REMARK  status: ('A' for Active; 'I' for Inactive)
REMARK    1  A    between atoms: C_1  and  O_2
REMARK    2  A    between atoms: O_2  and  C_3
REMARK    3  A    between atoms: C_4  and  C_30
REMARK    4  A    between atoms: C_8  and  O_15
REMARK    5  A    between atoms: C_10  and  O_14
REMARK    6  A    between atoms: O_15  and  C_16
REMARK    7  A    between atoms: C_18  and  O_29
REMARK    8  A    between atoms: C_19  and  O_28
REMARK    9  A    between atoms: C_21  and  O_27
REMARK   10  A    between atoms: C_23  and  C_25
REMARK   11  A    between atoms: C_25  and  O_26
REMARK   12  A    between atoms: C_32  and  O_37
REMARK   13  A    between atoms: C_33  and  O_36
REMARK                            x       y       z     vdW  Elec       q    Type
REMARK                         _______ _______ _______ _____ _____    ______ ____
ROOT
ATOM      1  C   UNL     1       8.498  -3.853  24.036  0.00  0.00    +0.211 A 
ATOM      2  C   UNL     1       9.327  -2.677  23.601  0.00  0.00    +0.238 A 
ATOM      3  O   UNL     1      10.514  -2.788  23.317  0.00  0.00    -0.283 OA
ATOM      4  C   UNL     1       8.626  -1.371  23.491  0.00  0.00    +0.109 A 
ATOM      5  C   UNL     1       7.236  -1.398  23.460  0.00  0.00    +0.147 A 
ATOM      6  C   UNL     1       6.499  -0.225  23.274  0.00  0.00    +0.093 A 
ATOM      7  C   UNL     1       7.153   0.998  23.163  0.00  0.00    +0.131 A 
ATOM      8  C   UNL     1       8.555   1.041  23.204  0.00  0.00    +0.092 A 
ATOM      9  O   UNL     1       6.507  -2.549  23.590  0.00  0.00    -0.451 OA
ATOM     10  C   UNL     1       9.285  -0.142  23.383  0.00  0.00    +0.135 A 
ATOM     11  C   UNL     1       7.160  -3.700  23.987  0.00  0.00    +0.181 A 
ENDROOT
BRANCH  11  12
ATOM     12  C   UNL     1       6.211  -4.765  24.378  0.00  0.00    +0.025 A 
ATOM     13  C   UNL     1       5.376  -5.335  23.404  0.00  0.00    +0.015 A 
ATOM     14  C   UNL     1       4.541  -6.411  23.721  0.00  0.00    +0.050 A 
ATOM     15  C   UNL     1       4.547  -6.913  25.012  0.00  0.00    +0.158 A 
ATOM     16  C   UNL     1       5.359  -6.346  25.993  0.00  0.00    +0.159 A 
ATOM     17  C   UNL     1       6.193  -5.272  25.688  0.00  0.00    +0.060 A 
BRANCH  15  18
ATOM     18  O   UNL     1       3.752  -7.982  25.315  0.00  0.00    -0.503 OA
ATOM     19  H   UNL     1       3.938  -8.635  24.611  0.00  0.00    +0.292 HD
ENDBRANCH  15  18
BRANCH  16  20
ATOM     20  O   UNL     1       5.310  -6.899  27.244  0.00  0.00    -0.503 OA
ATOM     21  H   UNL     1       5.935  -6.419  27.814  0.00  0.00    +0.292 HD
ENDBRANCH  16  20
ENDBRANCH  11  12
BRANCH   1  23
ATOM     22  C   UNL     1       9.789  -5.063  25.631  0.00  0.00    +0.277 C 
ATOM     23  O   UNL     1       9.073  -5.066  24.398  0.00  0.00    -0.488 OA
ENDBRANCH   1  23
BRANCH  10  24
ATOM     24  O   UNL     1      10.646  -0.071  23.467  0.00  0.00    -0.506 OA
ATOM     25  H   UNL     1      11.061  -0.628  22.792  0.00  0.00    +0.292 HD
ENDBRANCH  10  24
BRANCH   7  26
ATOM     26  O   UNL     1       6.491   2.175  22.933  0.00  0.00    -0.461 OA
BRANCH  26  27
ATOM     27  C   UNL     1       5.629   2.608  24.010  0.00  0.00    +0.339 C 
ATOM     28  O   UNL     1       4.238   2.520  23.706  0.00  0.00    -0.331 OA
ATOM     29  C   UNL     1       3.800   3.370  22.628  0.00  0.00    +0.179 C 
ATOM     30  C   UNL     1       4.157   4.859  22.851  0.00  0.00    +0.177 C 
ATOM     31  C   UNL     1       5.638   5.008  23.207  0.00  0.00    +0.180 C 
ATOM     32  C   UNL     1       5.982   4.066  24.379  0.00  0.00    +0.214 C 
BRANCH  30  33
ATOM     33  O   UNL     1       3.362   5.416  23.903  0.00  0.00    -0.386 OA
ATOM     34  H   UNL     1       3.141   4.695  24.521  0.00  0.00    +0.210 HD
ENDBRANCH  30  33
BRANCH  31  35
ATOM     35  O   UNL     1       6.427   4.783  22.031  0.00  0.00    -0.386 OA
ATOM     36  H   UNL     1       7.367   4.741  22.289  0.00  0.00    +0.210 HD
ENDBRANCH  31  35
BRANCH  32  37
ATOM     37  O   UNL     1       7.353   4.228  24.757  0.00  0.00    -0.383 OA
ATOM     38  H   UNL     1       7.862   4.441  23.956  0.00  0.00    +0.210 HD
ENDBRANCH  32  37
BRANCH  29  39
ATOM     39  C   UNL     1       2.277   3.195  22.482  0.00  0.00    +0.190 C 
BRANCH  39  40
ATOM     40  O   UNL     1       1.662   2.798  23.710  0.00  0.00    -0.392 OA
ATOM     41  H   UNL     1       2.255   3.033  24.441  0.00  0.00    +0.210 HD
ENDBRANCH  39  40
ENDBRANCH  29  39
ENDBRANCH  26  27
ENDBRANCH   7  26
TORSDOF 12
ENDMDL
MODEL 4
REMARK VINA RESULT:      -6.9      0.992      2.092
REMARK  Name = 
REMARK  13 active torsions:
REMARK  status: ('A' for Active; 'I' for Inactive)
REMARK    1  A    between atoms: C_1  and  O_2
REMARK    2  A    between atoms: O_2  and  C_3
REMARK    3  A    between atoms: C_4  and  C_30
REMARK    4  A    between atoms: C_8  and  O_15
REMARK    5  A    between atoms: C_10  and  O_14
REMARK    6  A    between atoms: O_15  and  C_16
REMARK    7  A    between atoms: C_18  and  O_29
REMARK    8  A    between atoms: C_19  and  O_28
REMARK    9  A    between atoms: C_21  and  O_27
REMARK   10  A    between atoms: C_23  and  C_25
REMARK   11  A    between atoms: C_25  and  O_26
REMARK   12  A    between atoms: C_32  and  O_37
REMARK   13  A    between atoms: C_33  and  O_36
REMARK                            x       y       z     vdW  Elec       q    Type
REMARK                         _______ _______ _______ _____ _____    ______ ____
ROOT
ATOM      1  C   UNL     1       8.644  -3.769  24.171  0.00  0.00    +0.211 A 
ATOM      2  C   UNL     1       9.375  -2.573  23.628  0.00  0.00    +0.238 A 
ATOM      3  O   UNL     1      10.506  -2.658  23.162  0.00  0.00    -0.283 OA
ATOM      4  C   UNL     1       8.642  -1.279  23.642  0.00  0.00    +0.109 A 
ATOM      5  C   UNL     1       7.265  -1.333  23.826  0.00  0.00    +0.147 A 
ATOM      6  C   UNL     1       6.488  -0.172  23.770  0.00  0.00    +0.093 A 
ATOM      7  C   UNL     1       7.095   1.064  23.575  0.00  0.00    +0.131 A 
ATOM      8  C   UNL     1       8.486   1.133  23.400  0.00  0.00    +0.092 A 
ATOM      9  O   UNL     1       6.585  -2.499  24.053  0.00  0.00    -0.451 OA
ATOM     10  C   UNL     1       9.255  -0.037  23.449  0.00  0.00    +0.135 A 
ATOM     11  C   UNL     1       7.312  -3.641  24.331  0.00  0.00    +0.181 A 
ENDROOT
BRANCH  11  12
ATOM     12  C   UNL     1       6.453  -4.727  24.851  0.00  0.00    +0.025 A 
ATOM     13  C   UNL     1       6.231  -4.827  26.233  0.00  0.00    +0.015 A 
ATOM     14  C   UNL     1       5.345  -5.779  26.747  0.00  0.00    +0.050 A 
ATOM     15  C   UNL     1       4.683  -6.626  25.873  0.00  0.00    +0.158 A 
ATOM     16  C   UNL     1       4.906  -6.548  24.499  0.00  0.00    +0.159 A 
ATOM     17  C   UNL     1       5.789  -5.604  23.978  0.00  0.00    +0.060 A 
BRANCH  15  18
ATOM     18  O   UNL     1       3.796  -7.537  26.373  0.00  0.00    -0.503 OA
ATOM     19  H   UNL     1       4.251  -8.398  26.286  0.00  0.00    +0.292 HD
ENDBRANCH  15  18
BRANCH  16  20
ATOM     20  O   UNL     1       4.213  -7.418  23.702  0.00  0.00    -0.503 OA
ATOM     21  H   UNL     1       3.368  -7.002  23.459  0.00  0.00    +0.292 HD
ENDBRANCH  16  20
ENDBRANCH  11  12
BRANCH   1  23
ATOM     22  C   UNL     1       9.944  -5.066  25.688  0.00  0.00    +0.277 C 
ATOM     23  O   UNL     1       9.289  -4.973  24.425  0.00  0.00    -0.488 OA
ENDBRANCH   1  23
BRANCH  10  24
ATOM     24  O   UNL     1      10.612   0.059  23.323  0.00  0.00    -0.506 OA
ATOM     25  H   UNL     1      10.945   0.839  23.792  0.00  0.00    +0.292 HD
ENDBRANCH  10  24
BRANCH   7  26
ATOM     26  O   UNL     1       6.385   2.230  23.464  0.00  0.00    -0.461 OA
BRANCH  26  27
ATOM     27  C   UNL     1       6.942   3.351  24.187  0.00  0.00    +0.339 C 
ATOM     28  O   UNL     1       6.215   3.696  25.366  0.00  0.00    -0.331 OA
ATOM     29  C   UNL     1       4.866   4.144  25.134  0.00  0.00    +0.179 C 
ATOM     30  C   UNL     1       4.786   5.334  24.148  0.00  0.00    +0.177 C 
ATOM     31  C   UNL     1       5.575   5.027  22.872  0.00  0.00    +0.180 C 
ATOM     32  C   UNL     1       7.001   4.575  23.246  0.00  0.00    +0.214 C 
BRANCH  30  33
ATOM     33  O   UNL     1       5.310   6.522  24.750  0.00  0.00    -0.386 OA
ATOM     34  H   UNL     1       6.104   6.785  24.248  0.00  0.00    +0.210 HD
ENDBRANCH  30  33
BRANCH  31  35
ATOM     35  O   UNL     1       4.847   4.067  22.094  0.00  0.00    -0.386 OA
ATOM     36  H   UNL     1       3.904   4.318  22.093  0.00  0.00    +0.210 HD
ENDBRANCH  31  35
BRANCH  32  37
ATOM     37  O   UNL     1       7.767   4.330  22.063  0.00  0.00    -0.383 OA
ATOM     38  H   UNL     1       7.556   3.434  21.749  0.00  0.00    +0.210 HD
ENDBRANCH  32  37
BRANCH  29  39
ATOM     39  C   UNL     1       4.260   4.529  26.497  0.00  0.00    +0.190 C 
BRANCH  39  40
ATOM     40  O   UNL     1       5.229   5.111  27.371  0.00  0.00    -0.392 OA
ATOM     41  H   UNL     1       6.090   5.105  26.923  0.00  0.00    +0.210 HD
ENDBRANCH  39  40
ENDBRANCH  29  39
ENDBRANCH  26  27
ENDBRANCH   7  26
TORSDOF 12
ENDMDL
MODEL 5
REMARK VINA RESULT:      -6.9      1.596      8.889
REMARK  Name = 
REMARK  13 active torsions:
REMARK  status: ('A' for Active; 'I' for Inactive)
REMARK    1  A    between atoms: C_1  and  O_2
REMARK    2  A    between atoms: O_2  and  C_3
REMARK    3  A    between atoms: C_4  and  C_30
REMARK    4  A    between atoms: C_8  and  O_15
REMARK    5  A    between atoms: C_10  and  O_14
REMARK    6  A    between atoms: O_15  and  C_16
REMARK    7  A    between atoms: C_18  and  O_29
REMARK    8  A    between atoms: C_19  and  O_28
REMARK    9  A    between atoms: C_21  and  O_27
REMARK   10  A    between atoms: C_23  and  C_25
REMARK   11  A    between atoms: C_25  and  O_26
REMARK   12  A    between atoms: C_32  and  O_37
REMARK   13  A    between atoms: C_33  and  O_36
REMARK                            x       y       z     vdW  Elec       q    Type
REMARK                         _______ _______ _______ _____ _____    ______ ____
ROOT
ATOM      1  C   UNL     1       8.958   1.265  24.130  0.00  0.00    +0.211 A 
ATOM      2  C   UNL     1       9.432  -0.150  24.309  0.00  0.00    +0.238 A 
ATOM      3  O   UNL     1      10.562  -0.411  24.707  0.00  0.00    -0.283 OA
ATOM      4  C   UNL     1       8.447  -1.226  24.020  0.00  0.00    +0.109 A 
ATOM      5  C   UNL     1       7.109  -0.856  23.946  0.00  0.00    +0.147 A 
ATOM      6  C   UNL     1       6.109  -1.815  23.762  0.00  0.00    +0.093 A 
ATOM      7  C   UNL     1       6.449  -3.155  23.603  0.00  0.00    +0.131 A 
ATOM      8  C   UNL     1       7.797  -3.539  23.664  0.00  0.00    +0.092 A 
ATOM      9  O   UNL     1       6.682   0.440  24.061  0.00  0.00    -0.451 OA
ATOM     10  C   UNL     1       8.792  -2.571  23.858  0.00  0.00    +0.135 A 
ATOM     11  C   UNL     1       7.626   1.448  24.030  0.00  0.00    +0.181 A 
ENDROOT
BRANCH  11  12
ATOM     12  C   UNL     1       7.005   2.778  23.854  0.00  0.00    +0.025 A 
ATOM     13  C   UNL     1       6.224   3.316  24.889  0.00  0.00    +0.015 A 
ATOM     14  C   UNL     1       5.707   4.612  24.794  0.00  0.00    +0.050 A 
ATOM     15  C   UNL     1       5.976   5.365  23.663  0.00  0.00    +0.158 A 
ATOM     16  C   UNL     1       6.738   4.838  22.621  0.00  0.00    +0.159 A 
ATOM     17  C   UNL     1       7.255   3.546  22.705  0.00  0.00    +0.060 A 
BRANCH  15  18
ATOM     18  O   UNL     1       5.495   6.641  23.583  0.00  0.00    -0.503 OA
ATOM     19  H   UNL     1       6.293   7.205  23.566  0.00  0.00    +0.292 HD
ENDBRANCH  15  18
BRANCH  16  20
ATOM     20  O   UNL     1       6.961   5.645  21.538  0.00  0.00    -0.503 OA
ATOM     21  H   UNL     1       7.908   5.608  21.322  0.00  0.00    +0.292 HD
ENDBRANCH  16  20
ENDBRANCH  11  12
BRANCH   1  23
ATOM     22  C   UNL     1      10.597   2.530  22.952  0.00  0.00    +0.277 C 
ATOM     23  O   UNL     1       9.835   2.343  24.142  0.00  0.00    -0.488 OA
ENDBRANCH   1  23
BRANCH  10  24
ATOM     24  O   UNL     1      10.101  -2.962  23.867  0.00  0.00    -0.506 OA
ATOM     25  H   UNL     1      10.172  -3.917  24.015  0.00  0.00    +0.292 HD
ENDBRANCH  10  24
BRANCH   7  26
ATOM     26  O   UNL     1       5.515  -4.147  23.466  0.00  0.00    -0.461 OA
BRANCH  26  27
ATOM     27  C   UNL     1       4.521  -4.195  24.516  0.00  0.00    +0.339 C 
ATOM     28  O   UNL     1       5.071  -4.365  25.822  0.00  0.00    -0.331 OA
ATOM     29  C   UNL     1       5.768  -5.609  26.027  0.00  0.00    +0.179 C 
ATOM     30  C   UNL     1       4.899  -6.847  25.700  0.00  0.00    +0.177 C 
ATOM     31  C   UNL     1       4.262  -6.704  24.315  0.00  0.00    +0.180 C 
ATOM     32  C   UNL     1       3.536  -5.347  24.222  0.00  0.00    +0.214 C 
BRANCH  30  33
ATOM     33  O   UNL     1       3.867  -7.012  26.678  0.00  0.00    -0.386 OA
ATOM     34  H   UNL     1       4.198  -6.654  27.522  0.00  0.00    +0.210 HD
ENDBRANCH  30  33
BRANCH  31  35
ATOM     35  O   UNL     1       5.273  -6.892  23.315  0.00  0.00    -0.386 OA
ATOM     36  H   UNL     1       5.983  -6.240  23.463  0.00  0.00    +0.210 HD
ENDBRANCH  31  35
BRANCH  32  37
ATOM     37  O   UNL     1       2.894  -5.217  22.949  0.00  0.00    -0.383 OA
ATOM     38  H   UNL     1       3.569  -5.332  22.259  0.00  0.00    +0.210 HD
ENDBRANCH  32  37
BRANCH  29  39
ATOM     39  C   UNL     1       6.233  -5.648  27.495  0.00  0.00    +0.190 C 
BRANCH  39  40
ATOM     40  O   UNL     1       7.607  -6.025  27.614  0.00  0.00    -0.392 OA
ATOM     41  H   UNL     1       8.043  -5.407  28.220  0.00  0.00    +0.210 HD
ENDBRANCH  39  40
ENDBRANCH  29  39
ENDBRANCH  26  27
ENDBRANCH   7  26
TORSDOF 12
ENDMDL
MODEL 6
REMARK VINA RESULT:      -6.9      1.819      8.938
REMARK  Name = 
REMARK  13 active torsions:
REMARK  status: ('A' for Active; 'I' for Inactive)
REMARK    1  A    between atoms: C_1  and  O_2
REMARK    2  A    between atoms: O_2  and  C_3
REMARK    3  A    between atoms: C_4  and  C_30
REMARK    4  A    between atoms: C_8  and  O_15
REMARK    5  A    between atoms: C_10  and  O_14
REMARK    6  A    between atoms: O_15  and  C_16
REMARK    7  A    between atoms: C_18  and  O_29
REMARK    8  A    between atoms: C_19  and  O_28
REMARK    9  A    between atoms: C_21  and  O_27
REMARK   10  A    between atoms: C_23  and  C_25
REMARK   11  A    between atoms: C_25  and  O_26
REMARK   12  A    between atoms: C_32  and  O_37
REMARK   13  A    between atoms: C_33  and  O_36
REMARK                            x       y       z     vdW  Elec       q    Type
REMARK                         _______ _______ _______ _____ _____    ______ ____
ROOT
ATOM      1  C   UNL     1       8.918  -1.299  23.429  0.00  0.00    +0.211 A 
ATOM      2  C   UNL     1       8.931  -2.772  23.727  0.00  0.00    +0.238 A 
ATOM      3  O   UNL     1       9.930  -3.340  24.153  0.00  0.00    -0.283 OA
ATOM      4  C   UNL     1       7.655  -3.507  23.520  0.00  0.00    +0.109 A 
ATOM      5  C   UNL     1       6.497  -2.746  23.406  0.00  0.00    +0.147 A 
ATOM      6  C   UNL     1       5.245  -3.357  23.293  0.00  0.00    +0.093 A 
ATOM      7  C   UNL     1       5.149  -4.745  23.247  0.00  0.00    +0.131 A 
ATOM      8  C   UNL     1       6.311  -5.524  23.349  0.00  0.00    +0.092 A 
ATOM      9  O   UNL     1       6.497  -1.377  23.411  0.00  0.00    -0.451 OA
ATOM     10  C   UNL     1       7.561  -4.902  23.471  0.00  0.00    +0.135 A 
ATOM     11  C   UNL     1       7.708  -0.719  23.305  0.00  0.00    +0.181 A 
ENDROOT
BRANCH  11  12
ATOM     12  C   UNL     1       7.528   0.720  23.016  0.00  0.00    +0.025 A 
ATOM     13  C   UNL     1       8.091   1.264  21.851  0.00  0.00    +0.015 A 
ATOM     14  C   UNL     1       7.854   2.596  21.498  0.00  0.00    +0.050 A 
ATOM     15  C   UNL     1       7.052   3.378  22.313  0.00  0.00    +0.158 A 
ATOM     16  C   UNL     1       6.499   2.855  23.481  0.00  0.00    +0.159 A 
ATOM     17  C   UNL     1       6.731   1.529  23.842  0.00  0.00    +0.060 A 
BRANCH  15  18
ATOM     18  O   UNL     1       6.798   4.672  21.954  0.00  0.00    -0.503 OA
ATOM     19  H   UNL     1       7.518   4.902  21.335  0.00  0.00    +0.292 HD
ENDBRANCH  15  18
BRANCH  16  20
ATOM     20  O   UNL     1       5.717   3.690  24.232  0.00  0.00    -0.503 OA
ATOM     21  H   UNL     1       6.157   4.555  24.284  0.00  0.00    +0.292 HD
ENDBRANCH  16  20
ENDBRANCH  11  12
BRANCH   1  23
ATOM     22  C   UNL     1      10.504   0.054  24.581  0.00  0.00    +0.277 C 
ATOM     23  O   UNL     1      10.087  -0.551  23.359  0.00  0.00    -0.488 OA
ENDBRANCH   1  23
BRANCH  10  24
ATOM     24  O   UNL     1       8.683  -5.679  23.522  0.00  0.00    -0.506 OA
ATOM     25  H   UNL     1       9.208  -5.575  22.714  0.00  0.00    +0.292 HD
ENDBRANCH  10  24
BRANCH   7  26
ATOM     26  O   UNL     1       3.950  -5.403  23.184  0.00  0.00    -0.461 OA
BRANCH  26  27
ATOM     27  C   UNL     1       2.978  -4.991  24.172  0.00  0.00    +0.339 C 
ATOM     28  O   UNL     1       3.451  -5.077  25.516  0.00  0.00    -0.331 OA
ATOM     29  C   UNL     1       3.767  -6.409  25.962  0.00  0.00    +0.179 C 
ATOM     30  C   UNL     1       2.587  -7.396  25.798  0.00  0.00    +0.177 C 
ATOM     31  C   UNL     1       2.023  -7.326  24.376  0.00  0.00    +0.180 C 
ATOM     32  C   UNL     1       1.709  -5.859  24.020  0.00  0.00    +0.214 C 
BRANCH  30  33
ATOM     33  O   UNL     1       1.545  -7.096  26.732  0.00  0.00    -0.386 OA
ATOM     34  H   UNL     1       0.715  -7.470  26.382  0.00  0.00    +0.210 HD
ENDBRANCH  30  33
BRANCH  31  35
ATOM     35  O   UNL     1       2.944  -7.957  23.477  0.00  0.00    -0.386 OA
ATOM     36  H   UNL     1       2.496  -8.103  22.623  0.00  0.00    +0.210 HD
ENDBRANCH  31  35
BRANCH  32  37
ATOM     37  O   UNL     1       1.136  -5.780  22.711  0.00  0.00    -0.383 OA
ATOM     38  H   UNL     1       0.371  -5.182  22.754  0.00  0.00    +0.210 HD
ENDBRANCH  32  37
BRANCH  29  39
ATOM     39  C   UNL     1       4.195  -6.320  27.439  0.00  0.00    +0.190 C 
BRANCH  39  40
ATOM     40  O   UNL     1       5.077  -7.382  27.809  0.00  0.00    -0.392 OA
ATOM     41  H   UNL     1       4.630  -7.938  28.466  0.00  0.00    +0.210 HD
ENDBRANCH  39  40
ENDBRANCH  29  39
ENDBRANCH  26  27
ENDBRANCH   7  26
TORSDOF 12
ENDMDL
MODEL 7
REMARK VINA RESULT:      -6.8      1.688      8.970
REMARK  Name = 
REMARK  13 active torsions:
REMARK  status: ('A' for Active; 'I' for Inactive)
REMARK    1  A    between atoms: C_1  and  O_2
REMARK    2  A    between atoms: O_2  and  C_3
REMARK    3  A    between atoms: C_4  and  C_30
REMARK    4  A    between atoms: C_8  and  O_15
REMARK    5  A    between atoms: C_10  and  O_14
REMARK    6  A    between atoms: O_15  and  C_16
REMARK    7  A    between atoms: C_18  and  O_29
REMARK    8  A    between atoms: C_19  and  O_28
REMARK    9  A    between atoms: C_21  and  O_27
REMARK   10  A    between atoms: C_23  and  C_25
REMARK   11  A    between atoms: C_25  and  O_26
REMARK   12  A    between atoms: C_32  and  O_37
REMARK   13  A    between atoms: C_33  and  O_36
REMARK                            x       y       z     vdW  Elec       q    Type
REMARK                         _______ _______ _______ _____ _____    ______ ____
ROOT
ATOM      1  C   UNL     1       8.829   0.937  23.960  0.00  0.00    +0.211 A 
ATOM      2  C   UNL     1       9.397  -0.436  24.188  0.00  0.00    +0.238 A 
ATOM      3  O   UNL     1      10.568  -0.609  24.508  0.00  0.00    -0.283 OA
ATOM      4  C   UNL     1       8.457  -1.580  24.050  0.00  0.00    +0.109 A 
ATOM      5  C   UNL     1       7.098  -1.288  24.063  0.00  0.00    +0.147 A 
ATOM      6  C   UNL     1       6.145  -2.310  24.021  0.00  0.00    +0.093 A 
ATOM      7  C   UNL     1       6.550  -3.637  23.920  0.00  0.00    +0.131 A 
ATOM      8  C   UNL     1       7.919  -3.943  23.894  0.00  0.00    +0.092 A 
ATOM      9  O   UNL     1       6.607  -0.012  24.130  0.00  0.00    -0.451 OA
ATOM     10  C   UNL     1       8.867  -2.913  23.945  0.00  0.00    +0.135 A 
ATOM     11  C   UNL     1       7.485   1.041  23.959  0.00  0.00    +0.181 A 
ENDROOT
BRANCH  11  12
ATOM     12  C   UNL     1       6.774   2.321  23.751  0.00  0.00    +0.025 A 
ATOM     13  C   UNL     1       6.396   2.696  22.452  0.00  0.00    +0.015 A 
ATOM     14  C   UNL     1       5.636   3.849  22.235  0.00  0.00    +0.050 A 
ATOM     15  C   UNL     1       5.255   4.622  23.320  0.00  0.00    +0.158 A 
ATOM     16  C   UNL     1       5.637   4.270  24.613  0.00  0.00    +0.159 A 
ATOM     17  C   UNL     1       6.397   3.124  24.840  0.00  0.00    +0.060 A 
BRANCH  15  18
ATOM     18  O   UNL     1       4.489   5.733  23.110  0.00  0.00    -0.503 OA
ATOM     19  H   UNL     1       4.558   6.242  23.942  0.00  0.00    +0.292 HD
ENDBRANCH  15  18
BRANCH  16  20
ATOM     20  O   UNL     1       5.221   5.083  25.632  0.00  0.00    -0.503 OA
ATOM     21  H   UNL     1       4.385   5.502  25.366  0.00  0.00    +0.292 HD
ENDBRANCH  16  20
ENDBRANCH  11  12
BRANCH   1  23
ATOM     22  C   UNL     1      10.243   2.239  22.554  0.00  0.00    +0.277 C 
ATOM     23  O   UNL     1       9.639   2.058  23.832  0.00  0.00    -0.488 OA
ENDBRANCH   1  23
BRANCH  10  24
ATOM     24  O   UNL     1      10.193  -3.232  23.871  0.00  0.00    -0.506 OA
ATOM     25  H   UNL     1      10.308  -4.167  23.644  0.00  0.00    +0.292 HD
ENDBRANCH  10  24
BRANCH   7  26
ATOM     26  O   UNL     1       5.667  -4.684  23.923  0.00  0.00    -0.461 OA
BRANCH  26  27
ATOM     27  C   UNL     1       4.527  -4.516  24.797  0.00  0.00    +0.339 C 
ATOM     28  O   UNL     1       4.819  -4.745  26.175  0.00  0.00    -0.331 OA
ATOM     29  C   UNL     1       5.228  -6.089  26.491  0.00  0.00    +0.179 C 
ATOM     30  C   UNL     1       4.207  -7.155  26.025  0.00  0.00    +0.177 C 
ATOM     31  C   UNL     1       3.839  -6.939  24.555  0.00  0.00    +0.180 C 
ATOM     32  C   UNL     1       3.404  -5.475  24.345  0.00  0.00    +0.214 C 
BRANCH  30  33
ATOM     33  O   UNL     1       3.019  -7.096  26.822  0.00  0.00    -0.386 OA
ATOM     34  H   UNL     1       2.410  -6.462  26.400  0.00  0.00    +0.210 HD
ENDBRANCH  30  33
BRANCH  31  35
ATOM     35  O   UNL     1       4.943  -7.341  23.733  0.00  0.00    -0.386 OA
ATOM     36  H   UNL     1       5.222  -6.579  23.192  0.00  0.00    +0.210 HD
ENDBRANCH  31  35
BRANCH  32  37
ATOM     37  O   UNL     1       3.010  -5.267  22.985  0.00  0.00    -0.383 OA
ATOM     38  H   UNL     1       3.461  -4.470  22.660  0.00  0.00    +0.210 HD
ENDBRANCH  32  37
BRANCH  29  39
ATOM     39  C   UNL     1       5.437  -6.169  28.014  0.00  0.00    +0.190 C 
BRANCH  39  40
ATOM     40  O   UNL     1       5.421  -7.517  28.490  0.00  0.00    -0.392 OA
ATOM     41  H   UNL     1       6.194  -7.650  29.061  0.00  0.00    +0.210 HD
ENDBRANCH  39  40
ENDBRANCH  29  39
ENDBRANCH  26  27
ENDBRANCH   7  26
TORSDOF 12
ENDMDL
MODEL 8
REMARK VINA RESULT:      -6.8      2.085      9.119
REMARK  Name = 
REMARK  13 active torsions:
REMARK  status: ('A' for Active; 'I' for Inactive)
REMARK    1  A    between atoms: C_1  and  O_2
REMARK    2  A    between atoms: O_2  and  C_3
REMARK    3  A    between atoms: C_4  and  C_30
REMARK    4  A    between atoms: C_8  and  O_15
REMARK    5  A    between atoms: C_10  and  O_14
REMARK    6  A    between atoms: O_15  and  C_16
REMARK    7  A    between atoms: C_18  and  O_29
REMARK    8  A    between atoms: C_19  and  O_28
REMARK    9  A    between atoms: C_21  and  O_27
REMARK   10  A    between atoms: C_23  and  C_25
REMARK   11  A    between atoms: C_25  and  O_26
REMARK   12  A    between atoms: C_32  and  O_37
REMARK   13  A    between atoms: C_33  and  O_36
REMARK                            x       y       z     vdW  Elec       q    Type
REMARK                         _______ _______ _______ _____ _____    ______ ____
ROOT
ATOM      1  C   UNL     1       9.362  -0.913  23.577  0.00  0.00    +0.211 A 
ATOM      2  C   UNL     1       9.593  -2.345  23.972  0.00  0.00    +0.238 A 
ATOM      3  O   UNL     1      10.545  -2.991  23.548  0.00  0.00    -0.283 OA
ATOM      4  C   UNL     1       8.632  -2.934  24.941  0.00  0.00    +0.109 A 
ATOM      5  C   UNL     1       7.827  -2.050  25.652  0.00  0.00    +0.147 A 
ATOM      6  C   UNL     1       6.955  -2.512  26.642  0.00  0.00    +0.093 A 
ATOM      7  C   UNL     1       6.849  -3.876  26.896  0.00  0.00    +0.131 A 
ATOM      8  C   UNL     1       7.648  -4.779  26.178  0.00  0.00    +0.092 A 
ATOM      9  O   UNL     1       7.840  -0.697  25.449  0.00  0.00    -0.451 OA
ATOM     10  C   UNL     1       8.525  -4.306  25.193  0.00  0.00    +0.135 A 
ATOM     11  C   UNL     1       8.516  -0.203  24.349  0.00  0.00    +0.181 A 
ENDROOT
BRANCH  11  12
ATOM     12  C   UNL     1       8.187   1.216  24.094  0.00  0.00    +0.025 A 
ATOM     13  C   UNL     1       8.894   2.220  24.774  0.00  0.00    +0.015 A 
ATOM     14  C   UNL     1       8.677   3.570  24.481  0.00  0.00    +0.050 A 
ATOM     15  C   UNL     1       7.755   3.909  23.505  0.00  0.00    +0.158 A 
ATOM     16  C   UNL     1       7.035   2.923  22.832  0.00  0.00    +0.159 A 
ATOM     17  C   UNL     1       7.242   1.575  23.119  0.00  0.00    +0.060 A 
BRANCH  15  18
ATOM     18  O   UNL     1       7.564   5.227  23.199  0.00  0.00    -0.503 OA
ATOM     19  H   UNL     1       6.649   5.417  23.485  0.00  0.00    +0.292 HD
ENDBRANCH  15  18
BRANCH  16  20
ATOM     20  O   UNL     1       6.143   3.338  21.881  0.00  0.00    -0.503 OA
ATOM     21  H   UNL     1       5.406   2.705  21.857  0.00  0.00    +0.292 HD
ENDBRANCH  16  20
ENDBRANCH  11  12
BRANCH   1  23
ATOM     22  C   UNL     1       9.485  -0.553  21.226  0.00  0.00    +0.277 C 
ATOM     23  O   UNL     1      10.041  -0.322  22.518  0.00  0.00    -0.488 OA
ENDBRANCH   1  23
BRANCH  10  24
ATOM     24  O   UNL     1       9.258  -5.206  24.474  0.00  0.00    -0.506 OA
ATOM     25  H   UNL     1       8.709  -5.635  23.801  0.00  0.00    +0.292 HD
ENDBRANCH  10  24
BRANCH   7  26
ATOM     26  O   UNL     1       6.049  -4.387  27.884  0.00  0.00    -0.461 OA
BRANCH  26  27
ATOM     27  C   UNL     1       5.973  -5.830  27.919  0.00  0.00    +0.339 C 
ATOM     28  O   UNL     1       5.122  -6.387  26.917  0.00  0.00    -0.331 OA
ATOM     29  C   UNL     1       3.733  -6.022  27.034  0.00  0.00    +0.179 C 
ATOM     30  C   UNL     1       3.136  -6.358  28.422  0.00  0.00    +0.177 C 
ATOM     31  C   UNL     1       4.028  -5.804  29.537  0.00  0.00    +0.180 C 
ATOM     32  C   UNL     1       5.479  -6.273  29.314  0.00  0.00    +0.214 C 
BRANCH  30  33
ATOM     33  O   UNL     1       3.004  -7.774  28.584  0.00  0.00    -0.386 OA
ATOM     34  H   UNL     1       2.690  -8.142  27.738  0.00  0.00    +0.210 HD
ENDBRANCH  30  33
BRANCH  31  35
ATOM     35  O   UNL     1       3.879  -4.379  29.589  0.00  0.00    -0.386 OA
ATOM     36  H   UNL     1       3.177  -4.116  28.964  0.00  0.00    +0.210 HD
ENDBRANCH  31  35
BRANCH  32  37
ATOM     37  O   UNL     1       6.318  -5.804  30.374  0.00  0.00    -0.383 OA
ATOM     38  H   UNL     1       6.253  -6.435  31.110  0.00  0.00    +0.210 HD
ENDBRANCH  32  37
BRANCH  29  39
ATOM     39  C   UNL     1       2.961  -6.756  25.922  0.00  0.00    +0.190 C 
BRANCH  39  40
ATOM     40  O   UNL     1       3.543  -8.024  25.610  0.00  0.00    -0.392 OA
ATOM     41  H   UNL     1       3.107  -8.702  26.150  0.00  0.00    +0.210 HD
ENDBRANCH  39  40
ENDBRANCH  29  39
ENDBRANCH  26  27
ENDBRANCH   7  26
TORSDOF 12
ENDMDL
MODEL 9
REMARK VINA RESULT:      -6.7      1.820      9.273
REMARK  Name = 
REMARK  13 active torsions:
REMARK  status: ('A' for Active; 'I' for Inactive)
REMARK    1  A    between atoms: C_1  and  O_2
REMARK    2  A    between atoms: O_2  and  C_3
REMARK    3  A    between atoms: C_4  and  C_30
REMARK    4  A    between atoms: C_8  and  O_15
REMARK    5  A    between atoms: C_10  and  O_14
REMARK    6  A    between atoms: O_15  and  C_16
REMARK    7  A    between atoms: C_18  and  O_29
REMARK    8  A    between atoms: C_19  and  O_28
REMARK    9  A    between atoms: C_21  and  O_27
REMARK   10  A    between atoms: C_23  and  C_25
REMARK   11  A    between atoms: C_25  and  O_26
REMARK   12  A    between atoms: C_32  and  O_37
REMARK   13  A    between atoms: C_33  and  O_36
REMARK                            x       y       z     vdW  Elec       q    Type
REMARK                         _______ _______ _______ _____ _____    ______ ____
ROOT
ATOM      1  C   UNL     1       8.972  -1.262  23.457  0.00  0.00    +0.211 A 
ATOM      2  C   UNL     1       9.110  -2.702  23.864  0.00  0.00    +0.238 A 
ATOM      3  O   UNL     1      10.202  -3.208  24.100  0.00  0.00    -0.283 OA
ATOM      4  C   UNL     1       7.852  -3.479  24.011  0.00  0.00    +0.109 A 
ATOM      5  C   UNL     1       6.668  -2.756  24.098  0.00  0.00    +0.147 A 
ATOM      6  C   UNL     1       5.448  -3.402  24.320  0.00  0.00    +0.093 A 
ATOM      7  C   UNL     1       5.400  -4.789  24.411  0.00  0.00    +0.131 A 
ATOM      8  C   UNL     1       6.587  -5.531  24.313  0.00  0.00    +0.092 A 
ATOM      9  O   UNL     1       6.613  -1.392  23.991  0.00  0.00    -0.451 OA
ATOM     10  C   UNL     1       7.806  -4.874  24.098  0.00  0.00    +0.135 A 
ATOM     11  C   UNL     1       7.742  -0.721  23.561  0.00  0.00    +0.181 A 
ENDROOT
BRANCH  11  12
ATOM     12  C   UNL     1       7.444   0.683  23.203  0.00  0.00    +0.025 A 
ATOM     13  C   UNL     1       7.891   1.189  21.973  0.00  0.00    +0.015 A 
ATOM     14  C   UNL     1       7.539   2.479  21.561  0.00  0.00    +0.050 A 
ATOM     15  C   UNL     1       6.739   3.255  22.383  0.00  0.00    +0.158 A 
ATOM     16  C   UNL     1       6.300   2.770  23.614  0.00  0.00    +0.159 A 
ATOM     17  C   UNL     1       6.648   1.487  24.034  0.00  0.00    +0.060 A 
BRANCH  15  18
ATOM     18  O   UNL     1       6.372   4.504  21.968  0.00  0.00    -0.503 OA
ATOM     19  H   UNL     1       6.740   5.107  22.644  0.00  0.00    +0.292 HD
ENDBRANCH  15  18
BRANCH  16  20
ATOM     20  O   UNL     1       5.512   3.597  24.368  0.00  0.00    -0.503 OA
ATOM     21  H   UNL     1       4.898   4.059  23.772  0.00  0.00    +0.292 HD
ENDBRANCH  16  20
ENDBRANCH  11  12
BRANCH   1  23
ATOM     22  C   UNL     1      10.738   0.195  24.113  0.00  0.00    +0.277 C 
ATOM     23  O   UNL     1      10.065  -0.498  23.065  0.00  0.00    -0.488 OA
ENDBRANCH   1  23
BRANCH  10  24
ATOM     24  O   UNL     1       8.942  -5.620  23.959  0.00  0.00    -0.506 OA
ATOM     25  H   UNL     1       9.314  -5.842  24.826  0.00  0.00    +0.292 HD
ENDBRANCH  10  24
BRANCH   7  26
ATOM     26  O   UNL     1       4.245  -5.476  24.674  0.00  0.00    -0.461 OA
BRANCH  26  27
ATOM     27  C   UNL     1       4.404  -6.622  25.541  0.00  0.00    +0.339 C 
ATOM     28  O   UNL     1       3.687  -7.778  25.106  0.00  0.00    -0.331 OA
ATOM     29  C   UNL     1       2.255  -7.628  25.086  0.00  0.00    +0.179 C 
ATOM     30  C   UNL     1       1.676  -7.181  26.449  0.00  0.00    +0.177 C 
ATOM     31  C   UNL     1       2.429  -5.956  26.976  0.00  0.00    +0.180 C 
ATOM     32  C   UNL     1       3.943  -6.241  26.966  0.00  0.00    +0.214 C 
BRANCH  30  33
ATOM     33  O   UNL     1       1.771  -8.240  27.409  0.00  0.00    -0.386 OA
ATOM     34  H   UNL     1       0.877  -8.607  27.535  0.00  0.00    +0.210 HD
ENDBRANCH  30  33
BRANCH  31  35
ATOM     35  O   UNL     1       2.048  -4.808  26.206  0.00  0.00    -0.386 OA
ATOM     36  H   UNL     1       1.327  -4.345  26.673  0.00  0.00    +0.210 HD
ENDBRANCH  31  35
BRANCH  32  37
ATOM     37  O   UNL     1       4.660  -5.123  27.500  0.00  0.00    -0.383 OA
ATOM     38  H   UNL     1       4.661  -5.202  28.469  0.00  0.00    +0.210 HD
ENDBRANCH  32  37
BRANCH  29  39
ATOM     39  C   UNL     1       1.650  -8.978  24.658  0.00  0.00    +0.190 C 
BRANCH  39  40
ATOM     40  O   UNL     1       2.287 -10.083  25.304  0.00  0.00    -0.392 OA
ATOM     41  H   UNL     1       1.851 -10.900  25.016  0.00  0.00    +0.210 HD
ENDBRANCH  39  40
ENDBRANCH  29  39
ENDBRANCH  26  27
ENDBRANCH   7  26
TORSDOF 12
ENDMDL
