MODEL 1
REMARK VINA RESULT:      -7.0      0.000      0.000
REMARK  Name = 
REMARK  26 active torsions:
REMARK  status: ('A' for Active; 'I' for Inactive)
REMARK    1  A    between atoms: C_1  and  C_2
REMARK    2  A    between atoms: C_3  and  O_74
REMARK    3  A    between atoms: C_5  and  O_73
REMARK    4  A    between atoms: C_6  and  O_47
REMARK    5  A    between atoms: C_8  and  O_11
REMARK    6  A    between atoms: O_11  and  C_12
REMARK    7  A    between atoms: C_12  and  C_13
REMARK    8  A    between atoms: C_14  and  O_46
REMARK    9  A    between atoms: C_16  and  O_45
REMARK   10  A    between atoms: C_18  and  O_44
REMARK   11  A    between atoms: C_19  and  O_22
REMARK   12  A    between atoms: O_22  and  C_23
REMARK   13  A    between atoms: C_25  and  O_43
REMARK   14  A    between atoms: C_30  and  C_35
REMARK   15  A    between atoms: C_31  and  O_34
REMARK   16  A    between atoms: C_37  and  O_42
REMARK   17  A    between atoms: C_38  and  O_41
REMARK   18  A    between atoms: O_47  and  C_48
REMARK   19  A    between atoms: C_50  and  O_60
REMARK   20  A    between atoms: C_52  and  O_59
REMARK   21  A    between atoms: C_53  and  O_58
REMARK   22  A    between atoms: C_55  and  C_57
REMARK   23  A    between atoms: O_60  and  C_61
REMARK   24  A    between atoms: C_63  and  O_72
REMARK   25  A    between atoms: C_64  and  O_71
REMARK   26  A    between atoms: C_66  and  O_70
REMARK                            x       y       z     vdW  Elec       q    Type
REMARK                         _______ _______ _______ _____ _____    ______ ____
ROOT
ATOM      1  C   UNL     1       7.176   2.779  26.967  0.00  0.00    +0.197 C 
ENDROOT
BRANCH   1   2
ATOM      2  C   UNL     1       6.771   2.141  28.335  0.00  0.00    +0.179 C 
ATOM      3  O   UNL     1       5.671   1.194  28.244  0.00  0.00    -0.331 OA
ATOM      4  C   UNL     1       4.334   1.726  28.101  0.00  0.00    +0.339 C 
ATOM      5  C   UNL     1       4.059   2.853  29.150  0.00  0.00    +0.214 C 
ATOM      6  C   UNL     1       5.202   3.882  29.145  0.00  0.00    +0.180 C 
ATOM      7  C   UNL     1       6.514   3.161  29.455  0.00  0.00    +0.177 C 
BRANCH   6   8
ATOM      8  O   UNL     1       5.002   4.934  30.095  0.00  0.00    -0.386 OA
ATOM      9  H   UNL     1       5.604   5.653  29.804  0.00  0.00    +0.210 HD
ENDBRANCH   6   8
BRANCH   7  10
ATOM     10  O   UNL     1       7.556   4.119  29.644  0.00  0.00    -0.386 OA
ATOM     11  H   UNL     1       8.400   3.629  29.610  0.00  0.00    +0.210 HD
ENDBRANCH   7  10
BRANCH   5  12
ATOM     12  O   UNL     1       3.928   2.299  30.479  0.00  0.00    -0.383 OA
ATOM     13  H   UNL     1       2.994   2.064  30.618  0.00  0.00    +0.210 HD
ENDBRANCH   5  12
BRANCH   4  14
ATOM     14  O   UNL     1       3.300   0.709  28.310  0.00  0.00    -0.461 OA
BRANCH  14  15
ATOM     15  C   UNL     1       3.590  -0.633  28.329  0.00  0.00    +0.131 A 
ATOM     16  C   UNL     1       4.028  -1.224  27.116  0.00  0.00    +0.093 A 
ATOM     17  C   UNL     1       4.298  -2.612  27.024  0.00  0.00    +0.147 A 
ATOM     18  O   UNL     1       4.766  -3.122  25.825  0.00  0.00    -0.451 OA
ATOM     19  C   UNL     1       5.174  -4.457  25.782  0.00  0.00    +0.181 A 
ATOM     20  C   UNL     1       4.976  -5.345  26.774  0.00  0.00    +0.208 A 
ATOM     21  C   UNL     1       4.256  -4.881  27.993  0.00  0.00    +0.238 A 
ATOM     22  O   UNL     1       3.792  -5.682  28.793  0.00  0.00    -0.283 OA
ATOM     23  C   UNL     1       4.099  -3.419  28.139  0.00  0.00    +0.109 A 
ATOM     24  C   UNL     1       3.719  -2.827  29.352  0.00  0.00    +0.135 A 
ATOM     25  C   UNL     1       3.476  -1.447  29.448  0.00  0.00    +0.092 A 
BRANCH  19  26
ATOM     26  C   UNL     1       5.834  -4.864  24.518  0.00  0.00    +0.025 A 
ATOM     27  C   UNL     1       7.238  -4.833  24.412  0.00  0.00    +0.015 A 
ATOM     28  C   UNL     1       7.881  -5.273  23.248  0.00  0.00    +0.050 A 
ATOM     29  C   UNL     1       7.123  -5.753  22.192  0.00  0.00    +0.158 A 
ATOM     30  C   UNL     1       5.736  -5.816  22.288  0.00  0.00    +0.159 A 
ATOM     31  C   UNL     1       5.084  -5.378  23.444  0.00  0.00    +0.060 A 
BRANCH  30  32
ATOM     32  O   UNL     1       5.059  -6.331  21.216  0.00  0.00    -0.503 OA
ATOM     33  H   UNL     1       5.607  -6.222  20.419  0.00  0.00    +0.292 HD
ENDBRANCH  30  32
BRANCH  29  34
ATOM     34  O   UNL     1       7.754  -6.174  21.056  0.00  0.00    -0.503 OA
ATOM     35  H   UNL     1       8.015  -5.353  20.592  0.00  0.00    +0.292 HD
ENDBRANCH  29  34
ENDBRANCH  19  26
BRANCH  24  36
ATOM     36  O   UNL     1       3.611  -3.579  30.484  0.00  0.00    -0.506 OA
ATOM     37  H   UNL     1       4.491  -3.819  30.811  0.00  0.00    +0.292 HD
ENDBRANCH  24  36
BRANCH  20  38
ATOM     38  O   UNL     1       5.373  -6.677  26.741  0.00  0.00    -0.501 OA
ATOM     39  H   UNL     1       4.971  -7.162  27.478  0.00  0.00    +0.292 HD
ENDBRANCH  20  38
ENDBRANCH  14  15
ENDBRANCH   4  14
ENDBRANCH   1   2
BRANCH   1  40
ATOM     40  O   UNL     1       7.136   4.221  26.889  0.00  0.00    -0.346 OA
BRANCH  40  44
ATOM     41  C   UNL     1      10.496   7.093  26.319  0.00  0.00    +0.041 C 
ATOM     42  C   UNL     1       9.159   7.020  25.608  0.00  0.00    +0.149 C 
ATOM     43  O   UNL     1       8.138   6.243  26.260  0.00  0.00    -0.343 OA
ATOM     44  C   UNL     1       8.206   4.812  26.142  0.00  0.00    +0.282 C 
ATOM     45  C   UNL     1       8.265   4.293  24.616  0.00  0.00    +0.208 C 
ATOM     46  C   UNL     1       9.534   5.017  24.134  0.00  0.00    +0.179 C 
ATOM     47  C   UNL     1       9.292   6.573  24.167  0.00  0.00    +0.174 C 
BRANCH  47  48
ATOM     48  O   UNL     1       8.020   7.046  23.643  0.00  0.00    -0.387 OA
ATOM     49  H   UNL     1       7.703   6.346  23.029  0.00  0.00    +0.210 HD
ENDBRANCH  47  48
BRANCH  46  50
ATOM     50  O   UNL     1      10.092   4.501  22.931  0.00  0.00    -0.386 OA
ATOM     51  H   UNL     1      10.174   3.533  22.986  0.00  0.00    +0.210 HD
ENDBRANCH  46  50
BRANCH  45  52
ATOM     52  O   UNL     1       7.110   4.666  23.787  0.00  0.00    -0.338 OA
BRANCH  52  53
ATOM     53  C   UNL     1       6.738   3.794  22.667  0.00  0.00    +0.283 C 
ATOM     54  O   UNL     1       5.546   4.193  21.927  0.00  0.00    -0.343 OA
ATOM     55  C   UNL     1       4.371   4.256  22.751  0.00  0.00    +0.149 C 
ATOM     56  C   UNL     1       3.139   4.903  22.116  0.00  0.00    +0.041 C 
ATOM     57  C   UNL     1       4.084   3.073  23.676  0.00  0.00    +0.174 C 
ATOM     58  C   UNL     1       5.344   2.345  24.184  0.00  0.00    +0.179 C 
ATOM     59  C   UNL     1       6.465   2.313  23.117  0.00  0.00    +0.208 C 
BRANCH  58  60
ATOM     60  O   UNL     1       4.908   1.023  24.543  0.00  0.00    -0.386 OA
ATOM     61  H   UNL     1       4.170   1.125  25.170  0.00  0.00    +0.210 HD
ENDBRANCH  58  60
BRANCH  57  62
ATOM     62  O   UNL     1       3.329   3.530  24.825  0.00  0.00    -0.387 OA
ATOM     63  H   UNL     1       3.909   4.137  25.333  0.00  0.00    +0.210 HD
ENDBRANCH  57  62
BRANCH  59  64
ATOM     64  O   UNL     1       7.691   1.621  23.489  0.00  0.00    -0.338 OA
BRANCH  64  65
ATOM     65  C   UNL     1       8.163   0.633  22.538  0.00  0.00    +0.282 C 
ATOM     66  O   UNL     1       7.875  -0.700  23.006  0.00  0.00    -0.346 OA
ATOM     67  C   UNL     1       8.785  -1.317  23.920  0.00  0.00    +0.197 C 
ATOM     68  C   UNL     1      10.263  -1.148  23.562  0.00  0.00    +0.171 C 
ATOM     69  C   UNL     1      10.531   0.310  23.270  0.00  0.00    +0.178 C 
ATOM     70  C   UNL     1       9.654   0.776  22.120  0.00  0.00    +0.201 C 
BRANCH  70  71
ATOM     71  O   UNL     1      10.076   2.067  21.690  0.00  0.00    -0.384 OA
ATOM     72  H   UNL     1       9.272   2.608  21.577  0.00  0.00    +0.210 HD
ENDBRANCH  70  71
BRANCH  69  73
ATOM     73  O   UNL     1      10.348   1.147  24.436  0.00  0.00    -0.386 OA
ATOM     74  H   UNL     1       9.692   0.708  25.020  0.00  0.00    +0.210 HD
ENDBRANCH  69  73
BRANCH  68  75
ATOM     75  O   UNL     1      10.574  -1.945  22.409  0.00  0.00    -0.387 OA
ATOM     76  H   UNL     1      11.477  -2.296  22.499  0.00  0.00    +0.210 HD
ENDBRANCH  68  75
ENDBRANCH  64  65
ENDBRANCH  59  64
ENDBRANCH  52  53
ENDBRANCH  45  52
ENDBRANCH  40  44
ENDBRANCH   1  40
TORSDOF 24
ENDMDL
MODEL 2
REMARK VINA RESULT:      -7.0      2.277      9.584
REMARK  Name = 
REMARK  26 active torsions:
REMARK  status: ('A' for Active; 'I' for Inactive)
REMARK    1  A    between atoms: C_1  and  C_2
REMARK    2  A    between atoms: C_3  and  O_74
REMARK    3  A    between atoms: C_5  and  O_73
REMARK    4  A    between atoms: C_6  and  O_47
REMARK    5  A    between atoms: C_8  and  O_11
REMARK    6  A    between atoms: O_11  and  C_12
REMARK    7  A    between atoms: C_12  and  C_13
REMARK    8  A    between atoms: C_14  and  O_46
REMARK    9  A    between atoms: C_16  and  O_45
REMARK   10  A    between atoms: C_18  and  O_44
REMARK   11  A    between atoms: C_19  and  O_22
REMARK   12  A    between atoms: O_22  and  C_23
REMARK   13  A    between atoms: C_25  and  O_43
REMARK   14  A    between atoms: C_30  and  C_35
REMARK   15  A    between atoms: C_31  and  O_34
REMARK   16  A    between atoms: C_37  and  O_42
REMARK   17  A    between atoms: C_38  and  O_41
REMARK   18  A    between atoms: O_47  and  C_48
REMARK   19  A    between atoms: C_50  and  O_60
REMARK   20  A    between atoms: C_52  and  O_59
REMARK   21  A    between atoms: C_53  and  O_58
REMARK   22  A    between atoms: C_55  and  C_57
REMARK   23  A    between atoms: O_60  and  C_61
REMARK   24  A    between atoms: C_63  and  O_72
REMARK   25  A    between atoms: C_64  and  O_71
REMARK   26  A    between atoms: C_66  and  O_70
REMARK                            x       y       z     vdW  Elec       q    Type
REMARK                         _______ _______ _______ _____ _____    ______ ____
ROOT
ATOM      1  C   UNL     1       8.314  -1.977  25.127  0.00  0.00    +0.197 C 
ENDROOT
BRANCH   1   2
ATOM      2  C   UNL     1       9.598  -1.133  24.842  0.00  0.00    +0.179 C 
ATOM      3  O   UNL     1       9.478   0.270  25.206  0.00  0.00    -0.331 OA
ATOM      4  C   UNL     1       8.722   1.132  24.324  0.00  0.00    +0.339 C 
ATOM      5  C   UNL     1       9.160   0.942  22.835  0.00  0.00    +0.214 C 
ATOM      6  C   UNL     1       9.183  -0.551  22.468  0.00  0.00    +0.180 C 
ATOM      7  C   UNL     1      10.143  -1.276  23.412  0.00  0.00    +0.177 C 
BRANCH   6   8
ATOM      8  O   UNL     1       9.586  -0.780  21.114  0.00  0.00    -0.386 OA
ATOM      9  H   UNL     1      10.567  -0.751  21.135  0.00  0.00    +0.210 HD
ENDBRANCH   6   8
BRANCH   7  10
ATOM     10  O   UNL     1      10.326  -2.622  22.972  0.00  0.00    -0.386 OA
ATOM     11  H   UNL     1       9.806  -3.188  23.573  0.00  0.00    +0.210 HD
ENDBRANCH   7  10
BRANCH   5  12
ATOM     12  O   UNL     1      10.473   1.504  22.610  0.00  0.00    -0.383 OA
ATOM     13  H   UNL     1      11.126   0.787  22.681  0.00  0.00    +0.210 HD
ENDBRANCH   5  12
BRANCH   4  14
ATOM     14  O   UNL     1       8.910   2.552  24.631  0.00  0.00    -0.461 OA
BRANCH  14  15
ATOM     15  C   UNL     1       7.852   3.395  24.863  0.00  0.00    +0.131 A 
ATOM     16  C   UNL     1       6.971   3.651  23.781  0.00  0.00    +0.093 A 
ATOM     17  C   UNL     1       5.883   4.550  23.909  0.00  0.00    +0.147 A 
ATOM     18  O   UNL     1       5.032   4.725  22.830  0.00  0.00    -0.451 OA
ATOM     19  C   UNL     1       3.878   5.492  23.009  0.00  0.00    +0.181 A 
ATOM     20  C   UNL     1       3.617   6.231  24.103  0.00  0.00    +0.208 A 
ATOM     21  C   UNL     1       4.636   6.250  25.190  0.00  0.00    +0.238 A 
ATOM     22  O   UNL     1       4.606   7.106  26.065  0.00  0.00    -0.283 OA
ATOM     23  C   UNL     1       5.691   5.220  25.113  0.00  0.00    +0.109 A 
ATOM     24  C   UNL     1       6.528   4.925  26.199  0.00  0.00    +0.135 A 
ATOM     25  C   UNL     1       7.591   4.015  26.078  0.00  0.00    +0.092 A 
BRANCH  19  26
ATOM     26  C   UNL     1       2.935   5.469  21.864  0.00  0.00    +0.025 A 
ATOM     27  C   UNL     1       2.825   6.589  21.018  0.00  0.00    +0.015 A 
ATOM     28  C   UNL     1       1.988   6.562  19.896  0.00  0.00    +0.050 A 
ATOM     29  C   UNL     1       1.266   5.413  19.611  0.00  0.00    +0.158 A 
ATOM     30  C   UNL     1       1.383   4.287  20.421  0.00  0.00    +0.159 A 
ATOM     31  C   UNL     1       2.214   4.303  21.544  0.00  0.00    +0.060 A 
BRANCH  30  32
ATOM     32  O   UNL     1       0.663   3.181  20.059  0.00  0.00    -0.503 OA
ATOM     33  H   UNL     1       0.274   3.336  19.180  0.00  0.00    +0.292 HD
ENDBRANCH  30  32
BRANCH  29  34
ATOM     34  O   UNL     1       0.445   5.394  18.520  0.00  0.00    -0.503 OA
ATOM     35  H   UNL     1       1.047   5.433  17.750  0.00  0.00    +0.292 HD
ENDBRANCH  29  34
ENDBRANCH  19  26
BRANCH  24  36
ATOM     36  O   UNL     1       6.304   5.493  27.418  0.00  0.00    -0.506 OA
ATOM     37  H   UNL     1       7.121   5.494  27.941  0.00  0.00    +0.292 HD
ENDBRANCH  24  36
BRANCH  20  38
ATOM     38  O   UNL     1       2.475   7.001  24.289  0.00  0.00    -0.501 OA
ATOM     39  H   UNL     1       1.780   6.468  24.705  0.00  0.00    +0.292 HD
ENDBRANCH  20  38
ENDBRANCH  14  15
ENDBRANCH   4  14
ENDBRANCH   1   2
BRANCH   1  40
ATOM     40  O   UNL     1       7.399  -2.154  24.023  0.00  0.00    -0.346 OA
BRANCH  40  44
ATOM     41  C   UNL     1       7.188  -5.794  21.461  0.00  0.00    +0.041 C 
ATOM     42  C   UNL     1       6.070  -4.905  21.966  0.00  0.00    +0.149 C 
ATOM     43  O   UNL     1       6.461  -3.603  22.440  0.00  0.00    -0.343 OA
ATOM     44  C   UNL     1       7.039  -3.513  23.753  0.00  0.00    +0.282 C 
ATOM     45  C   UNL     1       6.116  -4.158  24.909  0.00  0.00    +0.208 C 
ATOM     46  C   UNL     1       5.992  -5.598  24.382  0.00  0.00    +0.179 C 
ATOM     47  C   UNL     1       5.214  -5.588  23.013  0.00  0.00    +0.174 C 
BRANCH  47  48
ATOM     48  O   UNL     1       4.025  -4.753  22.945  0.00  0.00    -0.387 OA
ATOM     49  H   UNL     1       4.339  -3.826  23.055  0.00  0.00    +0.210 HD
ENDBRANCH  47  48
BRANCH  46  50
ATOM     50  O   UNL     1       5.544  -6.546  25.344  0.00  0.00    -0.386 OA
ATOM     51  H   UNL     1       6.107  -6.514  26.137  0.00  0.00    +0.210 HD
ENDBRANCH  46  50
BRANCH  45  52
ATOM     52  O   UNL     1       4.789  -3.545  25.060  0.00  0.00    -0.338 OA
BRANCH  52  53
ATOM     53  C   UNL     1       4.196  -3.476  26.400  0.00  0.00    +0.283 C 
ATOM     54  O   UNL     1       3.728  -4.744  26.947  0.00  0.00    -0.343 OA
ATOM     55  C   UNL     1       2.725  -5.370  26.131  0.00  0.00    +0.149 C 
ATOM     56  C   UNL     1       2.363  -6.811  26.497  0.00  0.00    +0.041 C 
ATOM     57  C   UNL     1       1.559  -4.507  25.647  0.00  0.00    +0.174 C 
ATOM     58  C   UNL     1       1.916  -3.023  25.429  0.00  0.00    +0.179 C 
ATOM     59  C   UNL     1       2.952  -2.518  26.463  0.00  0.00    +0.208 C 
BRANCH  58  60
ATOM     60  O   UNL     1       0.672  -2.309  25.522  0.00  0.00    -0.386 OA
ATOM     61  H   UNL     1      -0.022  -2.965  25.711  0.00  0.00    +0.210 HD
ENDBRANCH  58  60
BRANCH  57  62
ATOM     62  O   UNL     1       1.048  -5.040  24.401  0.00  0.00    -0.387 OA
ATOM     63  H   UNL     1       0.217  -4.558  24.196  0.00  0.00    +0.210 HD
ENDBRANCH  57  62
BRANCH  59  64
ATOM     64  O   UNL     1       3.335  -1.117  26.360  0.00  0.00    -0.338 OA
BRANCH  64  65
ATOM     65  C   UNL     1       4.660  -0.795  26.852  0.00  0.00    +0.282 C 
ATOM     66  O   UNL     1       4.619  -0.492  28.261  0.00  0.00    -0.346 OA
ATOM     67  C   UNL     1       4.274   0.836  28.666  0.00  0.00    +0.197 C 
ATOM     68  C   UNL     1       4.958   1.946  27.866  0.00  0.00    +0.171 C 
ATOM     69  C   UNL     1       4.793   1.658  26.392  0.00  0.00    +0.178 C 
ATOM     70  C   UNL     1       5.411   0.311  26.056  0.00  0.00    +0.201 C 
BRANCH  70  71
ATOM     71  O   UNL     1       5.471   0.151  24.643  0.00  0.00    -0.384 OA
ATOM     72  H   UNL     1       4.745   0.681  24.263  0.00  0.00    +0.210 HD
ENDBRANCH  70  71
BRANCH  69  73
ATOM     73  O   UNL     1       3.411   1.716  25.971  0.00  0.00    -0.386 OA
ATOM     74  H   UNL     1       3.382   2.160  25.095  0.00  0.00    +0.210 HD
ENDBRANCH  69  73
BRANCH  68  75
ATOM     75  O   UNL     1       6.353   1.995  28.204  0.00  0.00    -0.387 OA
ATOM     76  H   UNL     1       6.842   2.417  27.477  0.00  0.00    +0.210 HD
ENDBRANCH  68  75
ENDBRANCH  64  65
ENDBRANCH  59  64
ENDBRANCH  52  53
ENDBRANCH  45  52
ENDBRANCH  40  44
ENDBRANCH   1  40
TORSDOF 24
ENDMDL
MODEL 3
REMARK VINA RESULT:      -6.6      2.407      6.256
REMARK  Name = 
REMARK  26 active torsions:
REMARK  status: ('A' for Active; 'I' for Inactive)
REMARK    1  A    between atoms: C_1  and  C_2
REMARK    2  A    between atoms: C_3  and  O_74
REMARK    3  A    between atoms: C_5  and  O_73
REMARK    4  A    between atoms: C_6  and  O_47
REMARK    5  A    between atoms: C_8  and  O_11
REMARK    6  A    between atoms: O_11  and  C_12
REMARK    7  A    between atoms: C_12  and  C_13
REMARK    8  A    between atoms: C_14  and  O_46
REMARK    9  A    between atoms: C_16  and  O_45
REMARK   10  A    between atoms: C_18  and  O_44
REMARK   11  A    between atoms: C_19  and  O_22
REMARK   12  A    between atoms: O_22  and  C_23
REMARK   13  A    between atoms: C_25  and  O_43
REMARK   14  A    between atoms: C_30  and  C_35
REMARK   15  A    between atoms: C_31  and  O_34
REMARK   16  A    between atoms: C_37  and  O_42
REMARK   17  A    between atoms: C_38  and  O_41
REMARK   18  A    between atoms: O_47  and  C_48
REMARK   19  A    between atoms: C_50  and  O_60
REMARK   20  A    between atoms: C_52  and  O_59
REMARK   21  A    between atoms: C_53  and  O_58
REMARK   22  A    between atoms: C_55  and  C_57
REMARK   23  A    between atoms: O_60  and  C_61
REMARK   24  A    between atoms: C_63  and  O_72
REMARK   25  A    between atoms: C_64  and  O_71
REMARK   26  A    between atoms: C_66  and  O_70
REMARK                            x       y       z     vdW  Elec       q    Type
REMARK                         _______ _______ _______ _____ _____    ______ ____
ROOT
ATOM      1  C   UNL     1       8.197   2.711  25.431  0.00  0.00    +0.197 C 
ENDROOT
BRANCH   1   2
ATOM      2  C   UNL     1       7.719   2.296  24.002  0.00  0.00    +0.179 C 
ATOM      3  O   UNL     1       7.572   0.860  23.820  0.00  0.00    -0.331 OA
ATOM      4  C   UNL     1       8.774   0.077  23.640  0.00  0.00    +0.339 C 
ATOM      5  C   UNL     1       9.710   0.718  22.562  0.00  0.00    +0.214 C 
ATOM      6  C   UNL     1       9.912   2.216  22.848  0.00  0.00    +0.180 C 
ATOM      7  C   UNL     1       8.546   2.903  22.859  0.00  0.00    +0.177 C 
BRANCH   6   8
ATOM      8  O   UNL     1      10.757   2.852  21.884  0.00  0.00    -0.386 OA
ATOM      9  H   UNL     1      11.552   3.128  22.390  0.00  0.00    +0.210 HD
ENDBRANCH   6   8
BRANCH   7  10
ATOM     10  O   UNL     1       8.721   4.318  22.931  0.00  0.00    -0.386 OA
ATOM     11  H   UNL     1       8.897   4.533  23.867  0.00  0.00    +0.210 HD
ENDBRANCH   7  10
BRANCH   5  12
ATOM     12  O   UNL     1       9.152   0.560  21.238  0.00  0.00    -0.383 OA
ATOM     13  H   UNL     1       9.703  -0.076  20.751  0.00  0.00    +0.210 HD
ENDBRANCH   5  12
BRANCH   4  14
ATOM     14  O   UNL     1       8.493  -1.286  23.183  0.00  0.00    -0.461 OA
BRANCH  14  15
ATOM     15  C   UNL     1       8.155  -2.292  24.053  0.00  0.00    +0.131 A 
ATOM     16  C   UNL     1       6.936  -2.979  23.815  0.00  0.00    +0.093 A 
ATOM     17  C   UNL     1       6.476  -3.995  24.689  0.00  0.00    +0.147 A 
ATOM     18  O   UNL     1       5.301  -4.659  24.380  0.00  0.00    -0.451 OA
ATOM     19  C   UNL     1       4.932  -5.758  25.159  0.00  0.00    +0.181 A 
ATOM     20  C   UNL     1       5.536  -6.114  26.307  0.00  0.00    +0.208 A 
ATOM     21  C   UNL     1       6.663  -5.269  26.794  0.00  0.00    +0.238 A 
ATOM     22  O   UNL     1       7.061  -5.356  27.948  0.00  0.00    -0.283 OA
ATOM     23  C   UNL     1       7.219  -4.304  25.824  0.00  0.00    +0.109 A 
ATOM     24  C   UNL     1       8.450  -3.665  26.030  0.00  0.00    +0.135 A 
ATOM     25  C   UNL     1       8.917  -2.676  25.148  0.00  0.00    +0.092 A 
BRANCH  19  26
ATOM     26  C   UNL     1       3.768  -6.520  24.643  0.00  0.00    +0.025 A 
ATOM     27  C   UNL     1       3.052  -6.046  23.528  0.00  0.00    +0.015 A 
ATOM     28  C   UNL     1       1.990  -6.784  22.989  0.00  0.00    +0.050 A 
ATOM     29  C   UNL     1       1.649  -8.001  23.557  0.00  0.00    +0.158 A 
ATOM     30  C   UNL     1       2.363  -8.499  24.643  0.00  0.00    +0.159 A 
ATOM     31  C   UNL     1       3.422  -7.770  25.191  0.00  0.00    +0.060 A 
BRANCH  30  32
ATOM     32  O   UNL     1       1.987  -9.721  25.130  0.00  0.00    -0.503 OA
ATOM     33  H   UNL     1       1.946 -10.353  24.391  0.00  0.00    +0.292 HD
ENDBRANCH  30  32
BRANCH  29  34
ATOM     34  O   UNL     1       0.608  -8.714  23.033  0.00  0.00    -0.503 OA
ATOM     35  H   UNL     1       0.301  -9.287  23.763  0.00  0.00    +0.292 HD
ENDBRANCH  29  34
ENDBRANCH  19  26
BRANCH  24  36
ATOM     36  O   UNL     1       9.246  -4.018  27.079  0.00  0.00    -0.506 OA
ATOM     37  H   UNL     1       8.806  -3.807  27.917  0.00  0.00    +0.292 HD
ENDBRANCH  24  36
BRANCH  20  38
ATOM     38  O   UNL     1       5.174  -7.203  27.092  0.00  0.00    -0.501 OA
ATOM     39  H   UNL     1       5.963  -7.707  27.345  0.00  0.00    +0.292 HD
ENDBRANCH  20  38
ENDBRANCH  14  15
ENDBRANCH   4  14
ENDBRANCH   1   2
BRANCH   1  40
ATOM     40  O   UNL     1       7.336   3.610  26.164  0.00  0.00    -0.346 OA
BRANCH  40  44
ATOM     41  C   UNL     1       8.004   1.183  29.841  0.00  0.00    +0.041 C 
ATOM     42  C   UNL     1       6.854   1.142  28.856  0.00  0.00    +0.149 C 
ATOM     43  O   UNL     1       7.094   1.757  27.577  0.00  0.00    -0.343 OA
ATOM     44  C   UNL     1       7.027   3.190  27.498  0.00  0.00    +0.282 C 
ATOM     45  C   UNL     1       5.635   3.801  28.040  0.00  0.00    +0.208 C 
ATOM     46  C   UNL     1       5.644   3.257  29.479  0.00  0.00    +0.179 C 
ATOM     47  C   UNL     1       5.567   1.684  29.444  0.00  0.00    +0.174 C 
BRANCH  47  48
ATOM     48  O   UNL     1       4.607   1.099  28.520  0.00  0.00    -0.387 OA
ATOM     49  H   UNL     1       3.833   0.834  29.066  0.00  0.00    +0.210 HD
ENDBRANCH  47  48
BRANCH  46  50
ATOM     50  O   UNL     1       4.736   3.903  30.364  0.00  0.00    -0.386 OA
ATOM     51  H   UNL     1       4.507   4.786  30.026  0.00  0.00    +0.210 HD
ENDBRANCH  46  50
BRANCH  45  52
ATOM     52  O   UNL     1       4.435   3.346  27.322  0.00  0.00    -0.338 OA
BRANCH  52  53
ATOM     53  C   UNL     1       3.191   4.108  27.480  0.00  0.00    +0.283 C 
ATOM     54  O   UNL     1       2.249   3.578  28.459  0.00  0.00    -0.343 OA
ATOM     55  C   UNL     1       1.826   2.239  28.161  0.00  0.00    +0.149 C 
ATOM     56  C   UNL     1       1.040   1.521  29.260  0.00  0.00    +0.041 C 
ATOM     57  C   UNL     1       1.376   1.934  26.731  0.00  0.00    +0.174 C 
ATOM     58  C   UNL     1       2.079   2.780  25.652  0.00  0.00    +0.179 C 
ATOM     59  C   UNL     1       2.374   4.218  26.142  0.00  0.00    +0.208 C 
BRANCH  58  60
ATOM     60  O   UNL     1       1.196   2.771  24.518  0.00  0.00    -0.386 OA
ATOM     61  H   UNL     1       1.752   2.826  23.720  0.00  0.00    +0.210 HD
ENDBRANCH  58  60
BRANCH  57  62
ATOM     62  O   UNL     1       1.610   0.535  26.438  0.00  0.00    -0.387 OA
ATOM     63  H   UNL     1       0.984   0.013  26.987  0.00  0.00    +0.210 HD
ENDBRANCH  57  62
BRANCH  59  64
ATOM     64  O   UNL     1       3.013   5.108  25.184  0.00  0.00    -0.338 OA
BRANCH  64  65
ATOM     65  C   UNL     1       4.001   4.491  24.320  0.00  0.00    +0.282 C 
ATOM     66  O   UNL     1       5.328   4.939  24.666  0.00  0.00    -0.346 OA
ATOM     67  C   UNL     1       5.796   6.175  24.121  0.00  0.00    +0.197 C 
ATOM     68  C   UNL     1       5.500   6.371  22.633  0.00  0.00    +0.171 C 
ATOM     69  C   UNL     1       4.042   6.067  22.381  0.00  0.00    +0.178 C 
ATOM     70  C   UNL     1       3.733   4.638  22.796  0.00  0.00    +0.201 C 
BRANCH  70  71
ATOM     71  O   UNL     1       2.433   4.278  22.338  0.00  0.00    -0.384 OA
ATOM     72  H   UNL     1       1.815   4.434  23.077  0.00  0.00    +0.210 HD
ENDBRANCH  70  71
BRANCH  69  73
ATOM     73  O   UNL     1       3.161   7.003  23.046  0.00  0.00    -0.386 OA
ATOM     74  H   UNL     1       3.133   6.762  23.998  0.00  0.00    +0.210 HD
ENDBRANCH  69  73
BRANCH  68  75
ATOM     75  O   UNL     1       6.327   5.490  21.857  0.00  0.00    -0.387 OA
ATOM     76  H   UNL     1       5.811   4.702  21.612  0.00  0.00    +0.210 HD
ENDBRANCH  68  75
ENDBRANCH  64  65
ENDBRANCH  59  64
ENDBRANCH  52  53
ENDBRANCH  45  52
ENDBRANCH  40  44
ENDBRANCH   1  40
TORSDOF 24
ENDMDL
MODEL 4
REMARK VINA RESULT:      -6.3      2.338      7.238
REMARK  Name = 
REMARK  26 active torsions:
REMARK  status: ('A' for Active; 'I' for Inactive)
REMARK    1  A    between atoms: C_1  and  C_2
REMARK    2  A    between atoms: C_3  and  O_74
REMARK    3  A    between atoms: C_5  and  O_73
REMARK    4  A    between atoms: C_6  and  O_47
REMARK    5  A    between atoms: C_8  and  O_11
REMARK    6  A    between atoms: O_11  and  C_12
REMARK    7  A    between atoms: C_12  and  C_13
REMARK    8  A    between atoms: C_14  and  O_46
REMARK    9  A    between atoms: C_16  and  O_45
REMARK   10  A    between atoms: C_18  and  O_44
REMARK   11  A    between atoms: C_19  and  O_22
REMARK   12  A    between atoms: O_22  and  C_23
REMARK   13  A    between atoms: C_25  and  O_43
REMARK   14  A    between atoms: C_30  and  C_35
REMARK   15  A    between atoms: C_31  and  O_34
REMARK   16  A    between atoms: C_37  and  O_42
REMARK   17  A    between atoms: C_38  and  O_41
REMARK   18  A    between atoms: O_47  and  C_48
REMARK   19  A    between atoms: C_50  and  O_60
REMARK   20  A    between atoms: C_52  and  O_59
REMARK   21  A    between atoms: C_53  and  O_58
REMARK   22  A    between atoms: C_55  and  C_57
REMARK   23  A    between atoms: O_60  and  C_61
REMARK   24  A    between atoms: C_63  and  O_72
REMARK   25  A    between atoms: C_64  and  O_71
REMARK   26  A    between atoms: C_66  and  O_70
REMARK                            x       y       z     vdW  Elec       q    Type
REMARK                         _______ _______ _______ _____ _____    ______ ____
ROOT
ATOM      1  C   UNL     1       2.443   3.423  23.646  0.00  0.00    +0.197 C 
ENDROOT
BRANCH   1   2
ATOM      2  C   UNL     1       3.551   3.319  22.549  0.00  0.00    +0.179 C 
ATOM      3  O   UNL     1       4.837   2.855  23.047  0.00  0.00    -0.331 OA
ATOM      4  C   UNL     1       5.655   3.797  23.779  0.00  0.00    +0.339 C 
ATOM      5  C   UNL     1       5.772   5.156  23.014  0.00  0.00    +0.214 C 
ATOM      6  C   UNL     1       4.382   5.655  22.588  0.00  0.00    +0.180 C 
ATOM      7  C   UNL     1       3.726   4.592  21.706  0.00  0.00    +0.177 C 
BRANCH   6   8
ATOM      8  O   UNL     1       4.434   6.896  21.878  0.00  0.00    -0.386 OA
ATOM      9  H   UNL     1       3.999   6.711  21.017  0.00  0.00    +0.210 HD
ENDBRANCH   6   8
BRANCH   7  10
ATOM     10  O   UNL     1       2.520   5.110  21.145  0.00  0.00    -0.386 OA
ATOM     11  H   UNL     1       2.777   5.650  20.374  0.00  0.00    +0.210 HD
ENDBRANCH   7  10
BRANCH   5  12
ATOM     12  O   UNL     1       6.605   5.016  21.841  0.00  0.00    -0.383 OA
ATOM     13  H   UNL     1       7.131   4.204  21.938  0.00  0.00    +0.210 HD
ENDBRANCH   5  12
BRANCH   4  14
ATOM     14  O   UNL     1       7.025   3.315  23.975  0.00  0.00    -0.461 OA
BRANCH  14  15
ATOM     15  C   UNL     1       7.442   2.093  23.512  0.00  0.00    +0.131 A 
ATOM     16  C   UNL     1       7.113   0.952  24.288  0.00  0.00    +0.093 A 
ATOM     17  C   UNL     1       7.547  -0.345  23.919  0.00  0.00    +0.147 A 
ATOM     18  O   UNL     1       7.156  -1.424  24.694  0.00  0.00    -0.451 OA
ATOM     19  C   UNL     1       7.457  -2.712  24.243  0.00  0.00    +0.181 A 
ATOM     20  C   UNL     1       8.264  -2.984  23.202  0.00  0.00    +0.208 A 
ATOM     21  C   UNL     1       8.895  -1.837  22.489  0.00  0.00    +0.238 A 
ATOM     22  O   UNL     1       9.845  -2.010  21.737  0.00  0.00    -0.283 OA
ATOM     23  C   UNL     1       8.341  -0.501  22.787  0.00  0.00    +0.109 A 
ATOM     24  C   UNL     1       8.620   0.617  21.990  0.00  0.00    +0.135 A 
ATOM     25  C   UNL     1       8.167   1.899  22.343  0.00  0.00    +0.092 A 
BRANCH  19  26
ATOM     26  C   UNL     1       6.839  -3.805  25.033  0.00  0.00    +0.025 A 
ATOM     27  C   UNL     1       5.658  -4.423  24.580  0.00  0.00    +0.015 A 
ATOM     28  C   UNL     1       5.096  -5.498  25.279  0.00  0.00    +0.050 A 
ATOM     29  C   UNL     1       5.718  -5.964  26.427  0.00  0.00    +0.158 A 
ATOM     30  C   UNL     1       6.900  -5.384  26.875  0.00  0.00    +0.159 A 
ATOM     31  C   UNL     1       7.469  -4.309  26.186  0.00  0.00    +0.060 A 
BRANCH  30  32
ATOM     32  O   UNL     1       7.472  -5.919  27.998  0.00  0.00    -0.503 OA
ATOM     33  H   UNL     1       7.072  -6.790  28.167  0.00  0.00    +0.292 HD
ENDBRANCH  30  32
BRANCH  29  34
ATOM     34  O   UNL     1       5.162  -7.009  27.110  0.00  0.00    -0.503 OA
ATOM     35  H   UNL     1       5.722  -7.118  27.904  0.00  0.00    +0.292 HD
ENDBRANCH  29  34
ENDBRANCH  19  26
BRANCH  24  36
ATOM     36  O   UNL     1       9.312   0.480  20.823  0.00  0.00    -0.506 OA
ATOM     37  H   UNL     1       9.318   1.319  20.338  0.00  0.00    +0.292 HD
ENDBRANCH  24  36
BRANCH  20  38
ATOM     38  O   UNL     1       8.575  -4.261  22.748  0.00  0.00    -0.501 OA
ATOM     39  H   UNL     1       7.811  -4.849  22.862  0.00  0.00    +0.292 HD
ENDBRANCH  20  38
ENDBRANCH  14  15
ENDBRANCH   4  14
ENDBRANCH   1   2
BRANCH   1  40
ATOM     40  O   UNL     1       2.807   2.989  24.975  0.00  0.00    -0.346 OA
BRANCH  40  44
ATOM     41  C   UNL     1       2.134   7.093  26.575  0.00  0.00    +0.041 C 
ATOM     42  C   UNL     1       3.253   6.115  26.872  0.00  0.00    +0.149 C 
ATOM     43  O   UNL     1       3.418   5.039  25.930  0.00  0.00    -0.343 OA
ATOM     44  C   UNL     1       2.510   3.928  26.015  0.00  0.00    +0.282 C 
ATOM     45  C   UNL     1       2.459   3.247  27.477  0.00  0.00    +0.208 C 
ATOM     46  C   UNL     1       2.038   4.460  28.324  0.00  0.00    +0.179 C 
ATOM     47  C   UNL     1       3.173   5.551  28.276  0.00  0.00    +0.174 C 
BRANCH  47  48
ATOM     48  O   UNL     1       4.539   5.077  28.430  0.00  0.00    -0.387 OA
ATOM     49  H   UNL     1       4.599   4.715  29.343  0.00  0.00    +0.210 HD
ENDBRANCH  47  48
BRANCH  46  50
ATOM     50  O   UNL     1       1.542   4.137  29.619  0.00  0.00    -0.386 OA
ATOM     51  H   UNL     1       1.293   3.198  29.660  0.00  0.00    +0.210 HD
ENDBRANCH  46  50
BRANCH  45  52
ATOM     52  O   UNL     1       3.738   2.701  27.954  0.00  0.00    -0.338 OA
BRANCH  52  53
ATOM     53  C   UNL     1       3.714   1.586  28.907  0.00  0.00    +0.283 C 
ATOM     54  O   UNL     1       4.718   1.639  29.963  0.00  0.00    -0.343 OA
ATOM     55  C   UNL     1       6.062   1.663  29.457  0.00  0.00    +0.149 C 
ATOM     56  C   UNL     1       7.159   1.969  30.478  0.00  0.00    +0.041 C 
ATOM     57  C   UNL     1       6.437   0.643  28.381  0.00  0.00    +0.174 C 
ATOM     58  C   UNL     1       5.272   0.239  27.457  0.00  0.00    +0.179 C 
ATOM     59  C   UNL     1       3.922   0.192  28.213  0.00  0.00    +0.208 C 
BRANCH  58  60
ATOM     60  O   UNL     1       5.632  -1.045  26.921  0.00  0.00    -0.386 OA
ATOM     61  H   UNL     1       4.802  -1.511  26.710  0.00  0.00    +0.210 HD
ENDBRANCH  58  60
BRANCH  57  62
ATOM     62  O   UNL     1       7.504   1.177  27.560  0.00  0.00    -0.387 OA
ATOM     63  H   UNL     1       8.327   0.700  27.804  0.00  0.00    +0.210 HD
ENDBRANCH  57  62
BRANCH  59  64
ATOM     64  O   UNL     1       2.759  -0.209  27.433  0.00  0.00    -0.338 OA
BRANCH  64  65
ATOM     65  C   UNL     1       1.903  -1.201  28.054  0.00  0.00    +0.282 C 
ATOM     66  O   UNL     1       2.626  -1.937  29.062  0.00  0.00    -0.346 OA
ATOM     67  C   UNL     1       3.424  -3.052  28.655  0.00  0.00    +0.197 C 
ATOM     68  C   UNL     1       2.753  -3.983  27.644  0.00  0.00    +0.171 C 
ATOM     69  C   UNL     1       2.183  -3.153  26.517  0.00  0.00    +0.178 C 
ATOM     70  C   UNL     1       1.175  -2.158  27.068  0.00  0.00    +0.201 C 
BRANCH  70  71
ATOM     71  O   UNL     1       0.468  -1.549  25.992  0.00  0.00    -0.384 OA
ATOM     72  H   UNL     1       1.126  -1.331  25.304  0.00  0.00    +0.210 HD
ENDBRANCH  70  71
BRANCH  69  73
ATOM     73  O   UNL     1       3.213  -2.481  25.754  0.00  0.00    -0.386 OA
ATOM     74  H   UNL     1       3.785  -3.171  25.351  0.00  0.00    +0.210 HD
ENDBRANCH  69  73
BRANCH  68  75
ATOM     75  O   UNL     1       1.703  -4.720  28.290  0.00  0.00    -0.387 OA
ATOM     76  H   UNL     1       0.949  -4.126  28.451  0.00  0.00    +0.210 HD
ENDBRANCH  68  75
ENDBRANCH  64  65
ENDBRANCH  59  64
ENDBRANCH  52  53
ENDBRANCH  45  52
ENDBRANCH  40  44
ENDBRANCH   1  40
TORSDOF 24
ENDMDL
MODEL 5
REMARK VINA RESULT:      -6.2      1.970      7.258
REMARK  Name = 
REMARK  26 active torsions:
REMARK  status: ('A' for Active; 'I' for Inactive)
REMARK    1  A    between atoms: C_1  and  C_2
REMARK    2  A    between atoms: C_3  and  O_74
REMARK    3  A    between atoms: C_5  and  O_73
REMARK    4  A    between atoms: C_6  and  O_47
REMARK    5  A    between atoms: C_8  and  O_11
REMARK    6  A    between atoms: O_11  and  C_12
REMARK    7  A    between atoms: C_12  and  C_13
REMARK    8  A    between atoms: C_14  and  O_46
REMARK    9  A    between atoms: C_16  and  O_45
REMARK   10  A    between atoms: C_18  and  O_44
REMARK   11  A    between atoms: C_19  and  O_22
REMARK   12  A    between atoms: O_22  and  C_23
REMARK   13  A    between atoms: C_25  and  O_43
REMARK   14  A    between atoms: C_30  and  C_35
REMARK   15  A    between atoms: C_31  and  O_34
REMARK   16  A    between atoms: C_37  and  O_42
REMARK   17  A    between atoms: C_38  and  O_41
REMARK   18  A    between atoms: O_47  and  C_48
REMARK   19  A    between atoms: C_50  and  O_60
REMARK   20  A    between atoms: C_52  and  O_59
REMARK   21  A    between atoms: C_53  and  O_58
REMARK   22  A    between atoms: C_55  and  C_57
REMARK   23  A    between atoms: O_60  and  C_61
REMARK   24  A    between atoms: C_63  and  O_72
REMARK   25  A    between atoms: C_64  and  O_71
REMARK   26  A    between atoms: C_66  and  O_70
REMARK                            x       y       z     vdW  Elec       q    Type
REMARK                         _______ _______ _______ _____ _____    ______ ____
ROOT
ATOM      1  C   UNL     1       2.371   3.077  24.144  0.00  0.00    +0.197 C 
ENDROOT
BRANCH   1   2
ATOM      2  C   UNL     1       3.616   3.014  23.202  0.00  0.00    +0.179 C 
ATOM      3  O   UNL     1       4.887   3.187  23.888  0.00  0.00    -0.331 OA
ATOM      4  C   UNL     1       5.261   4.527  24.285  0.00  0.00    +0.339 C 
ATOM      5  C   UNL     1       5.083   5.537  23.104  0.00  0.00    +0.214 C 
ATOM      6  C   UNL     1       3.691   5.382  22.469  0.00  0.00    +0.180 C 
ATOM      7  C   UNL     1       3.531   3.942  21.980  0.00  0.00    +0.177 C 
BRANCH   6   8
ATOM      8  O   UNL     1       3.480   6.281  21.376  0.00  0.00    -0.386 OA
ATOM      9  H   UNL     1       3.615   7.176  21.758  0.00  0.00    +0.210 HD
ENDBRANCH   6   8
BRANCH   7  10
ATOM     10  O   UNL     1       2.328   3.823  21.221  0.00  0.00    -0.386 OA
ATOM     11  H   UNL     1       1.922   2.970  21.466  0.00  0.00    +0.210 HD
ENDBRANCH   7  10
BRANCH   5  12
ATOM     12  O   UNL     1       6.092   5.325  22.090  0.00  0.00    -0.383 OA
ATOM     13  H   UNL     1       6.063   4.389  21.826  0.00  0.00    +0.210 HD
ENDBRANCH   5  12
BRANCH   4  14
ATOM     14  O   UNL     1       6.664   4.618  24.698  0.00  0.00    -0.461 OA
BRANCH  14  15
ATOM     15  C   UNL     1       7.581   3.647  24.386  0.00  0.00    +0.131 A 
ATOM     16  C   UNL     1       7.129   2.302  24.370  0.00  0.00    +0.093 A 
ATOM     17  C   UNL     1       8.014   1.226  24.112  0.00  0.00    +0.147 A 
ATOM     18  O   UNL     1       7.505  -0.061  24.067  0.00  0.00    -0.451 OA
ATOM     19  C   UNL     1       8.349  -1.098  23.664  0.00  0.00    +0.181 A 
ATOM     20  C   UNL     1       9.678  -0.975  23.492  0.00  0.00    +0.208 A 
ATOM     21  C   UNL     1      10.296   0.353  23.768  0.00  0.00    +0.238 A 
ATOM     22  O   UNL     1      11.507   0.465  23.912  0.00  0.00    -0.283 OA
ATOM     23  C   UNL     1       9.364   1.490  23.902  0.00  0.00    +0.109 A 
ATOM     24  C   UNL     1       9.801   2.822  23.863  0.00  0.00    +0.135 A 
ATOM     25  C   UNL     1       8.917   3.889  24.093  0.00  0.00    +0.092 A 
BRANCH  19  26
ATOM     26  C   UNL     1       7.674  -2.404  23.462  0.00  0.00    +0.025 A 
ATOM     27  C   UNL     1       7.599  -3.331  24.518  0.00  0.00    +0.015 A 
ATOM     28  C   UNL     1       6.911  -4.542  24.365  0.00  0.00    +0.050 A 
ATOM     29  C   UNL     1       6.288  -4.823  23.159  0.00  0.00    +0.158 A 
ATOM     30  C   UNL     1       6.328  -3.907  22.113  0.00  0.00    +0.159 A 
ATOM     31  C   UNL     1       7.014  -2.697  22.254  0.00  0.00    +0.060 A 
BRANCH  30  32
ATOM     32  O   UNL     1       5.664  -4.242  20.964  0.00  0.00    -0.503 OA
ATOM     33  H   UNL     1       5.850  -5.175  20.757  0.00  0.00    +0.292 HD
ENDBRANCH  30  32
BRANCH  29  34
ATOM     34  O   UNL     1       5.625  -6.008  23.012  0.00  0.00    -0.503 OA
ATOM     35  H   UNL     1       5.838  -6.305  22.105  0.00  0.00    +0.292 HD
ENDBRANCH  29  34
ENDBRANCH  19  26
BRANCH  24  36
ATOM     36  O   UNL     1      11.098   3.116  23.562  0.00  0.00    -0.506 OA
ATOM     37  H   UNL     1      11.573   2.309  23.312  0.00  0.00    +0.292 HD
ENDBRANCH  24  36
BRANCH  20  38
ATOM     38  O   UNL     1      10.528  -2.001  23.097  0.00  0.00    -0.501 OA
ATOM     39  H   UNL     1      10.145  -2.477  22.343  0.00  0.00    +0.292 HD
ENDBRANCH  20  38
ENDBRANCH  14  15
ENDBRANCH   4  14
ENDBRANCH   1   2
BRANCH   1  40
ATOM     40  O   UNL     1       2.489   2.405  25.418  0.00  0.00    -0.346 OA
BRANCH  40  44
ATOM     41  C   UNL     1       0.909   6.082  27.378  0.00  0.00    +0.041 C 
ATOM     42  C   UNL     1       2.240   5.384  27.570  0.00  0.00    +0.149 C 
ATOM     43  O   UNL     1       2.624   4.459  26.537  0.00  0.00    -0.343 OA
ATOM     44  C   UNL     1       2.014   3.158  26.540  0.00  0.00    +0.282 C 
ATOM     45  C   UNL     1       2.183   2.370  27.938  0.00  0.00    +0.208 C 
ATOM     46  C   UNL     1       1.514   3.373  28.894  0.00  0.00    +0.179 C 
ATOM     47  C   UNL     1       2.350   4.707  28.921  0.00  0.00    +0.174 C 
BRANCH  47  48
ATOM     48  O   UNL     1       3.796   4.568  29.011  0.00  0.00    -0.387 OA
ATOM     49  H   UNL     1       4.153   5.483  29.066  0.00  0.00    +0.210 HD
ENDBRANCH  47  48
BRANCH  46  50
ATOM     50  O   UNL     1       1.159   2.837  30.164  0.00  0.00    -0.386 OA
ATOM     51  H   UNL     1       1.537   3.381  30.877  0.00  0.00    +0.210 HD
ENDBRANCH  46  50
BRANCH  45  52
ATOM     52  O   UNL     1       3.572   2.115  28.345  0.00  0.00    -0.338 OA
BRANCH  52  53
ATOM     53  C   UNL     1       3.886   0.849  29.016  0.00  0.00    +0.283 C 
ATOM     54  O   UNL     1       4.949   0.912  30.012  0.00  0.00    -0.343 OA
ATOM     55  C   UNL     1       6.200   1.360  29.468  0.00  0.00    +0.149 C 
ATOM     56  C   UNL     1       7.295   1.693  30.483  0.00  0.00    +0.041 C 
ATOM     57  C   UNL     1       6.687   0.712  28.171  0.00  0.00    +0.174 C 
ATOM     58  C   UNL     1       5.557   0.249  27.231  0.00  0.00    +0.179 C 
ATOM     59  C   UNL     1       4.329  -0.276  28.013  0.00  0.00    +0.208 C 
BRANCH  58  60
ATOM     60  O   UNL     1       6.139  -0.768  26.399  0.00  0.00    -0.386 OA
ATOM     61  H   UNL     1       7.044  -0.479  26.182  0.00  0.00    +0.210 HD
ENDBRANCH  58  60
BRANCH  57  62
ATOM     62  O   UNL     1       7.527   1.645  27.450  0.00  0.00    -0.387 OA
ATOM     63  H   UNL     1       6.957   2.393  27.168  0.00  0.00    +0.210 HD
ENDBRANCH  57  62
BRANCH  59  64
ATOM     64  O   UNL     1       3.216  -0.765  27.213  0.00  0.00    -0.338 OA
BRANCH  64  65
ATOM     65  C   UNL     1       2.679  -2.052  27.610  0.00  0.00    +0.282 C 
ATOM     66  O   UNL     1       3.632  -2.771  28.419  0.00  0.00    -0.346 OA
ATOM     67  C   UNL     1       4.652  -3.530  27.763  0.00  0.00    +0.197 C 
ATOM     68  C   UNL     1       4.164  -4.368  26.580  0.00  0.00    +0.171 C 
ATOM     69  C   UNL     1       3.327  -3.495  25.675  0.00  0.00    +0.178 C 
ATOM     70  C   UNL     1       2.145  -2.934  26.446  0.00  0.00    +0.201 C 
BRANCH  70  71
ATOM     71  O   UNL     1       1.234  -2.316  25.542  0.00  0.00    -0.384 OA
ATOM     72  H   UNL     1       1.604  -2.422  24.645  0.00  0.00    +0.210 HD
ENDBRANCH  70  71
BRANCH  69  73
ATOM     73  O   UNL     1       4.100  -2.435  25.065  0.00  0.00    -0.386 OA
ATOM     74  H   UNL     1       4.298  -1.770  25.762  0.00  0.00    +0.210 HD
ENDBRANCH  69  73
BRANCH  68  75
ATOM     75  O   UNL     1       3.379  -5.471  27.062  0.00  0.00    -0.387 OA
ATOM     76  H   UNL     1       3.194  -6.077  26.323  0.00  0.00    +0.210 HD
ENDBRANCH  68  75
ENDBRANCH  64  65
ENDBRANCH  59  64
ENDBRANCH  52  53
ENDBRANCH  45  52
ENDBRANCH  40  44
ENDBRANCH   1  40
TORSDOF 24
ENDMDL
MODEL 6
REMARK VINA RESULT:      -6.2      1.931      7.606
REMARK  Name = 
REMARK  26 active torsions:
REMARK  status: ('A' for Active; 'I' for Inactive)
REMARK    1  A    between atoms: C_1  and  C_2
REMARK    2  A    between atoms: C_3  and  O_74
REMARK    3  A    between atoms: C_5  and  O_73
REMARK    4  A    between atoms: C_6  and  O_47
REMARK    5  A    between atoms: C_8  and  O_11
REMARK    6  A    between atoms: O_11  and  C_12
REMARK    7  A    between atoms: C_12  and  C_13
REMARK    8  A    between atoms: C_14  and  O_46
REMARK    9  A    between atoms: C_16  and  O_45
REMARK   10  A    between atoms: C_18  and  O_44
REMARK   11  A    between atoms: C_19  and  O_22
REMARK   12  A    between atoms: O_22  and  C_23
REMARK   13  A    between atoms: C_25  and  O_43
REMARK   14  A    between atoms: C_30  and  C_35
REMARK   15  A    between atoms: C_31  and  O_34
REMARK   16  A    between atoms: C_37  and  O_42
REMARK   17  A    between atoms: C_38  and  O_41
REMARK   18  A    between atoms: O_47  and  C_48
REMARK   19  A    between atoms: C_50  and  O_60
REMARK   20  A    between atoms: C_52  and  O_59
REMARK   21  A    between atoms: C_53  and  O_58
REMARK   22  A    between atoms: C_55  and  C_57
REMARK   23  A    between atoms: O_60  and  C_61
REMARK   24  A    between atoms: C_63  and  O_72
REMARK   25  A    between atoms: C_64  and  O_71
REMARK   26  A    between atoms: C_66  and  O_70
REMARK                            x       y       z     vdW  Elec       q    Type
REMARK                         _______ _______ _______ _____ _____    ______ ____
ROOT
ATOM      1  C   UNL     1       6.178  -2.116  23.150  0.00  0.00    +0.197 C 
ENDROOT
BRANCH   1   2
ATOM      2  C   UNL     1       5.337  -3.035  24.094  0.00  0.00    +0.179 C 
ATOM      3  O   UNL     1       4.808  -2.355  25.266  0.00  0.00    -0.331 OA
ATOM      4  C   UNL     1       5.720  -2.080  26.354  0.00  0.00    +0.339 C 
ATOM      5  C   UNL     1       6.550  -3.351  26.732  0.00  0.00    +0.214 C 
ATOM      6  C   UNL     1       7.167  -3.983  25.473  0.00  0.00    +0.180 C 
ATOM      7  C   UNL     1       6.044  -4.339  24.499  0.00  0.00    +0.177 C 
BRANCH   6   8
ATOM      8  O   UNL     1       7.933  -5.157  25.764  0.00  0.00    -0.386 OA
ATOM      9  H   UNL     1       8.140  -5.091  26.722  0.00  0.00    +0.210 HD
ENDBRANCH   6   8
BRANCH   7  10
ATOM     10  O   UNL     1       6.573  -5.097  23.411  0.00  0.00    -0.386 OA
ATOM     11  H   UNL     1       7.516  -4.860  23.334  0.00  0.00    +0.210 HD
ENDBRANCH   7  10
BRANCH   5  12
ATOM     12  O   UNL     1       5.717  -4.331  27.393  0.00  0.00    -0.383 OA
ATOM     13  H   UNL     1       6.297  -5.009  27.780  0.00  0.00    +0.210 HD
ENDBRANCH   5  12
BRANCH   4  14
ATOM     14  O   UNL     1       5.027  -1.663  27.575  0.00  0.00    -0.461 OA
BRANCH  14  15
ATOM     15  C   UNL     1       4.084  -0.666  27.575  0.00  0.00    +0.131 A 
ATOM     16  C   UNL     1       4.225   0.366  26.612  0.00  0.00    +0.093 A 
ATOM     17  C   UNL     1       3.333   1.467  26.569  0.00  0.00    +0.147 A 
ATOM     18  O   UNL     1       3.496   2.420  25.578  0.00  0.00    -0.451 OA
ATOM     19  C   UNL     1       2.527   3.417  25.446  0.00  0.00    +0.181 A 
ATOM     20  C   UNL     1       1.536   3.637  26.329  0.00  0.00    +0.208 A 
ATOM     21  C   UNL     1       1.476   2.770  27.540  0.00  0.00    +0.238 A 
ATOM     22  O   UNL     1       0.797   3.087  28.508  0.00  0.00    -0.283 OA
ATOM     23  C   UNL     1       2.315   1.554  27.513  0.00  0.00    +0.109 A 
ATOM     24  C   UNL     1       2.141   0.508  28.429  0.00  0.00    +0.135 A 
ATOM     25  C   UNL     1       3.011  -0.595  28.454  0.00  0.00    +0.092 A 
BRANCH  19  26
ATOM     26  C   UNL     1       2.681   4.277  24.247  0.00  0.00    +0.025 A 
ATOM     27  C   UNL     1       3.080   5.619  24.387  0.00  0.00    +0.015 A 
ATOM     28  C   UNL     1       3.292   6.427  23.262  0.00  0.00    +0.050 A 
ATOM     29  C   UNL     1       3.115   5.892  21.996  0.00  0.00    +0.158 A 
ATOM     30  C   UNL     1       2.747   4.559  21.837  0.00  0.00    +0.159 A 
ATOM     31  C   UNL     1       2.530   3.745  22.952  0.00  0.00    +0.060 A 
BRANCH  30  32
ATOM     32  O   UNL     1       2.620   4.095  20.556  0.00  0.00    -0.503 OA
ATOM     33  H   UNL     1       2.130   4.753  20.033  0.00  0.00    +0.292 HD
ENDBRANCH  30  32
BRANCH  29  34
ATOM     34  O   UNL     1       3.315   6.686  20.903  0.00  0.00    -0.503 OA
ATOM     35  H   UNL     1       2.527   7.264  20.862  0.00  0.00    +0.292 HD
ENDBRANCH  29  34
ENDBRANCH  19  26
BRANCH  24  36
ATOM     36  O   UNL     1       1.093   0.518  29.302  0.00  0.00    -0.506 OA
ATOM     37  H   UNL     1       0.296   0.177  28.869  0.00  0.00    +0.292 HD
ENDBRANCH  24  36
BRANCH  20  38
ATOM     38  O   UNL     1       0.570   4.629  26.211  0.00  0.00    -0.501 OA
ATOM     39  H   UNL     1      -0.305   4.227  26.086  0.00  0.00    +0.292 HD
ENDBRANCH  20  38
ENDBRANCH  14  15
ENDBRANCH   4  14
ENDBRANCH   1   2
BRANCH   1  40
ATOM     40  O   UNL     1       6.588  -0.840  23.689  0.00  0.00    -0.346 OA
BRANCH  40  44
ATOM     41  C   UNL     1      10.822  -1.569  22.507  0.00  0.00    +0.041 C 
ATOM     42  C   UNL     1      10.270  -0.933  23.766  0.00  0.00    +0.149 C 
ATOM     43  O   UNL     1       8.879  -1.180  24.042  0.00  0.00    -0.343 OA
ATOM     44  C   UNL     1       7.904  -0.422  23.307  0.00  0.00    +0.282 C 
ATOM     45  C   UNL     1       8.111   1.174  23.420  0.00  0.00    +0.208 C 
ATOM     46  C   UNL     1       9.541   1.300  22.867  0.00  0.00    +0.179 C 
ATOM     47  C   UNL     1      10.541   0.556  23.831  0.00  0.00    +0.174 C 
BRANCH  47  48
ATOM     48  O   UNL     1      10.359   0.779  25.257  0.00  0.00    -0.387 OA
ATOM     49  H   UNL     1      10.071  -0.084  25.631  0.00  0.00    +0.210 HD
ENDBRANCH  47  48
BRANCH  46  50
ATOM     50  O   UNL     1       9.916   2.618  22.482  0.00  0.00    -0.386 OA
ATOM     51  H   UNL     1       9.443   3.274  23.023  0.00  0.00    +0.210 HD
ENDBRANCH  46  50
BRANCH  45  52
ATOM     52  O   UNL     1       8.033   1.717  24.784  0.00  0.00    -0.338 OA
BRANCH  52  53
ATOM     53  C   UNL     1       6.885   2.557  25.141  0.00  0.00    +0.283 C 
ATOM     54  O   UNL     1       6.217   3.218  24.026  0.00  0.00    -0.343 OA
ATOM     55  C   UNL     1       7.091   4.084  23.284  0.00  0.00    +0.149 C 
ATOM     56  C   UNL     1       6.544   4.618  21.959  0.00  0.00    +0.041 C 
ATOM     57  C   UNL     1       7.963   5.062  24.072  0.00  0.00    +0.174 C 
ATOM     58  C   UNL     1       8.378   4.559  25.469  0.00  0.00    +0.179 C 
ATOM     59  C   UNL     1       7.265   3.713  26.135  0.00  0.00    +0.208 C 
BRANCH  58  60
ATOM     60  O   UNL     1       8.684   5.739  26.230  0.00  0.00    -0.386 OA
ATOM     61  H   UNL     1       8.533   6.504  25.646  0.00  0.00    +0.210 HD
ENDBRANCH  58  60
BRANCH  57  62
ATOM     62  O   UNL     1       9.164   5.355  23.318  0.00  0.00    -0.387 OA
ATOM     63  H   UNL     1       9.380   6.301  23.468  0.00  0.00    +0.210 HD
ENDBRANCH  57  62
BRANCH  59  64
ATOM     64  O   UNL     1       7.549   3.213  27.472  0.00  0.00    -0.338 OA
BRANCH  64  65
ATOM     65  C   UNL     1       6.411   3.150  28.369  0.00  0.00    +0.282 C 
ATOM     66  O   UNL     1       5.278   3.837  27.801  0.00  0.00    -0.346 OA
ATOM     67  C   UNL     1       5.181   5.253  27.969  0.00  0.00    +0.197 C 
ATOM     68  C   UNL     1       5.500   5.753  29.379  0.00  0.00    +0.171 C 
ATOM     69  C   UNL     1       6.802   5.137  29.833  0.00  0.00    +0.178 C 
ATOM     70  C   UNL     1       6.688   3.622  29.825  0.00  0.00    +0.201 C 
BRANCH  70  71
ATOM     71  O   UNL     1       7.819   3.054  30.476  0.00  0.00    -0.384 OA
ATOM     72  H   UNL     1       8.287   2.508  29.816  0.00  0.00    +0.210 HD
ENDBRANCH  70  71
BRANCH  69  73
ATOM     73  O   UNL     1       7.927   5.578  29.037  0.00  0.00    -0.386 OA
ATOM     74  H   UNL     1       7.571   6.039  28.245  0.00  0.00    +0.210 HD
ENDBRANCH  69  73
BRANCH  68  75
ATOM     75  O   UNL     1       4.440   5.378  30.273  0.00  0.00    -0.387 OA
ATOM     76  H   UNL     1       4.100   4.504  30.015  0.00  0.00    +0.210 HD
ENDBRANCH  68  75
ENDBRANCH  64  65
ENDBRANCH  59  64
ENDBRANCH  52  53
ENDBRANCH  45  52
ENDBRANCH  40  44
ENDBRANCH   1  40
TORSDOF 24
ENDMDL
MODEL 7
REMARK VINA RESULT:      -6.2      2.013      7.772
REMARK  Name = 
REMARK  26 active torsions:
REMARK  status: ('A' for Active; 'I' for Inactive)
REMARK    1  A    between atoms: C_1  and  C_2
REMARK    2  A    between atoms: C_3  and  O_74
REMARK    3  A    between atoms: C_5  and  O_73
REMARK    4  A    between atoms: C_6  and  O_47
REMARK    5  A    between atoms: C_8  and  O_11
REMARK    6  A    between atoms: O_11  and  C_12
REMARK    7  A    between atoms: C_12  and  C_13
REMARK    8  A    between atoms: C_14  and  O_46
REMARK    9  A    between atoms: C_16  and  O_45
REMARK   10  A    between atoms: C_18  and  O_44
REMARK   11  A    between atoms: C_19  and  O_22
REMARK   12  A    between atoms: O_22  and  C_23
REMARK   13  A    between atoms: C_25  and  O_43
REMARK   14  A    between atoms: C_30  and  C_35
REMARK   15  A    between atoms: C_31  and  O_34
REMARK   16  A    between atoms: C_37  and  O_42
REMARK   17  A    between atoms: C_38  and  O_41
REMARK   18  A    between atoms: O_47  and  C_48
REMARK   19  A    between atoms: C_50  and  O_60
REMARK   20  A    between atoms: C_52  and  O_59
REMARK   21  A    between atoms: C_53  and  O_58
REMARK   22  A    between atoms: C_55  and  C_57
REMARK   23  A    between atoms: O_60  and  C_61
REMARK   24  A    between atoms: C_63  and  O_72
REMARK   25  A    between atoms: C_64  and  O_71
REMARK   26  A    between atoms: C_66  and  O_70
REMARK                            x       y       z     vdW  Elec       q    Type
REMARK                         _______ _______ _______ _____ _____    ______ ____
ROOT
ATOM      1  C   UNL     1       2.588   2.748  25.042  0.00  0.00    +0.197 C 
ENDROOT
BRANCH   1   2
ATOM      2  C   UNL     1       2.997   3.615  23.808  0.00  0.00    +0.179 C 
ATOM      3  O   UNL     1       4.284   4.278  23.950  0.00  0.00    -0.331 OA
ATOM      4  C   UNL     1       4.347   5.453  24.791  0.00  0.00    +0.339 C 
ATOM      5  C   UNL     1       3.199   6.457  24.445  0.00  0.00    +0.214 C 
ATOM      6  C   UNL     1       1.845   5.730  24.398  0.00  0.00    +0.180 C 
ATOM      7  C   UNL     1       1.922   4.614  23.355  0.00  0.00    +0.177 C 
BRANCH   6   8
ATOM      8  O   UNL     1       0.759   6.605  24.078  0.00  0.00    -0.386 OA
ATOM      9  H   UNL     1       1.132   7.242  23.431  0.00  0.00    +0.210 HD
ENDBRANCH   6   8
BRANCH   7  10
ATOM     10  O   UNL     1       0.625   4.051  23.156  0.00  0.00    -0.386 OA
ATOM     11  H   UNL     1       0.564   3.809  22.213  0.00  0.00    +0.210 HD
ENDBRANCH   7  10
BRANCH   5  12
ATOM     12  O   UNL     1       3.439   7.094  23.170  0.00  0.00    -0.383 OA
ATOM     13  H   UNL     1       2.792   7.813  23.064  0.00  0.00    +0.210 HD
ENDBRANCH   5  12
BRANCH   4  14
ATOM     14  O   UNL     1       5.602   6.191  24.630  0.00  0.00    -0.461 OA
BRANCH  14  15
ATOM     15  C   UNL     1       6.789   5.562  24.350  0.00  0.00    +0.131 A 
ATOM     16  C   UNL     1       6.949   4.232  24.818  0.00  0.00    +0.093 A 
ATOM     17  C   UNL     1       8.159   3.520  24.624  0.00  0.00    +0.147 A 
ATOM     18  O   UNL     1       8.239   2.210  25.065  0.00  0.00    -0.451 OA
ATOM     19  C   UNL     1       9.375   1.465  24.738  0.00  0.00    +0.181 A 
ATOM     20  C   UNL     1      10.488   1.978  24.182  0.00  0.00    +0.208 A 
ATOM     21  C   UNL     1      10.520   3.444  23.912  0.00  0.00    +0.238 A 
ATOM     22  O   UNL     1      11.577   4.018  23.684  0.00  0.00    -0.283 OA
ATOM     23  C   UNL     1       9.225   4.149  23.989  0.00  0.00    +0.109 A 
ATOM     24  C   UNL     1       9.048   5.442  23.478  0.00  0.00    +0.135 A 
ATOM     25  C   UNL     1       7.839   6.137  23.648  0.00  0.00    +0.092 A 
BRANCH  19  26
ATOM     26  C   UNL     1       9.293   0.025  25.085  0.00  0.00    +0.025 A 
ATOM     27  C   UNL     1       8.670  -0.379  26.281  0.00  0.00    +0.015 A 
ATOM     28  C   UNL     1       8.527  -1.737  26.594  0.00  0.00    +0.050 A 
ATOM     29  C   UNL     1       8.998  -2.693  25.709  0.00  0.00    +0.158 A 
ATOM     30  C   UNL     1       9.593  -2.314  24.509  0.00  0.00    +0.159 A 
ATOM     31  C   UNL     1       9.743  -0.962  24.187  0.00  0.00    +0.060 A 
BRANCH  30  32
ATOM     32  O   UNL     1      10.006  -3.315  23.673  0.00  0.00    -0.503 OA
ATOM     33  H   UNL     1       9.503  -3.254  22.842  0.00  0.00    +0.292 HD
ENDBRANCH  30  32
BRANCH  29  34
ATOM     34  O   UNL     1       8.864  -4.016  26.022  0.00  0.00    -0.503 OA
ATOM     35  H   UNL     1       9.778  -4.361  26.059  0.00  0.00    +0.292 HD
ENDBRANCH  29  34
ENDBRANCH  19  26
BRANCH  24  36
ATOM     36  O   UNL     1      10.041   6.046  22.765  0.00  0.00    -0.506 OA
ATOM     37  H   UNL     1      10.008   7.006  22.895  0.00  0.00    +0.292 HD
ENDBRANCH  24  36
BRANCH  20  38
ATOM     38  O   UNL     1      11.625   1.248  23.857  0.00  0.00    -0.501 OA
ATOM     39  H   UNL     1      11.823   1.345  22.912  0.00  0.00    +0.292 HD
ENDBRANCH  20  38
ENDBRANCH  14  15
ENDBRANCH   4  14
ENDBRANCH   1   2
BRANCH   1  40
ATOM     40  O   UNL     1       3.451   1.635  25.365  0.00  0.00    -0.346 OA
BRANCH  40  44
ATOM     41  C   UNL     1       4.708   2.721  29.500  0.00  0.00    +0.041 C 
ATOM     42  C   UNL     1       5.258   1.654  28.575  0.00  0.00    +0.149 C 
ATOM     43  O   UNL     1       4.921   1.790  27.182  0.00  0.00    -0.343 OA
ATOM     44  C   UNL     1       3.607   1.383  26.766  0.00  0.00    +0.282 C 
ATOM     45  C   UNL     1       3.244  -0.135  27.174  0.00  0.00    +0.208 C 
ATOM     46  C   UNL     1       3.415  -0.053  28.700  0.00  0.00    +0.179 C 
ATOM     47  C   UNL     1       4.922   0.252  29.041  0.00  0.00    +0.174 C 
BRANCH  47  48
ATOM     48  O   UNL     1       5.923  -0.501  28.302  0.00  0.00    -0.387 OA
ATOM     49  H   UNL     1       5.826  -1.437  28.591  0.00  0.00    +0.210 HD
ENDBRANCH  47  48
BRANCH  46  50
ATOM     50  O   UNL     1       2.819  -1.124  29.423  0.00  0.00    -0.386 OA
ATOM     51  H   UNL     1       2.962  -1.966  28.957  0.00  0.00    +0.210 HD
ENDBRANCH  46  50
BRANCH  45  52
ATOM     52  O   UNL     1       4.132  -1.161  26.607  0.00  0.00    -0.338 OA
BRANCH  52  53
ATOM     53  C   UNL     1       3.538  -2.249  25.823  0.00  0.00    +0.283 C 
ATOM     54  O   UNL     1       2.480  -2.999  26.489  0.00  0.00    -0.343 OA
ATOM     55  C   UNL     1       2.916  -3.620  27.709  0.00  0.00    +0.149 C 
ATOM     56  C   UNL     1       1.817  -4.212  28.592  0.00  0.00    +0.041 C 
ATOM     57  C   UNL     1       4.226  -4.408  27.680  0.00  0.00    +0.174 C 
ATOM     58  C   UNL     1       5.263  -3.878  26.670  0.00  0.00    +0.179 C 
ATOM     59  C   UNL     1       4.594  -3.328  25.387  0.00  0.00    +0.208 C 
BRANCH  58  60
ATOM     60  O   UNL     1       6.131  -4.987  26.389  0.00  0.00    -0.386 OA
ATOM     61  H   UNL     1       6.498  -5.288  27.241  0.00  0.00    +0.210 HD
ENDBRANCH  58  60
BRANCH  57  62
ATOM     62  O   UNL     1       4.826  -4.396  28.998  0.00  0.00    -0.387 OA
ATOM     63  H   UNL     1       5.573  -3.759  28.973  0.00  0.00    +0.210 HD
ENDBRANCH  57  62
BRANCH  59  64
ATOM     64  O   UNL     1       5.492  -2.828  24.355  0.00  0.00    -0.338 OA
BRANCH  64  65
ATOM     65  C   UNL     1       5.172  -3.233  23.000  0.00  0.00    +0.282 C 
ATOM     66  O   UNL     1       4.190  -4.288  23.004  0.00  0.00    -0.346 OA
ATOM     67  C   UNL     1       4.634  -5.636  23.176  0.00  0.00    +0.197 C 
ATOM     68  C   UNL     1       5.869  -6.013  22.355  0.00  0.00    +0.171 C 
ATOM     69  C   UNL     1       6.928  -4.954  22.553  0.00  0.00    +0.178 C 
ATOM     70  C   UNL     1       6.395  -3.601  22.113  0.00  0.00    +0.201 C 
BRANCH  70  71
ATOM     71  O   UNL     1       7.462  -2.658  22.072  0.00  0.00    -0.384 OA
ATOM     72  H   UNL     1       7.058  -1.769  22.057  0.00  0.00    +0.210 HD
ENDBRANCH  70  71
BRANCH  69  73
ATOM     73  O   UNL     1       7.409  -4.905  23.917  0.00  0.00    -0.386 OA
ATOM     74  H   UNL     1       8.033  -4.149  23.988  0.00  0.00    +0.210 HD
ENDBRANCH  69  73
BRANCH  68  75
ATOM     75  O   UNL     1       5.515  -6.100  20.966  0.00  0.00    -0.387 OA
ATOM     76  H   UNL     1       4.712  -6.644  20.875  0.00  0.00    +0.210 HD
ENDBRANCH  68  75
ENDBRANCH  64  65
ENDBRANCH  59  64
ENDBRANCH  52  53
ENDBRANCH  45  52
ENDBRANCH  40  44
ENDBRANCH   1  40
TORSDOF 24
ENDMDL
MODEL 8
REMARK VINA RESULT:      -6.0      2.107      9.883
REMARK  Name = 
REMARK  26 active torsions:
REMARK  status: ('A' for Active; 'I' for Inactive)
REMARK    1  A    between atoms: C_1  and  C_2
REMARK    2  A    between atoms: C_3  and  O_74
REMARK    3  A    between atoms: C_5  and  O_73
REMARK    4  A    between atoms: C_6  and  O_47
REMARK    5  A    between atoms: C_8  and  O_11
REMARK    6  A    between atoms: O_11  and  C_12
REMARK    7  A    between atoms: C_12  and  C_13
REMARK    8  A    between atoms: C_14  and  O_46
REMARK    9  A    between atoms: C_16  and  O_45
REMARK   10  A    between atoms: C_18  and  O_44
REMARK   11  A    between atoms: C_19  and  O_22
REMARK   12  A    between atoms: O_22  and  C_23
REMARK   13  A    between atoms: C_25  and  O_43
REMARK   14  A    between atoms: C_30  and  C_35
REMARK   15  A    between atoms: C_31  and  O_34
REMARK   16  A    between atoms: C_37  and  O_42
REMARK   17  A    between atoms: C_38  and  O_41
REMARK   18  A    between atoms: O_47  and  C_48
REMARK   19  A    between atoms: C_50  and  O_60
REMARK   20  A    between atoms: C_52  and  O_59
REMARK   21  A    between atoms: C_53  and  O_58
REMARK   22  A    between atoms: C_55  and  C_57
REMARK   23  A    between atoms: O_60  and  C_61
REMARK   24  A    between atoms: C_63  and  O_72
REMARK   25  A    between atoms: C_64  and  O_71
REMARK   26  A    between atoms: C_66  and  O_70
REMARK                            x       y       z     vdW  Elec       q    Type
REMARK                         _______ _______ _______ _____ _____    ______ ____
ROOT
ATOM      1  C   UNL     1       6.201  -2.304  25.769  0.00  0.00    +0.197 C 
ENDROOT
BRANCH   1   2
ATOM      2  C   UNL     1       7.658  -1.740  25.762  0.00  0.00    +0.179 C 
ATOM      3  O   UNL     1       7.916  -0.778  24.702  0.00  0.00    -0.331 OA
ATOM      4  C   UNL     1       8.111  -1.288  23.363  0.00  0.00    +0.339 C 
ATOM      5  C   UNL     1       9.136  -2.469  23.352  0.00  0.00    +0.214 C 
ATOM      6  C   UNL     1       8.771  -3.508  24.426  0.00  0.00    +0.180 C 
ATOM      7  C   UNL     1       8.752  -2.818  25.791  0.00  0.00    +0.177 C 
BRANCH   6   8
ATOM      8  O   UNL     1       9.685  -4.608  24.463  0.00  0.00    -0.386 OA
ATOM      9  H   UNL     1       9.304  -5.230  25.120  0.00  0.00    +0.210 HD
ENDBRANCH   6   8
BRANCH   7  10
ATOM     10  O   UNL     1       8.604  -3.795  26.821  0.00  0.00    -0.386 OA
ATOM     11  H   UNL     1       7.689  -4.128  26.765  0.00  0.00    +0.210 HD
ENDBRANCH   7  10
BRANCH   5  12
ATOM     12  O   UNL     1      10.478  -1.988  23.596  0.00  0.00    -0.383 OA
ATOM     13  H   UNL     1      11.096  -2.556  23.104  0.00  0.00    +0.210 HD
ENDBRANCH   5  12
BRANCH   4  14
ATOM     14  O   UNL     1       8.642  -0.274  22.448  0.00  0.00    -0.461 OA
BRANCH  14  15
ATOM     15  C   UNL     1       8.818   1.032  22.830  0.00  0.00    +0.131 A 
ATOM     16  C   UNL     1       7.671   1.747  23.261  0.00  0.00    +0.093 A 
ATOM     17  C   UNL     1       7.745   3.116  23.622  0.00  0.00    +0.147 A 
ATOM     18  O   UNL     1       6.599   3.747  24.077  0.00  0.00    -0.451 OA
ATOM     19  C   UNL     1       6.708   5.048  24.575  0.00  0.00    +0.181 A 
ATOM     20  C   UNL     1       7.813   5.810  24.477  0.00  0.00    +0.208 A 
ATOM     21  C   UNL     1       8.996   5.237  23.774  0.00  0.00    +0.238 A 
ATOM     22  O   UNL     1       9.913   5.955  23.398  0.00  0.00    -0.283 OA
ATOM     23  C   UNL     1       8.961   3.782  23.522  0.00  0.00    +0.109 A 
ATOM     24  C   UNL     1      10.105   3.062  23.149  0.00  0.00    +0.135 A 
ATOM     25  C   UNL     1      10.036   1.700  22.816  0.00  0.00    +0.092 A 
BRANCH  19  26
ATOM     26  C   UNL     1       5.476   5.574  25.212  0.00  0.00    +0.025 A 
ATOM     27  C   UNL     1       4.554   6.323  24.456  0.00  0.00    +0.015 A 
ATOM     28  C   UNL     1       3.356   6.773  25.025  0.00  0.00    +0.050 A 
ATOM     29  C   UNL     1       3.072   6.466  26.346  0.00  0.00    +0.158 A 
ATOM     30  C   UNL     1       3.958   5.704  27.101  0.00  0.00    +0.159 A 
ATOM     31  C   UNL     1       5.158   5.252  26.545  0.00  0.00    +0.060 A 
BRANCH  30  32
ATOM     32  O   UNL     1       3.595   5.417  28.389  0.00  0.00    -0.503 OA
ATOM     33  H   UNL     1       3.331   4.482  28.438  0.00  0.00    +0.292 HD
ENDBRANCH  30  32
BRANCH  29  34
ATOM     34  O   UNL     1       1.906   6.914  26.899  0.00  0.00    -0.503 OA
ATOM     35  H   UNL     1       1.714   6.287  27.625  0.00  0.00    +0.292 HD
ENDBRANCH  29  34
ENDBRANCH  19  26
BRANCH  24  36
ATOM     36  O   UNL     1      11.328   3.665  23.137  0.00  0.00    -0.506 OA
ATOM     37  H   UNL     1      11.330   4.429  23.733  0.00  0.00    +0.292 HD
ENDBRANCH  24  36
BRANCH  20  38
ATOM     38  O   UNL     1       7.931   7.107  24.963  0.00  0.00    -0.501 OA
ATOM     39  H   UNL     1       7.242   7.278  25.624  0.00  0.00    +0.292 HD
ENDBRANCH  20  38
ENDBRANCH  14  15
ENDBRANCH   4  14
ENDBRANCH   1   2
BRANCH   1  40
ATOM     40  O   UNL     1       5.151  -1.388  25.389  0.00  0.00    -0.346 OA
BRANCH  40  44
ATOM     41  C   UNL     1       4.110   1.334  28.760  0.00  0.00    +0.041 C 
ATOM     42  C   UNL     1       4.495  -0.131  28.788  0.00  0.00    +0.149 C 
ATOM     43  O   UNL     1       5.144  -0.638  27.608  0.00  0.00    -0.343 OA
ATOM     44  C   UNL     1       4.322  -0.942  26.468  0.00  0.00    +0.282 C 
ATOM     45  C   UNL     1       3.117  -1.963  26.797  0.00  0.00    +0.208 C 
ATOM     46  C   UNL     1       2.387  -1.173  27.896  0.00  0.00    +0.179 C 
ATOM     47  C   UNL     1       3.329  -1.029  29.150  0.00  0.00    +0.174 C 
BRANCH  47  48
ATOM     48  O   UNL     1       4.055  -2.222  29.560  0.00  0.00    -0.387 OA
ATOM     49  H   UNL     1       4.969  -1.925  29.769  0.00  0.00    +0.210 HD
ENDBRANCH  47  48
BRANCH  46  50
ATOM     50  O   UNL     1       1.061  -1.615  28.165  0.00  0.00    -0.386 OA
ATOM     51  H   UNL     1       0.895  -2.469  27.727  0.00  0.00    +0.210 HD
ENDBRANCH  46  50
BRANCH  45  52
ATOM     52  O   UNL     1       3.537  -3.280  27.297  0.00  0.00    -0.338 OA
BRANCH  52  53
ATOM     53  C   UNL     1       2.903  -4.478  26.736  0.00  0.00    +0.283 C 
ATOM     54  O   UNL     1       1.899  -5.114  27.583  0.00  0.00    -0.343 OA
ATOM     55  C   UNL     1       2.423  -5.533  28.853  0.00  0.00    +0.149 C 
ATOM     56  C   UNL     1       1.392  -5.977  29.892  0.00  0.00    +0.041 C 
ATOM     57  C   UNL     1       3.736  -6.316  28.860  0.00  0.00    +0.174 C 
ATOM     58  C   UNL     1       4.697  -5.954  27.711  0.00  0.00    +0.179 C 
ATOM     59  C   UNL     1       3.938  -5.613  26.405  0.00  0.00    +0.208 C 
BRANCH  58  60
ATOM     60  O   UNL     1       5.556  -7.094  27.550  0.00  0.00    -0.386 OA
ATOM     61  H   UNL     1       5.505  -7.610  28.375  0.00  0.00    +0.210 HD
ENDBRANCH  58  60
BRANCH  57  62
ATOM     62  O   UNL     1       4.424  -6.096  30.115  0.00  0.00    -0.387 OA
ATOM     63  H   UNL     1       5.320  -6.487  30.029  0.00  0.00    +0.210 HD
ENDBRANCH  57  62
BRANCH  59  64
ATOM     64  O   UNL     1       4.759  -5.284  25.249  0.00  0.00    -0.338 OA
BRANCH  64  65
ATOM     65  C   UNL     1       4.591  -6.149  24.097  0.00  0.00    +0.282 C 
ATOM     66  O   UNL     1       5.854  -6.722  23.704  0.00  0.00    -0.346 OA
ATOM     67  C   UNL     1       6.718  -5.958  22.857  0.00  0.00    +0.197 C 
ATOM     68  C   UNL     1       6.018  -5.268  21.685  0.00  0.00    +0.171 C 
ATOM     69  C   UNL     1       4.807  -4.529  22.206  0.00  0.00    +0.178 C 
ATOM     70  C   UNL     1       3.860  -5.504  22.886  0.00  0.00    +0.201 C 
BRANCH  70  71
ATOM     71  O   UNL     1       2.622  -4.855  23.158  0.00  0.00    -0.384 OA
ATOM     72  H   UNL     1       2.759  -3.901  23.007  0.00  0.00    +0.210 HD
ENDBRANCH  70  71
BRANCH  69  73
ATOM     73  O   UNL     1       5.164  -3.446  23.095  0.00  0.00    -0.386 OA
ATOM     74  H   UNL     1       4.399  -2.830  23.140  0.00  0.00    +0.210 HD
ENDBRANCH  69  73
BRANCH  68  75
ATOM     75  O   UNL     1       5.615  -6.251  20.718  0.00  0.00    -0.387 OA
ATOM     76  H   UNL     1       5.541  -5.828  19.845  0.00  0.00    +0.210 HD
ENDBRANCH  68  75
ENDBRANCH  64  65
ENDBRANCH  59  64
ENDBRANCH  52  53
ENDBRANCH  45  52
ENDBRANCH  40  44
ENDBRANCH   1  40
TORSDOF 24
ENDMDL
MODEL 9
REMARK VINA RESULT:      -6.0      1.859      7.325
REMARK  Name = 
REMARK  26 active torsions:
REMARK  status: ('A' for Active; 'I' for Inactive)
REMARK    1  A    between atoms: C_1  and  C_2
REMARK    2  A    between atoms: C_3  and  O_74
REMARK    3  A    between atoms: C_5  and  O_73
REMARK    4  A    between atoms: C_6  and  O_47
REMARK    5  A    between atoms: C_8  and  O_11
REMARK    6  A    between atoms: O_11  and  C_12
REMARK    7  A    between atoms: C_12  and  C_13
REMARK    8  A    between atoms: C_14  and  O_46
REMARK    9  A    between atoms: C_16  and  O_45
REMARK   10  A    between atoms: C_18  and  O_44
REMARK   11  A    between atoms: C_19  and  O_22
REMARK   12  A    between atoms: O_22  and  C_23
REMARK   13  A    between atoms: C_25  and  O_43
REMARK   14  A    between atoms: C_30  and  C_35
REMARK   15  A    between atoms: C_31  and  O_34
REMARK   16  A    between atoms: C_37  and  O_42
REMARK   17  A    between atoms: C_38  and  O_41
REMARK   18  A    between atoms: O_47  and  C_48
REMARK   19  A    between atoms: C_50  and  O_60
REMARK   20  A    between atoms: C_52  and  O_59
REMARK   21  A    between atoms: C_53  and  O_58
REMARK   22  A    between atoms: C_55  and  C_57
REMARK   23  A    between atoms: O_60  and  C_61
REMARK   24  A    between atoms: C_63  and  O_72
REMARK   25  A    between atoms: C_64  and  O_71
REMARK   26  A    between atoms: C_66  and  O_70
REMARK                            x       y       z     vdW  Elec       q    Type
REMARK                         _______ _______ _______ _____ _____    ______ ____
ROOT
ATOM      1  C   UNL     1       6.188  -1.879  22.382  0.00  0.00    +0.197 C 
ENDROOT
BRANCH   1   2
ATOM      2  C   UNL     1       5.480  -3.117  23.020  0.00  0.00    +0.179 C 
ATOM      3  O   UNL     1       5.662  -3.227  24.459  0.00  0.00    -0.331 OA
ATOM      4  C   UNL     1       6.937  -3.711  24.942  0.00  0.00    +0.339 C 
ATOM      5  C   UNL     1       7.368  -5.013  24.190  0.00  0.00    +0.214 C 
ATOM      6  C   UNL     1       7.248  -4.820  22.669  0.00  0.00    +0.180 C 
ATOM      7  C   UNL     1       5.803  -4.453  22.332  0.00  0.00    +0.177 C 
BRANCH   6   8
ATOM      8  O   UNL     1       7.626  -5.988  21.934  0.00  0.00    -0.386 OA
ATOM      9  H   UNL     1       7.015  -6.690  22.246  0.00  0.00    +0.210 HD
ENDBRANCH   6   8
BRANCH   7  10
ATOM     10  O   UNL     1       5.624  -4.455  20.916  0.00  0.00    -0.386 OA
ATOM     11  H   UNL     1       4.696  -4.710  20.749  0.00  0.00    +0.210 HD
ENDBRANCH   7  10
BRANCH   5  12
ATOM     12  O   UNL     1       6.547  -6.134  24.591  0.00  0.00    -0.383 OA
ATOM     13  H   UNL     1       6.926  -6.510  25.404  0.00  0.00    +0.210 HD
ENDBRANCH   5  12
BRANCH   4  14
ATOM     14  O   UNL     1       6.905  -4.050  26.367  0.00  0.00    -0.461 OA
BRANCH  14  15
ATOM     15  C   UNL     1       5.743  -4.022  27.098  0.00  0.00    +0.131 A 
ATOM     16  C   UNL     1       5.211  -2.750  27.430  0.00  0.00    +0.093 A 
ATOM     17  C   UNL     1       4.046  -2.620  28.228  0.00  0.00    +0.147 A 
ATOM     18  O   UNL     1       3.550  -1.353  28.481  0.00  0.00    -0.451 OA
ATOM     19  C   UNL     1       2.321  -1.237  29.137  0.00  0.00    +0.181 A 
ATOM     20  C   UNL     1       1.665  -2.262  29.709  0.00  0.00    +0.208 A 
ATOM     21  C   UNL     1       2.297  -3.611  29.659  0.00  0.00    +0.238 A 
ATOM     22  O   UNL     1       1.913  -4.514  30.391  0.00  0.00    -0.283 OA
ATOM     23  C   UNL     1       3.429  -3.765  28.722  0.00  0.00    +0.109 A 
ATOM     24  C   UNL     1       3.923  -5.022  28.349  0.00  0.00    +0.135 A 
ATOM     25  C   UNL     1       5.062  -5.150  27.537  0.00  0.00    +0.092 A 
BRANCH  19  26
ATOM     26  C   UNL     1       1.779   0.142  29.197  0.00  0.00    +0.025 A 
ATOM     27  C   UNL     1       1.794   0.855  30.411  0.00  0.00    +0.015 A 
ATOM     28  C   UNL     1       1.344   2.180  30.472  0.00  0.00    +0.050 A 
ATOM     29  C   UNL     1       0.888   2.798  29.319  0.00  0.00    +0.158 A 
ATOM     30  C   UNL     1       0.890   2.119  28.105  0.00  0.00    +0.159 A 
ATOM     31  C   UNL     1       1.335   0.796  28.032  0.00  0.00    +0.060 A 
BRANCH  30  32
ATOM     32  O   UNL     1       0.454   2.806  27.004  0.00  0.00    -0.503 OA
ATOM     33  H   UNL     1      -0.520   2.808  27.004  0.00  0.00    +0.292 HD
ENDBRANCH  30  32
BRANCH  29  34
ATOM     34  O   UNL     1       0.443   4.088  29.385  0.00  0.00    -0.503 OA
ATOM     35  H   UNL     1       1.227   4.636  29.183  0.00  0.00    +0.292 HD
ENDBRANCH  29  34
ENDBRANCH  19  26
BRANCH  24  36
ATOM     36  O   UNL     1       3.281  -6.161  28.737  0.00  0.00    -0.506 OA
ATOM     37  H   UNL     1       2.331  -6.087  28.556  0.00  0.00    +0.292 HD
ENDBRANCH  24  36
BRANCH  20  38
ATOM     38  O   UNL     1       0.446  -2.158  30.368  0.00  0.00    -0.501 OA
ATOM     39  H   UNL     1      -0.034  -2.999  30.314  0.00  0.00    +0.292 HD
ENDBRANCH  20  38
ENDBRANCH  14  15
ENDBRANCH   4  14
ENDBRANCH   1   2
BRANCH   1  40
ATOM     40  O   UNL     1       6.675  -0.871  23.295  0.00  0.00    -0.346 OA
BRANCH  40  44
ATOM     41  C   UNL     1      11.004  -1.522  22.458  0.00  0.00    +0.041 C 
ATOM     42  C   UNL     1      10.338  -0.934  23.685  0.00  0.00    +0.149 C 
ATOM     43  O   UNL     1       8.931  -1.203  23.832  0.00  0.00    -0.343 OA
ATOM     44  C   UNL     1       8.014  -0.429  23.042  0.00  0.00    +0.282 C 
ATOM     45  C   UNL     1       8.192   1.165  23.223  0.00  0.00    +0.208 C 
ATOM     46  C   UNL     1       9.662   1.321  22.800  0.00  0.00    +0.179 C 
ATOM     47  C   UNL     1      10.585   0.555  23.821  0.00  0.00    +0.174 C 
BRANCH  47  48
ATOM     48  O   UNL     1      10.279   0.729  25.232  0.00  0.00    -0.387 OA
ATOM     49  H   UNL     1       9.318   0.536  25.328  0.00  0.00    +0.210 HD
ENDBRANCH  47  48
BRANCH  46  50
ATOM     50  O   UNL     1      10.053   2.655  22.490  0.00  0.00    -0.386 OA
ATOM     51  H   UNL     1       9.798   3.256  23.211  0.00  0.00    +0.210 HD
ENDBRANCH  46  50
BRANCH  45  52
ATOM     52  O   UNL     1       7.991   1.661  24.592  0.00  0.00    -0.338 OA
BRANCH  52  53
ATOM     53  C   UNL     1       6.854   2.549  24.857  0.00  0.00    +0.283 C 
ATOM     54  O   UNL     1       6.359   3.298  23.708  0.00  0.00    -0.343 OA
ATOM     55  C   UNL     1       7.359   4.144  23.118  0.00  0.00    +0.149 C 
ATOM     56  C   UNL     1       7.001   4.769  21.768  0.00  0.00    +0.041 C 
ATOM     57  C   UNL     1       8.182   5.033  24.052  0.00  0.00    +0.174 C 
ATOM     58  C   UNL     1       8.401   4.444  25.459  0.00  0.00    +0.179 C 
ATOM     59  C   UNL     1       7.175   3.635  25.947  0.00  0.00    +0.208 C 
BRANCH  58  60
ATOM     60  O   UNL     1       8.677   5.568  26.310  0.00  0.00    -0.386 OA
ATOM     61  H   UNL     1       8.283   6.352  25.887  0.00  0.00    +0.210 HD
ENDBRANCH  58  60
BRANCH  57  62
ATOM     62  O   UNL     1       9.478   5.289  23.458  0.00  0.00    -0.387 OA
ATOM     63  H   UNL     1       9.321   5.608  22.542  0.00  0.00    +0.210 HD
ENDBRANCH  57  62
BRANCH  59  64
ATOM     64  O   UNL     1       7.271   3.059  27.280  0.00  0.00    -0.338 OA
BRANCH  64  65
ATOM     65  C   UNL     1       6.360   1.966  27.555  0.00  0.00    +0.282 C 
ATOM     66  O   UNL     1       5.212   2.434  28.291  0.00  0.00    -0.346 OA
ATOM     67  C   UNL     1       5.312   2.553  29.713  0.00  0.00    +0.197 C 
ATOM     68  C   UNL     1       5.987   1.369  30.407  0.00  0.00    +0.171 C 
ATOM     69  C   UNL     1       7.282   1.057  29.694  0.00  0.00    +0.178 C 
ATOM     70  C   UNL     1       7.002   0.725  28.238  0.00  0.00    +0.201 C 
BRANCH  70  71
ATOM     71  O   UNL     1       8.179   0.200  27.633  0.00  0.00    -0.384 OA
ATOM     72  H   UNL     1       7.936  -0.086  26.732  0.00  0.00    +0.210 HD
ENDBRANCH  70  71
BRANCH  69  73
ATOM     73  O   UNL     1       8.244   2.132  29.805  0.00  0.00    -0.386 OA
ATOM     74  H   UNL     1       7.745   2.969  29.936  0.00  0.00    +0.210 HD
ENDBRANCH  69  73
BRANCH  68  75
ATOM     75  O   UNL     1       5.117   0.227  30.368  0.00  0.00    -0.387 OA
ATOM     76  H   UNL     1       5.161  -0.237  31.222  0.00  0.00    +0.210 HD
ENDBRANCH  68  75
ENDBRANCH  64  65
ENDBRANCH  59  64
ENDBRANCH  52  53
ENDBRANCH  45  52
ENDBRANCH  40  44
ENDBRANCH   1  40
TORSDOF 24
ENDMDL
