MODEL 1
REMARK VINA RESULT:      -7.5      0.000      0.000
REMARK  Name = 
REMARK  19 active torsions:
REMARK  status: ('A' for Active; 'I' for Inactive)
REMARK    1  A    between atoms: C_1  and  O_2
REMARK    2  A    between atoms: O_2  and  C_3
REMARK    3  A    between atoms: C_5  and  O_51
REMARK    4  A    between atoms: C_10  and  C_43
REMARK    5  A    between atoms: C_11  and  O_14
REMARK    6  A    between atoms: O_14  and  C_15
REMARK    7  A    between atoms: C_17  and  O_42
REMARK    8  A    between atoms: C_18  and  O_27
REMARK    9  A    between atoms: C_20  and  O_26
REMARK   10  A    between atoms: C_22  and  C_24
REMARK   11  A    between atoms: C_24  and  O_25
REMARK   12  A    between atoms: O_27  and  C_28
REMARK   13  A    between atoms: C_30  and  O_41
REMARK   14  A    between atoms: C_31  and  O_40
REMARK   15  A    between atoms: C_33  and  O_39
REMARK   16  A    between atoms: C_35  and  C_37
REMARK   17  A    between atoms: C_37  and  O_38
REMARK   18  A    between atoms: C_45  and  O_50
REMARK   19  A    between atoms: C_46  and  O_49
REMARK                            x       y       z     vdW  Elec       q    Type
REMARK                         _______ _______ _______ _____ _____    ______ ____
ROOT
ATOM      1  C   UNL     1       6.072  -2.158  23.003  0.00  0.00    +0.340 C 
ATOM      2  O   UNL     1       4.912  -2.995  22.930  0.00  0.00    -0.331 OA
ATOM      3  C   UNL     1       5.091  -4.389  23.210  0.00  0.00    +0.179 C 
ATOM      4  C   UNL     1       6.222  -5.016  22.369  0.00  0.00    +0.177 C 
ATOM      5  C   UNL     1       7.511  -4.192  22.501  0.00  0.00    +0.187 C 
ATOM      6  C   UNL     1       7.199  -2.731  22.124  0.00  0.00    +0.214 C 
ENDROOT
BRANCH   6   7
ATOM      7  O   UNL     1       8.401  -1.946  22.210  0.00  0.00    -0.383 OA
ATOM      8  H   UNL     1       9.091  -2.504  21.809  0.00  0.00    +0.210 HD
ENDBRANCH   6   7
BRANCH   4   9
ATOM      9  O   UNL     1       5.872  -5.049  20.975  0.00  0.00    -0.386 OA
ATOM     10  H   UNL     1       6.469  -5.688  20.541  0.00  0.00    +0.210 HD
ENDBRANCH   4   9
BRANCH   5  11
ATOM     11  O   UNL     1       8.150  -4.220  23.795  0.00  0.00    -0.340 OA
BRANCH  11  12
ATOM     12  C   UNL     1       8.256  -5.490  24.454  0.00  0.00    +0.282 C 
ATOM     13  O   UNL     1       6.970  -5.856  24.990  0.00  0.00    -0.341 OA
ATOM     14  C   UNL     1       6.514  -5.007  26.069  0.00  0.00    +0.178 C 
ATOM     15  C   UNL     1       7.536  -4.877  27.219  0.00  0.00    +0.177 C 
ATOM     16  C   UNL     1       8.935  -4.558  26.695  0.00  0.00    +0.179 C 
ATOM     17  C   UNL     1       9.309  -5.548  25.581  0.00  0.00    +0.201 C 
BRANCH  17  18
ATOM     18  O   UNL     1      10.644  -5.321  25.111  0.00  0.00    -0.384 OA
ATOM     19  H   UNL     1      11.215  -5.264  25.904  0.00  0.00    +0.210 HD
ENDBRANCH  17  18
BRANCH  16  20
ATOM     20  O   UNL     1       9.053  -3.202  26.264  0.00  0.00    -0.386 OA
ATOM     21  H   UNL     1       8.182  -2.878  25.956  0.00  0.00    +0.210 HD
ENDBRANCH  16  20
BRANCH  15  22
ATOM     22  O   UNL     1       7.603  -6.110  27.951  0.00  0.00    -0.386 OA
ATOM     23  H   UNL     1       7.825  -5.896  28.875  0.00  0.00    +0.210 HD
ENDBRANCH  15  22
BRANCH  14  24
ATOM     24  C   UNL     1       5.199  -5.602  26.607  0.00  0.00    +0.190 C 
BRANCH  24  25
ATOM     25  O   UNL     1       5.252  -7.027  26.608  0.00  0.00    -0.392 OA
ATOM     26  H   UNL     1       4.330  -7.325  26.654  0.00  0.00    +0.210 HD
ENDBRANCH  24  25
ENDBRANCH  14  24
ENDBRANCH  11  12
ENDBRANCH   5  11
BRANCH   3  27
ATOM     27  C   UNL     1       3.727  -5.078  22.957  0.00  0.00    +0.190 C 
BRANCH  27  28
ATOM     28  O   UNL     1       3.828  -6.466  22.632  0.00  0.00    -0.392 OA
ATOM     29  H   UNL     1       3.028  -6.895  22.993  0.00  0.00    +0.210 HD
ENDBRANCH  27  28
ENDBRANCH   3  27
BRANCH   1  30
ATOM     30  O   UNL     1       6.595  -1.936  24.328  0.00  0.00    -0.453 OA
BRANCH  30  36
ATOM     31  C   UNL     1       4.061   1.584  29.046  0.00  0.00    +0.127 A 
ATOM     32  C   UNL     1       4.908   1.915  27.981  0.00  0.00    +0.092 A 
ATOM     33  C   UNL     1       5.182   0.963  27.000  0.00  0.00    +0.147 A 
ATOM     34  O   UNL     1       5.975   1.339  25.943  0.00  0.00    -0.451 OA
ATOM     35  C   UNL     1       6.470   0.334  25.119  0.00  0.00    +0.181 A 
ATOM     36  C   UNL     1       6.015  -0.940  25.099  0.00  0.00    +0.214 A 
ATOM     37  C   UNL     1       4.802  -1.182  25.931  0.00  0.00    +0.238 A 
ATOM     38  O   UNL     1       3.913  -1.961  25.601  0.00  0.00    -0.283 OA
ATOM     39  C   UNL     1       4.623  -0.308  27.090  0.00  0.00    +0.109 A 
ATOM     40  C   UNL     1       3.856  -0.665  28.202  0.00  0.00    +0.135 A 
ATOM     41  C   UNL     1       3.574   0.282  29.180  0.00  0.00    +0.092 A 
BRANCH  35  42
ATOM     42  C   UNL     1       7.472   0.844  24.163  0.00  0.00    +0.025 A 
ATOM     43  C   UNL     1       7.113   1.283  22.882  0.00  0.00    +0.015 A 
ATOM     44  C   UNL     1       8.083   1.780  22.004  0.00  0.00    +0.050 A 
ATOM     45  C   UNL     1       9.406   1.856  22.414  0.00  0.00    +0.158 A 
ATOM     46  C   UNL     1       9.786   1.363  23.650  0.00  0.00    +0.159 A 
ATOM     47  C   UNL     1       8.830   0.850  24.530  0.00  0.00    +0.060 A 
BRANCH  46  48
ATOM     48  O   UNL     1      11.115   1.392  23.960  0.00  0.00    -0.503 OA
ATOM     49  H   UNL     1      11.217   1.150  24.897  0.00  0.00    +0.292 HD
ENDBRANCH  46  48
BRANCH  45  50
ATOM     50  O   UNL     1      10.330   2.425  21.582  0.00  0.00    -0.503 OA
ATOM     51  H   UNL     1      10.533   3.289  21.995  0.00  0.00    +0.292 HD
ENDBRANCH  45  50
ENDBRANCH  35  42
BRANCH  40  52
ATOM     52  O   UNL     1       3.406  -1.943  28.339  0.00  0.00    -0.506 OA
ATOM     53  H   UNL     1       3.754  -2.336  29.154  0.00  0.00    +0.292 HD
ENDBRANCH  40  52
BRANCH  31  55
ATOM     54  C   UNL     1       3.567   3.816  29.565  0.00  0.00    +0.277 C 
ATOM     55  O   UNL     1       3.674   2.466  30.018  0.00  0.00    -0.495 OA
ENDBRANCH  31  55
ENDBRANCH  30  36
ENDBRANCH   1  30
TORSDOF 18
ENDMDL
MODEL 2
REMARK VINA RESULT:      -7.3      1.574      4.721
REMARK  Name = 
REMARK  19 active torsions:
REMARK  status: ('A' for Active; 'I' for Inactive)
REMARK    1  A    between atoms: C_1  and  O_2
REMARK    2  A    between atoms: O_2  and  C_3
REMARK    3  A    between atoms: C_5  and  O_51
REMARK    4  A    between atoms: C_10  and  C_43
REMARK    5  A    between atoms: C_11  and  O_14
REMARK    6  A    between atoms: O_14  and  C_15
REMARK    7  A    between atoms: C_17  and  O_42
REMARK    8  A    between atoms: C_18  and  O_27
REMARK    9  A    between atoms: C_20  and  O_26
REMARK   10  A    between atoms: C_22  and  C_24
REMARK   11  A    between atoms: C_24  and  O_25
REMARK   12  A    between atoms: O_27  and  C_28
REMARK   13  A    between atoms: C_30  and  O_41
REMARK   14  A    between atoms: C_31  and  O_40
REMARK   15  A    between atoms: C_33  and  O_39
REMARK   16  A    between atoms: C_35  and  C_37
REMARK   17  A    between atoms: C_37  and  O_38
REMARK   18  A    between atoms: C_45  and  O_50
REMARK   19  A    between atoms: C_46  and  O_49
REMARK                            x       y       z     vdW  Elec       q    Type
REMARK                         _______ _______ _______ _____ _____    ______ ____
ROOT
ATOM      1  C   UNL     1       5.926  -2.654  22.508  0.00  0.00    +0.340 C 
ATOM      2  O   UNL     1       4.716  -3.414  22.594  0.00  0.00    -0.331 OA
ATOM      3  C   UNL     1       4.803  -4.722  23.172  0.00  0.00    +0.179 C 
ATOM      4  C   UNL     1       5.897  -5.585  22.510  0.00  0.00    +0.177 C 
ATOM      5  C   UNL     1       7.235  -4.833  22.488  0.00  0.00    +0.187 C 
ATOM      6  C   UNL     1       7.021  -3.472  21.798  0.00  0.00    +0.214 C 
ENDROOT
BRANCH   6   7
ATOM      7  O   UNL     1       8.270  -2.762  21.737  0.00  0.00    -0.383 OA
ATOM      8  H   UNL     1       8.688  -2.921  22.602  0.00  0.00    +0.210 HD
ENDBRANCH   6   7
BRANCH   4   9
ATOM      9  O   UNL     1       5.555  -5.898  21.149  0.00  0.00    -0.386 OA
ATOM     10  H   UNL     1       6.040  -5.274  20.576  0.00  0.00    +0.210 HD
ENDBRANCH   4   9
BRANCH   5  11
ATOM     11  O   UNL     1       7.862  -4.619  23.770  0.00  0.00    -0.340 OA
BRANCH  11  12
ATOM     12  C   UNL     1       8.152  -5.776  24.566  0.00  0.00    +0.282 C 
ATOM     13  O   UNL     1       6.934  -6.259  25.165  0.00  0.00    -0.341 OA
ATOM     14  C   UNL     1       6.363  -5.367  26.150  0.00  0.00    +0.178 C 
ATOM     15  C   UNL     1       7.358  -4.960  27.257  0.00  0.00    +0.177 C 
ATOM     16  C   UNL     1       8.696  -4.505  26.674  0.00  0.00    +0.179 C 
ATOM     17  C   UNL     1       9.206  -5.553  25.672  0.00  0.00    +0.201 C 
BRANCH  17  18
ATOM     18  O   UNL     1      10.493  -5.192  25.154  0.00  0.00    -0.384 OA
ATOM     19  H   UNL     1      11.073  -5.971  25.274  0.00  0.00    +0.210 HD
ENDBRANCH  17  18
BRANCH  16  20
ATOM     20  O   UNL     1       8.615  -3.205  26.089  0.00  0.00    -0.386 OA
ATOM     21  H   UNL     1       9.085  -3.201  25.230  0.00  0.00    +0.210 HD
ENDBRANCH  16  20
BRANCH  15  22
ATOM     22  O   UNL     1       7.605  -6.078  28.123  0.00  0.00    -0.386 OA
ATOM     23  H   UNL     1       7.997  -6.790  27.585  0.00  0.00    +0.210 HD
ENDBRANCH  15  22
BRANCH  14  24
ATOM     24  C   UNL     1       5.150  -6.078  26.777  0.00  0.00    +0.190 C 
BRANCH  24  25
ATOM     25  O   UNL     1       4.634  -7.070  25.891  0.00  0.00    -0.392 OA
ATOM     26  H   UNL     1       3.929  -7.522  26.383  0.00  0.00    +0.210 HD
ENDBRANCH  24  25
ENDBRANCH  14  24
ENDBRANCH  11  12
ENDBRANCH   5  11
BRANCH   3  27
ATOM     27  C   UNL     1       3.398  -5.364  23.046  0.00  0.00    +0.190 C 
BRANCH  27  28
ATOM     28  O   UNL     1       3.405  -6.792  23.106  0.00  0.00    -0.392 OA
ATOM     29  H   UNL     1       2.471  -7.072  23.166  0.00  0.00    +0.210 HD
ENDBRANCH  27  28
ENDBRANCH   3  27
BRANCH   1  30
ATOM     30  O   UNL     1       6.454  -2.182  23.765  0.00  0.00    -0.453 OA
BRANCH  30  36
ATOM     31  C   UNL     1       6.491   4.197  23.154  0.00  0.00    +0.127 A 
ATOM     32  C   UNL     1       5.969   3.353  24.141  0.00  0.00    +0.092 A 
ATOM     33  C   UNL     1       6.245   1.988  24.095  0.00  0.00    +0.147 A 
ATOM     34  O   UNL     1       5.759   1.198  25.108  0.00  0.00    -0.451 OA
ATOM     35  C   UNL     1       5.795  -0.180  24.926  0.00  0.00    +0.181 A 
ATOM     36  C   UNL     1       6.516  -0.812  23.972  0.00  0.00    +0.214 A 
ATOM     37  C   UNL     1       7.428   0.071  23.191  0.00  0.00    +0.238 A 
ATOM     38  O   UNL     1       8.531  -0.294  22.795  0.00  0.00    -0.283 OA
ATOM     39  C   UNL     1       7.026   1.472  23.065  0.00  0.00    +0.109 A 
ATOM     40  C   UNL     1       7.467   2.301  22.030  0.00  0.00    +0.135 A 
ATOM     41  C   UNL     1       7.200   3.663  22.075  0.00  0.00    +0.092 A 
BRANCH  35  42
ATOM     42  C   UNL     1       5.054  -0.898  25.981  0.00  0.00    +0.025 A 
ATOM     43  C   UNL     1       4.297  -2.044  25.701  0.00  0.00    +0.015 A 
ATOM     44  C   UNL     1       3.620  -2.716  26.726  0.00  0.00    +0.050 A 
ATOM     45  C   UNL     1       3.717  -2.254  28.030  0.00  0.00    +0.158 A 
ATOM     46  C   UNL     1       4.404  -1.086  28.311  0.00  0.00    +0.159 A 
ATOM     47  C   UNL     1       5.071  -0.398  27.295  0.00  0.00    +0.060 A 
BRANCH  46  48
ATOM     48  O   UNL     1       4.393  -0.640  29.601  0.00  0.00    -0.503 OA
ATOM     49  H   UNL     1       3.531  -0.222  29.774  0.00  0.00    +0.292 HD
ENDBRANCH  46  48
BRANCH  45  50
ATOM     50  O   UNL     1       3.126  -2.968  29.036  0.00  0.00    -0.503 OA
ATOM     51  H   UNL     1       2.167  -2.809  28.919  0.00  0.00    +0.292 HD
ENDBRANCH  45  50
ENDBRANCH  35  42
BRANCH  40  52
ATOM     52  O   UNL     1       8.135   1.769  20.968  0.00  0.00    -0.506 OA
ATOM     53  H   UNL     1       8.918   1.285  21.273  0.00  0.00    +0.292 HD
ENDBRANCH  40  52
BRANCH  31  55
ATOM     54  C   UNL     1       7.063   6.218  22.113  0.00  0.00    +0.277 C 
ATOM     55  O   UNL     1       6.339   5.557  23.151  0.00  0.00    -0.495 OA
ENDBRANCH  31  55
ENDBRANCH  30  36
ENDBRANCH   1  30
TORSDOF 18
ENDMDL
MODEL 3
REMARK VINA RESULT:      -7.1      2.316      6.064
REMARK  Name = 
REMARK  19 active torsions:
REMARK  status: ('A' for Active; 'I' for Inactive)
REMARK    1  A    between atoms: C_1  and  O_2
REMARK    2  A    between atoms: O_2  and  C_3
REMARK    3  A    between atoms: C_5  and  O_51
REMARK    4  A    between atoms: C_10  and  C_43
REMARK    5  A    between atoms: C_11  and  O_14
REMARK    6  A    between atoms: O_14  and  C_15
REMARK    7  A    between atoms: C_17  and  O_42
REMARK    8  A    between atoms: C_18  and  O_27
REMARK    9  A    between atoms: C_20  and  O_26
REMARK   10  A    between atoms: C_22  and  C_24
REMARK   11  A    between atoms: C_24  and  O_25
REMARK   12  A    between atoms: O_27  and  C_28
REMARK   13  A    between atoms: C_30  and  O_41
REMARK   14  A    between atoms: C_31  and  O_40
REMARK   15  A    between atoms: C_33  and  O_39
REMARK   16  A    between atoms: C_35  and  C_37
REMARK   17  A    between atoms: C_37  and  O_38
REMARK   18  A    between atoms: C_45  and  O_50
REMARK   19  A    between atoms: C_46  and  O_49
REMARK                            x       y       z     vdW  Elec       q    Type
REMARK                         _______ _______ _______ _____ _____    ______ ____
ROOT
ATOM      1  C   UNL     1       6.321  -2.384  26.666  0.00  0.00    +0.340 C 
ATOM      2  O   UNL     1       7.593  -3.041  26.683  0.00  0.00    -0.331 OA
ATOM      3  C   UNL     1       7.641  -4.388  26.198  0.00  0.00    +0.179 C 
ATOM      4  C   UNL     1       6.594  -5.295  26.879  0.00  0.00    +0.177 C 
ATOM      5  C   UNL     1       5.199  -4.661  26.795  0.00  0.00    +0.187 C 
ATOM      6  C   UNL     1       5.268  -3.242  27.392  0.00  0.00    +0.214 C 
ENDROOT
BRANCH   6   7
ATOM      7  O   UNL     1       3.963  -2.640  27.353  0.00  0.00    -0.383 OA
ATOM      8  H   UNL     1       3.922  -2.083  28.151  0.00  0.00    +0.210 HD
ENDBRANCH   6   7
BRANCH   4   9
ATOM      9  O   UNL     1       6.901  -5.483  28.271  0.00  0.00    -0.386 OA
ATOM     10  H   UNL     1       6.529  -4.721  28.755  0.00  0.00    +0.210 HD
ENDBRANCH   4   9
BRANCH   5  11
ATOM     11  O   UNL     1       4.613  -4.591  25.478  0.00  0.00    -0.340 OA
BRANCH  11  12
ATOM     12  C   UNL     1       3.186  -4.693  25.381  0.00  0.00    +0.282 C 
ATOM     13  O   UNL     1       2.667  -5.266  26.597  0.00  0.00    -0.341 OA
ATOM     14  C   UNL     1       3.042  -6.647  26.807  0.00  0.00    +0.178 C 
ATOM     15  C   UNL     1       2.697  -7.564  25.614  0.00  0.00    +0.177 C 
ATOM     16  C   UNL     1       3.165  -6.964  24.289  0.00  0.00    +0.179 C 
ATOM     17  C   UNL     1       2.676  -5.512  24.176  0.00  0.00    +0.201 C 
BRANCH  17  18
ATOM     18  O   UNL     1       3.039  -4.937  22.914  0.00  0.00    -0.384 OA
ATOM     19  H   UNL     1       2.881  -3.975  22.988  0.00  0.00    +0.210 HD
ENDBRANCH  17  18
BRANCH  16  20
ATOM     20  O   UNL     1       4.580  -7.062  24.123  0.00  0.00    -0.386 OA
ATOM     21  H   UNL     1       4.952  -7.647  24.814  0.00  0.00    +0.210 HD
ENDBRANCH  16  20
BRANCH  15  22
ATOM     22  O   UNL     1       1.276  -7.753  25.542  0.00  0.00    -0.386 OA
ATOM     23  H   UNL     1       0.934  -7.173  24.838  0.00  0.00    +0.210 HD
ENDBRANCH  15  22
BRANCH  14  24
ATOM     24  C   UNL     1       2.313  -7.142  28.070  0.00  0.00    +0.190 C 
BRANCH  24  25
ATOM     25  O   UNL     1       0.990  -6.611  28.130  0.00  0.00    -0.392 OA
ATOM     26  H   UNL     1       0.617  -6.927  28.968  0.00  0.00    +0.210 HD
ENDBRANCH  24  25
ENDBRANCH  14  24
ENDBRANCH  11  12
ENDBRANCH   5  11
BRANCH   3  27
ATOM     27  C   UNL     1       9.087  -4.898  26.424  0.00  0.00    +0.190 C 
BRANCH  27  28
ATOM     28  O   UNL     1       9.443  -6.017  25.610  0.00  0.00    -0.392 OA
ATOM     29  H   UNL     1       8.644  -6.255  25.101  0.00  0.00    +0.210 HD
ENDBRANCH  27  28
ENDBRANCH   3  27
BRANCH   1  30
ATOM     30  O   UNL     1       5.812  -2.047  25.360  0.00  0.00    -0.453 OA
BRANCH  30  36
ATOM     31  C   UNL     1       9.966   2.278  23.100  0.00  0.00    +0.127 A 
ATOM     32  C   UNL     1       9.507   1.060  22.584  0.00  0.00    +0.092 A 
ATOM     33  C   UNL     1       8.470   0.388  23.227  0.00  0.00    +0.147 A 
ATOM     34  O   UNL     1       8.011  -0.778  22.664  0.00  0.00    -0.451 OA
ATOM     35  C   UNL     1       7.179  -1.583  23.434  0.00  0.00    +0.181 A 
ATOM     36  C   UNL     1       6.561  -1.188  24.571  0.00  0.00    +0.214 A 
ATOM     37  C   UNL     1       6.701   0.263  24.885  0.00  0.00    +0.238 A 
ATOM     38  O   UNL     1       5.804   0.921  25.403  0.00  0.00    -0.283 OA
ATOM     39  C   UNL     1       7.905   0.924  24.380  0.00  0.00    +0.109 A 
ATOM     40  C   UNL     1       8.427   2.091  24.945  0.00  0.00    +0.135 A 
ATOM     41  C   UNL     1       9.457   2.768  24.305  0.00  0.00    +0.092 A 
BRANCH  35  42
ATOM     42  C   UNL     1       6.936  -2.894  22.802  0.00  0.00    +0.025 A 
ATOM     43  C   UNL     1       5.888  -3.091  21.893  0.00  0.00    +0.015 A 
ATOM     44  C   UNL     1       5.693  -4.342  21.295  0.00  0.00    +0.050 A 
ATOM     45  C   UNL     1       6.557  -5.386  21.589  0.00  0.00    +0.158 A 
ATOM     46  C   UNL     1       7.554  -5.225  22.535  0.00  0.00    +0.159 A 
ATOM     47  C   UNL     1       7.749  -3.987  23.152  0.00  0.00    +0.060 A 
BRANCH  46  48
ATOM     48  O   UNL     1       8.318  -6.315  22.840  0.00  0.00    -0.503 OA
ATOM     49  H   UNL     1       8.668  -6.686  22.012  0.00  0.00    +0.292 HD
ENDBRANCH  46  48
BRANCH  45  50
ATOM     50  O   UNL     1       6.412  -6.576  20.932  0.00  0.00    -0.503 OA
ATOM     51  H   UNL     1       7.082  -6.546  20.219  0.00  0.00    +0.292 HD
ENDBRANCH  45  50
ENDBRANCH  35  42
BRANCH  40  52
ATOM     52  O   UNL     1       7.943   2.548  26.134  0.00  0.00    -0.506 OA
ATOM     53  H   UNL     1       7.266   1.943  26.476  0.00  0.00    +0.292 HD
ENDBRANCH  40  52
BRANCH  31  55
ATOM     54  C   UNL     1      11.482   4.046  23.360  0.00  0.00    +0.277 C 
ATOM     55  O   UNL     1      10.927   3.049  22.504  0.00  0.00    -0.495 OA
ENDBRANCH  31  55
ENDBRANCH  30  36
ENDBRANCH   1  30
TORSDOF 18
ENDMDL
MODEL 4
REMARK VINA RESULT:      -7.0      3.612      8.423
REMARK  Name = 
REMARK  19 active torsions:
REMARK  status: ('A' for Active; 'I' for Inactive)
REMARK    1  A    between atoms: C_1  and  O_2
REMARK    2  A    between atoms: O_2  and  C_3
REMARK    3  A    between atoms: C_5  and  O_51
REMARK    4  A    between atoms: C_10  and  C_43
REMARK    5  A    between atoms: C_11  and  O_14
REMARK    6  A    between atoms: O_14  and  C_15
REMARK    7  A    between atoms: C_17  and  O_42
REMARK    8  A    between atoms: C_18  and  O_27
REMARK    9  A    between atoms: C_20  and  O_26
REMARK   10  A    between atoms: C_22  and  C_24
REMARK   11  A    between atoms: C_24  and  O_25
REMARK   12  A    between atoms: O_27  and  C_28
REMARK   13  A    between atoms: C_30  and  O_41
REMARK   14  A    between atoms: C_31  and  O_40
REMARK   15  A    between atoms: C_33  and  O_39
REMARK   16  A    between atoms: C_35  and  C_37
REMARK   17  A    between atoms: C_37  and  O_38
REMARK   18  A    between atoms: C_45  and  O_50
REMARK   19  A    between atoms: C_46  and  O_49
REMARK                            x       y       z     vdW  Elec       q    Type
REMARK                         _______ _______ _______ _____ _____    ______ ____
ROOT
ATOM      1  C   UNL     1       5.522   3.395  22.844  0.00  0.00    +0.340 C 
ATOM      2  O   UNL     1       6.342   4.525  22.527  0.00  0.00    -0.331 OA
ATOM      3  C   UNL     1       5.979   5.782  23.111  0.00  0.00    +0.179 C 
ATOM      4  C   UNL     1       4.499   6.142  22.858  0.00  0.00    +0.177 C 
ATOM      5  C   UNL     1       3.585   4.982  23.278  0.00  0.00    +0.187 C 
ATOM      6  C   UNL     1       4.044   3.707  22.546  0.00  0.00    +0.214 C 
ENDROOT
BRANCH   6   7
ATOM      7  O   UNL     1       3.180   2.612  22.899  0.00  0.00    -0.383 OA
ATOM      8  H   UNL     1       3.255   2.540  23.868  0.00  0.00    +0.210 HD
ENDBRANCH   6   7
BRANCH   4   9
ATOM      9  O   UNL     1       4.261   6.397  21.464  0.00  0.00    -0.386 OA
ATOM     10  H   UNL     1       4.506   7.326  21.293  0.00  0.00    +0.210 HD
ENDBRANCH   4   9
BRANCH   5  11
ATOM     11  O   UNL     1       3.513   4.713  24.694  0.00  0.00    -0.340 OA
BRANCH  11  12
ATOM     12  C   UNL     1       2.290   5.042  25.369  0.00  0.00    +0.282 C 
ATOM     13  O   UNL     1       2.595   5.571  26.673  0.00  0.00    -0.341 OA
ATOM     14  C   UNL     1       3.177   4.608  27.583  0.00  0.00    +0.178 C 
ATOM     15  C   UNL     1       2.339   3.320  27.729  0.00  0.00    +0.177 C 
ATOM     16  C   UNL     1       1.930   2.757  26.369  0.00  0.00    +0.179 C 
ATOM     17  C   UNL     1       1.298   3.869  25.517  0.00  0.00    +0.201 C 
BRANCH  17  18
ATOM     18  O   UNL     1       0.840   3.361  24.257  0.00  0.00    -0.384 OA
ATOM     19  H   UNL     1       0.611   4.138  23.708  0.00  0.00    +0.210 HD
ENDBRANCH  17  18
BRANCH  16  20
ATOM     20  O   UNL     1       3.020   2.125  25.697  0.00  0.00    -0.386 OA
ATOM     21  H   UNL     1       2.677   1.558  24.976  0.00  0.00    +0.210 HD
ENDBRANCH  16  20
BRANCH  15  22
ATOM     22  O   UNL     1       1.145   3.600  28.475  0.00  0.00    -0.386 OA
ATOM     23  H   UNL     1       0.653   4.294  28.000  0.00  0.00    +0.210 HD
ENDBRANCH  15  22
BRANCH  14  24
ATOM     24  C   UNL     1       3.325   5.291  28.955  0.00  0.00    +0.190 C 
BRANCH  24  25
ATOM     25  O   UNL     1       3.486   4.320  29.987  0.00  0.00    -0.392 OA
ATOM     26  H   UNL     1       2.601   4.186  30.363  0.00  0.00    +0.210 HD
ENDBRANCH  24  25
ENDBRANCH  14  24
ENDBRANCH  11  12
ENDBRANCH   5  11
BRANCH   3  27
ATOM     27  C   UNL     1       6.944   6.845  22.529  0.00  0.00    +0.190 C 
BRANCH  27  28
ATOM     28  O   UNL     1       7.165   6.721  21.122  0.00  0.00    -0.392 OA
ATOM     29  H   UNL     1       8.132   6.759  20.989  0.00  0.00    +0.210 HD
ENDBRANCH  27  28
ENDBRANCH   3  27
BRANCH   1  30
ATOM     30  O   UNL     1       5.622   2.916  24.201  0.00  0.00    -0.453 OA
BRANCH  30  36
ATOM     31  C   UNL     1       8.984  -2.540  24.175  0.00  0.00    +0.127 A 
ATOM     32  C   UNL     1       9.356  -1.210  24.411  0.00  0.00    +0.092 A 
ATOM     33  C   UNL     1       8.372  -0.228  24.505  0.00  0.00    +0.147 A 
ATOM     34  O   UNL     1       8.770   1.056  24.789  0.00  0.00    -0.451 OA
ATOM     35  C   UNL     1       7.838   2.074  24.614  0.00  0.00    +0.181 A 
ATOM     36  C   UNL     1       6.507   1.882  24.463  0.00  0.00    +0.214 A 
ATOM     37  C   UNL     1       6.054   0.475  24.656  0.00  0.00    +0.238 A 
ATOM     38  O   UNL     1       4.981   0.187  25.178  0.00  0.00    -0.283 OA
ATOM     39  C   UNL     1       7.032  -0.570  24.354  0.00  0.00    +0.109 A 
ATOM     40  C   UNL     1       6.670  -1.879  24.025  0.00  0.00    +0.135 A 
ATOM     41  C   UNL     1       7.646  -2.864  23.936  0.00  0.00    +0.092 A 
BRANCH  35  42
ATOM     42  C   UNL     1       8.447   3.411  24.742  0.00  0.00    +0.025 A 
ATOM     43  C   UNL     1       8.045   4.313  25.736  0.00  0.00    +0.015 A 
ATOM     44  C   UNL     1       8.656   5.569  25.845  0.00  0.00    +0.050 A 
ATOM     45  C   UNL     1       9.679   5.912  24.974  0.00  0.00    +0.158 A 
ATOM     46  C   UNL     1      10.039   5.060  23.945  0.00  0.00    +0.159 A 
ATOM     47  C   UNL     1       9.428   3.810  23.816  0.00  0.00    +0.060 A 
BRANCH  46  48
ATOM     48  O   UNL     1      10.997   5.491  23.072  0.00  0.00    -0.503 OA
ATOM     49  H   UNL     1      10.647   5.410  22.168  0.00  0.00    +0.292 HD
ENDBRANCH  46  48
BRANCH  45  50
ATOM     50  O   UNL     1      10.328   7.103  25.145  0.00  0.00    -0.503 OA
ATOM     51  H   UNL     1      10.016   7.431  26.012  0.00  0.00    +0.292 HD
ENDBRANCH  45  50
ENDBRANCH  35  42
BRANCH  40  52
ATOM     52  O   UNL     1       5.367  -2.184  23.768  0.00  0.00    -0.506 OA
ATOM     53  H   UNL     1       5.253  -2.405  22.831  0.00  0.00    +0.292 HD
ENDBRANCH  40  52
BRANCH  31  55
ATOM     54  C   UNL     1       9.617  -4.587  25.124  0.00  0.00    +0.277 C 
ATOM     55  O   UNL     1       9.865  -3.586  24.137  0.00  0.00    -0.495 OA
ENDBRANCH  31  55
ENDBRANCH  30  36
ENDBRANCH   1  30
TORSDOF 18
ENDMDL
MODEL 5
REMARK VINA RESULT:      -6.7      3.453      9.078
REMARK  Name = 
REMARK  19 active torsions:
REMARK  status: ('A' for Active; 'I' for Inactive)
REMARK    1  A    between atoms: C_1  and  O_2
REMARK    2  A    between atoms: O_2  and  C_3
REMARK    3  A    between atoms: C_5  and  O_51
REMARK    4  A    between atoms: C_10  and  C_43
REMARK    5  A    between atoms: C_11  and  O_14
REMARK    6  A    between atoms: O_14  and  C_15
REMARK    7  A    between atoms: C_17  and  O_42
REMARK    8  A    between atoms: C_18  and  O_27
REMARK    9  A    between atoms: C_20  and  O_26
REMARK   10  A    between atoms: C_22  and  C_24
REMARK   11  A    between atoms: C_24  and  O_25
REMARK   12  A    between atoms: O_27  and  C_28
REMARK   13  A    between atoms: C_30  and  O_41
REMARK   14  A    between atoms: C_31  and  O_40
REMARK   15  A    between atoms: C_33  and  O_39
REMARK   16  A    between atoms: C_35  and  C_37
REMARK   17  A    between atoms: C_37  and  O_38
REMARK   18  A    between atoms: C_45  and  O_50
REMARK   19  A    between atoms: C_46  and  O_49
REMARK                            x       y       z     vdW  Elec       q    Type
REMARK                         _______ _______ _______ _____ _____    ______ ____
ROOT
ATOM      1  C   UNL     1       7.957   3.565  23.463  0.00  0.00    +0.340 C 
ATOM      2  O   UNL     1       8.822   4.419  24.219  0.00  0.00    -0.331 OA
ATOM      3  C   UNL     1       8.227   5.557  24.855  0.00  0.00    +0.179 C 
ATOM      4  C   UNL     1       7.403   6.414  23.871  0.00  0.00    +0.177 C 
ATOM      5  C   UNL     1       6.397   5.541  23.109  0.00  0.00    +0.187 C 
ATOM      6  C   UNL     1       7.163   4.388  22.431  0.00  0.00    +0.214 C 
ENDROOT
BRANCH   6   7
ATOM      7  O   UNL     1       6.244   3.573  21.684  0.00  0.00    -0.383 OA
ATOM      8  H   UNL     1       6.764   3.238  20.932  0.00  0.00    +0.210 HD
ENDBRANCH   6   7
BRANCH   4   9
ATOM      9  O   UNL     1       8.253   7.044  22.897  0.00  0.00    -0.386 OA
ATOM     10  H   UNL     1       7.931   6.777  22.015  0.00  0.00    +0.210 HD
ENDBRANCH   4   9
BRANCH   5  11
ATOM     11  O   UNL     1       5.315   4.992  23.891  0.00  0.00    -0.340 OA
BRANCH  11  12
ATOM     12  C   UNL     1       4.006   5.542  23.687  0.00  0.00    +0.282 C 
ATOM     13  O   UNL     1       3.386   5.779  24.965  0.00  0.00    -0.341 OA
ATOM     14  C   UNL     1       3.081   4.576  25.709  0.00  0.00    +0.178 C 
ATOM     15  C   UNL     1       2.244   3.557  24.908  0.00  0.00    +0.177 C 
ATOM     16  C   UNL     1       2.822   3.323  23.514  0.00  0.00    +0.179 C 
ATOM     17  C   UNL     1       3.068   4.673  22.822  0.00  0.00    +0.201 C 
BRANCH  17  18
ATOM     18  O   UNL     1       3.548   4.491  21.484  0.00  0.00    -0.384 OA
ATOM     19  H   UNL     1       3.124   3.678  21.141  0.00  0.00    +0.210 HD
ENDBRANCH  17  18
BRANCH  16  20
ATOM     20  O   UNL     1       4.003   2.521  23.548  0.00  0.00    -0.386 OA
ATOM     21  H   UNL     1       3.977   1.931  24.329  0.00  0.00    +0.210 HD
ENDBRANCH  16  20
BRANCH  15  22
ATOM     22  O   UNL     1       0.901   4.043  24.759  0.00  0.00    -0.386 OA
ATOM     23  H   UNL     1       0.947   5.003  24.604  0.00  0.00    +0.210 HD
ENDBRANCH  15  22
BRANCH  14  24
ATOM     24  C   UNL     1       2.318   4.994  26.980  0.00  0.00    +0.190 C 
BRANCH  24  25
ATOM     25  O   UNL     1       1.550   3.903  27.488  0.00  0.00    -0.392 OA
ATOM     26  H   UNL     1       1.323   3.360  26.716  0.00  0.00    +0.210 HD
ENDBRANCH  24  25
ENDBRANCH  14  24
ENDBRANCH  11  12
ENDBRANCH   5  11
BRANCH   3  27
ATOM     27  C   UNL     1       9.379   6.364  25.505  0.00  0.00    +0.190 C 
BRANCH  27  28
ATOM     28  O   UNL     1      10.555   6.451  24.698  0.00  0.00    -0.392 OA
ATOM     29  H   UNL     1      10.658   5.582  24.263  0.00  0.00    +0.210 HD
ENDBRANCH  27  28
ENDBRANCH   3  27
BRANCH   1  30
ATOM     30  O   UNL     1       7.024   2.783  24.235  0.00  0.00    -0.453 OA
BRANCH  30  36
ATOM     31  C   UNL     1       9.599  -3.084  24.354  0.00  0.00    +0.127 A 
ATOM     32  C   UNL     1       8.703  -2.436  25.213  0.00  0.00    +0.092 A 
ATOM     33  C   UNL     1       8.185  -1.194  24.855  0.00  0.00    +0.147 A 
ATOM     34  O   UNL     1       7.269  -0.612  25.697  0.00  0.00    -0.451 OA
ATOM     35  C   UNL     1       6.961   0.729  25.488  0.00  0.00    +0.181 A 
ATOM     36  C   UNL     1       7.267   1.424  24.369  0.00  0.00    +0.214 A 
ATOM     37  C   UNL     1       7.839   0.605  23.262  0.00  0.00    +0.238 A 
ATOM     38  O   UNL     1       7.598   0.825  22.079  0.00  0.00    -0.283 OA
ATOM     39  C   UNL     1       8.567  -0.601  23.655  0.00  0.00    +0.109 A 
ATOM     40  C   UNL     1       9.533  -1.205  22.846  0.00  0.00    +0.135 A 
ATOM     41  C   UNL     1      10.048  -2.447  23.195  0.00  0.00    +0.092 A 
BRANCH  35  42
ATOM     42  C   UNL     1       6.140   1.286  26.580  0.00  0.00    +0.025 A 
ATOM     43  C   UNL     1       6.696   2.088  27.586  0.00  0.00    +0.015 A 
ATOM     44  C   UNL     1       5.887   2.618  28.599  0.00  0.00    +0.050 A 
ATOM     45  C   UNL     1       4.524   2.363  28.593  0.00  0.00    +0.158 A 
ATOM     46  C   UNL     1       3.973   1.518  27.646  0.00  0.00    +0.159 A 
ATOM     47  C   UNL     1       4.771   0.970  26.639  0.00  0.00    +0.060 A 
BRANCH  46  48
ATOM     48  O   UNL     1       2.639   1.242  27.745  0.00  0.00    -0.503 OA
ATOM     49  H   UNL     1       2.373   0.727  26.964  0.00  0.00    +0.292 HD
ENDBRANCH  46  48
BRANCH  45  50
ATOM     50  O   UNL     1       3.731   2.958  29.535  0.00  0.00    -0.503 OA
ATOM     51  H   UNL     1       4.203   2.815  30.380  0.00  0.00    +0.292 HD
ENDBRANCH  45  50
ENDBRANCH  35  42
BRANCH  40  52
ATOM     52  O   UNL     1       9.985  -0.566  21.730  0.00  0.00    -0.506 OA
ATOM     53  H   UNL     1       9.512   0.272  21.609  0.00  0.00    +0.292 HD
ENDBRANCH  40  52
BRANCH  31  55
ATOM     54  C   UNL     1       9.192  -5.224  25.219  0.00  0.00    +0.277 C 
ATOM     55  O   UNL     1      10.107  -4.335  24.579  0.00  0.00    -0.495 OA
ENDBRANCH  31  55
ENDBRANCH  30  36
ENDBRANCH   1  30
TORSDOF 18
ENDMDL
MODEL 6
REMARK VINA RESULT:      -6.7      2.519      5.459
REMARK  Name = 
REMARK  19 active torsions:
REMARK  status: ('A' for Active; 'I' for Inactive)
REMARK    1  A    between atoms: C_1  and  O_2
REMARK    2  A    between atoms: O_2  and  C_3
REMARK    3  A    between atoms: C_5  and  O_51
REMARK    4  A    between atoms: C_10  and  C_43
REMARK    5  A    between atoms: C_11  and  O_14
REMARK    6  A    between atoms: O_14  and  C_15
REMARK    7  A    between atoms: C_17  and  O_42
REMARK    8  A    between atoms: C_18  and  O_27
REMARK    9  A    between atoms: C_20  and  O_26
REMARK   10  A    between atoms: C_22  and  C_24
REMARK   11  A    between atoms: C_24  and  O_25
REMARK   12  A    between atoms: O_27  and  C_28
REMARK   13  A    between atoms: C_30  and  O_41
REMARK   14  A    between atoms: C_31  and  O_40
REMARK   15  A    between atoms: C_33  and  O_39
REMARK   16  A    between atoms: C_35  and  C_37
REMARK   17  A    between atoms: C_37  and  O_38
REMARK   18  A    between atoms: C_45  and  O_50
REMARK   19  A    between atoms: C_46  and  O_49
REMARK                            x       y       z     vdW  Elec       q    Type
REMARK                         _______ _______ _______ _____ _____    ______ ____
ROOT
ATOM      1  C   UNL     1       4.173  -3.289  28.296  0.00  0.00    +0.340 C 
ATOM      2  O   UNL     1       4.993  -4.188  29.049  0.00  0.00    -0.331 OA
ATOM      3  C   UNL     1       5.135  -5.523  28.547  0.00  0.00    +0.179 C 
ATOM      4  C   UNL     1       3.773  -6.192  28.267  0.00  0.00    +0.177 C 
ATOM      5  C   UNL     1       2.903  -5.291  27.380  0.00  0.00    +0.187 C 
ATOM      6  C   UNL     1       2.785  -3.909  28.052  0.00  0.00    +0.214 C 
ENDROOT
BRANCH   6   7
ATOM      7  O   UNL     1       1.946  -3.056  27.253  0.00  0.00    -0.383 OA
ATOM      8  H   UNL     1       1.248  -2.754  27.862  0.00  0.00    +0.210 HD
ENDBRANCH   6   7
BRANCH   4   9
ATOM      9  O   UNL     1       3.050  -6.424  29.488  0.00  0.00    -0.386 OA
ATOM     10  H   UNL     1       3.066  -7.385  29.657  0.00  0.00    +0.210 HD
ENDBRANCH   4   9
BRANCH   5  11
ATOM     11  O   UNL     1       3.353  -5.117  26.020  0.00  0.00    -0.340 OA
BRANCH  11  12
ATOM     12  C   UNL     1       4.439  -5.940  25.571  0.00  0.00    +0.282 C 
ATOM     13  O   UNL     1       5.366  -5.134  24.819  0.00  0.00    -0.341 OA
ATOM     14  C   UNL     1       4.840  -4.641  23.564  0.00  0.00    +0.178 C 
ATOM     15  C   UNL     1       4.269  -5.754  22.660  0.00  0.00    +0.177 C 
ATOM     16  C   UNL     1       3.332  -6.681  23.432  0.00  0.00    +0.179 C 
ATOM     17  C   UNL     1       4.020  -7.158  24.721  0.00  0.00    +0.201 C 
BRANCH  17  18
ATOM     18  O   UNL     1       3.195  -8.084  25.439  0.00  0.00    -0.384 OA
ATOM     19  H   UNL     1       3.256  -8.939  24.965  0.00  0.00    +0.210 HD
ENDBRANCH  17  18
BRANCH  16  20
ATOM     20  O   UNL     1       2.069  -6.071  23.698  0.00  0.00    -0.386 OA
ATOM     21  H   UNL     1       1.743  -5.625  22.890  0.00  0.00    +0.210 HD
ENDBRANCH  16  20
BRANCH  15  22
ATOM     22  O   UNL     1       5.342  -6.545  22.128  0.00  0.00    -0.386 OA
ATOM     23  H   UNL     1       5.545  -7.245  22.775  0.00  0.00    +0.210 HD
ENDBRANCH  15  22
BRANCH  14  24
ATOM     24  C   UNL     1       5.983  -3.912  22.833  0.00  0.00    +0.190 C 
BRANCH  24  25
ATOM     25  O   UNL     1       5.633  -3.664  21.472  0.00  0.00    -0.392 OA
ATOM     26  H   UNL     1       5.053  -2.885  21.487  0.00  0.00    +0.210 HD
ENDBRANCH  24  25
ENDBRANCH  14  24
ENDBRANCH  11  12
ENDBRANCH   5  11
BRANCH   3  27
ATOM     27  C   UNL     1       5.968  -6.311  29.589  0.00  0.00    +0.190 C 
BRANCH  27  28
ATOM     28  O   UNL     1       6.636  -7.455  29.053  0.00  0.00    -0.392 OA
ATOM     29  H   UNL     1       5.977  -8.176  29.028  0.00  0.00    +0.210 HD
ENDBRANCH  27  28
ENDBRANCH   3  27
BRANCH   1  30
ATOM     30  O   UNL     1       4.714  -2.869  27.027  0.00  0.00    -0.453 OA
BRANCH  30  36
ATOM     31  C   UNL     1       6.519   3.196  28.034  0.00  0.00    +0.127 A 
ATOM     32  C   UNL     1       7.186   2.101  27.472  0.00  0.00    +0.092 A 
ATOM     33  C   UNL     1       6.487   0.920  27.234  0.00  0.00    +0.147 A 
ATOM     34  O   UNL     1       7.160  -0.117  26.634  0.00  0.00    -0.451 OA
ATOM     35  C   UNL     1       6.557  -1.370  26.644  0.00  0.00    +0.181 A 
ATOM     36  C   UNL     1       5.256  -1.596  26.939  0.00  0.00    +0.214 A 
ATOM     37  C   UNL     1       4.432  -0.366  27.109  0.00  0.00    +0.238 A 
ATOM     38  O   UNL     1       3.260  -0.295  26.752  0.00  0.00    -0.283 OA
ATOM     39  C   UNL     1       5.138   0.832  27.563  0.00  0.00    +0.109 A 
ATOM     40  C   UNL     1       4.499   1.893  28.210  0.00  0.00    +0.135 A 
ATOM     41  C   UNL     1       5.190   3.076  28.445  0.00  0.00    +0.092 A 
BRANCH  35  42
ATOM     42  C   UNL     1       7.468  -2.428  26.167  0.00  0.00    +0.025 A 
ATOM     43  C   UNL     1       8.332  -2.224  25.083  0.00  0.00    +0.015 A 
ATOM     44  C   UNL     1       9.199  -3.241  24.665  0.00  0.00    +0.050 A 
ATOM     45  C   UNL     1       9.216  -4.450  25.342  0.00  0.00    +0.158 A 
ATOM     46  C   UNL     1       8.322  -4.690  26.371  0.00  0.00    +0.159 A 
ATOM     47  C   UNL     1       7.441  -3.690  26.788  0.00  0.00    +0.060 A 
BRANCH  46  48
ATOM     48  O   UNL     1       8.334  -5.930  26.943  0.00  0.00    -0.503 OA
ATOM     49  H   UNL     1       8.682  -6.565  26.293  0.00  0.00    +0.292 HD
ENDBRANCH  46  48
BRANCH  45  50
ATOM     50  O   UNL     1      10.129  -5.403  24.983  0.00  0.00    -0.503 OA
ATOM     51  H   UNL     1      10.640  -4.992  24.257  0.00  0.00    +0.292 HD
ENDBRANCH  45  50
ENDBRANCH  35  42
BRANCH  40  52
ATOM     52  O   UNL     1       3.210   1.759  28.631  0.00  0.00    -0.506 OA
ATOM     53  H   UNL     1       2.600   1.883  27.887  0.00  0.00    +0.292 HD
ENDBRANCH  40  52
BRANCH  31  55
ATOM     54  C   UNL     1       7.217   5.210  27.057  0.00  0.00    +0.277 C 
ATOM     55  O   UNL     1       7.097   4.420  28.240  0.00  0.00    -0.495 OA
ENDBRANCH  31  55
ENDBRANCH  30  36
ENDBRANCH   1  30
TORSDOF 18
ENDMDL
MODEL 7
REMARK VINA RESULT:      -6.6      2.685      7.441
REMARK  Name = 
REMARK  19 active torsions:
REMARK  status: ('A' for Active; 'I' for Inactive)
REMARK    1  A    between atoms: C_1  and  O_2
REMARK    2  A    between atoms: O_2  and  C_3
REMARK    3  A    between atoms: C_5  and  O_51
REMARK    4  A    between atoms: C_10  and  C_43
REMARK    5  A    between atoms: C_11  and  O_14
REMARK    6  A    between atoms: O_14  and  C_15
REMARK    7  A    between atoms: C_17  and  O_42
REMARK    8  A    between atoms: C_18  and  O_27
REMARK    9  A    between atoms: C_20  and  O_26
REMARK   10  A    between atoms: C_22  and  C_24
REMARK   11  A    between atoms: C_24  and  O_25
REMARK   12  A    between atoms: O_27  and  C_28
REMARK   13  A    between atoms: C_30  and  O_41
REMARK   14  A    between atoms: C_31  and  O_40
REMARK   15  A    between atoms: C_33  and  O_39
REMARK   16  A    between atoms: C_35  and  C_37
REMARK   17  A    between atoms: C_37  and  O_38
REMARK   18  A    between atoms: C_45  and  O_50
REMARK   19  A    between atoms: C_46  and  O_49
REMARK                            x       y       z     vdW  Elec       q    Type
REMARK                         _______ _______ _______ _____ _____    ______ ____
ROOT
ATOM      1  C   UNL     1       6.946  -0.418  26.486  0.00  0.00    +0.340 C 
ATOM      2  O   UNL     1       6.427  -0.405  27.819  0.00  0.00    -0.331 OA
ATOM      3  C   UNL     1       5.711   0.766  28.232  0.00  0.00    +0.179 C 
ATOM      4  C   UNL     1       6.513   2.062  27.987  0.00  0.00    +0.177 C 
ATOM      5  C   UNL     1       7.005   2.122  26.534  0.00  0.00    +0.187 C 
ATOM      6  C   UNL     1       7.801   0.838  26.232  0.00  0.00    +0.214 C 
ENDROOT
BRANCH   6   7
ATOM      7  O   UNL     1       8.300   0.887  24.884  0.00  0.00    -0.383 OA
ATOM      8  H   UNL     1       9.176   0.465  24.929  0.00  0.00    +0.210 HD
ENDBRANCH   6   7
BRANCH   4   9
ATOM      9  O   UNL     1       7.670   2.122  28.838  0.00  0.00    -0.386 OA
ATOM     10  H   UNL     1       7.439   2.682  29.603  0.00  0.00    +0.210 HD
ENDBRANCH   4   9
BRANCH   5  11
ATOM     11  O   UNL     1       5.986   2.294  25.527  0.00  0.00    -0.340 OA
BRANCH  11  12
ATOM     12  C   UNL     1       5.835   3.601  24.955  0.00  0.00    +0.282 C 
ATOM     13  O   UNL     1       4.433   3.919  24.861  0.00  0.00    -0.341 OA
ATOM     14  C   UNL     1       3.702   3.104  23.916  0.00  0.00    +0.178 C 
ATOM     15  C   UNL     1       4.326   3.094  22.505  0.00  0.00    +0.177 C 
ATOM     16  C   UNL     1       5.830   2.829  22.555  0.00  0.00    +0.179 C 
ATOM     17  C   UNL     1       6.489   3.779  23.568  0.00  0.00    +0.201 C 
BRANCH  17  18
ATOM     18  O   UNL     1       7.911   3.606  23.593  0.00  0.00    -0.384 OA
ATOM     19  H   UNL     1       8.270   4.313  24.166  0.00  0.00    +0.210 HD
ENDBRANCH  17  18
BRANCH  16  20
ATOM     20  O   UNL     1       6.128   1.462  22.837  0.00  0.00    -0.386 OA
ATOM     21  H   UNL     1       7.085   1.364  23.017  0.00  0.00    +0.210 HD
ENDBRANCH  16  20
BRANCH  15  22
ATOM     22  O   UNL     1       4.116   4.365  21.872  0.00  0.00    -0.386 OA
ATOM     23  H   UNL     1       3.875   5.006  22.566  0.00  0.00    +0.210 HD
ENDBRANCH  15  22
BRANCH  14  24
ATOM     24  C   UNL     1       2.263   3.648  23.845  0.00  0.00    +0.190 C 
BRANCH  24  25
ATOM     25  O   UNL     1       1.498   2.928  22.880  0.00  0.00    -0.392 OA
ATOM     26  H   UNL     1       1.352   2.048  23.263  0.00  0.00    +0.210 HD
ENDBRANCH  24  25
ENDBRANCH  14  24
ENDBRANCH  11  12
ENDBRANCH   5  11
BRANCH   3  27
ATOM     27  C   UNL     1       5.357   0.575  29.728  0.00  0.00    +0.190 C 
BRANCH  27  28
ATOM     28  O   UNL     1       5.269   1.796  30.465  0.00  0.00    -0.392 OA
ATOM     29  H   UNL     1       5.988   1.774  31.127  0.00  0.00    +0.210 HD
ENDBRANCH  27  28
ENDBRANCH   3  27
BRANCH   1  30
ATOM     30  O   UNL     1       5.962  -0.518  25.437  0.00  0.00    -0.453 OA
BRANCH  30  36
ATOM     31  C   UNL     1       2.424  -5.556  23.653  0.00  0.00    +0.127 A 
ATOM     32  C   UNL     1       3.754  -5.204  23.391  0.00  0.00    +0.092 A 
ATOM     33  C   UNL     1       4.317  -4.110  24.045  0.00  0.00    +0.147 A 
ATOM     34  O   UNL     1       5.639  -3.826  23.802  0.00  0.00    -0.451 OA
ATOM     35  C   UNL     1       6.124  -2.594  24.230  0.00  0.00    +0.181 A 
ATOM     36  C   UNL     1       5.490  -1.780  25.104  0.00  0.00    +0.214 A 
ATOM     37  C   UNL     1       4.269  -2.363  25.728  0.00  0.00    +0.238 A 
ATOM     38  O   UNL     1       3.944  -2.140  26.891  0.00  0.00    -0.283 OA
ATOM     39  C   UNL     1       3.555  -3.370  24.944  0.00  0.00    +0.109 A 
ATOM     40  C   UNL     1       2.202  -3.665  25.133  0.00  0.00    +0.135 A 
ATOM     41  C   UNL     1       1.637  -4.759  24.488  0.00  0.00    +0.092 A 
BRANCH  35  42
ATOM     42  C   UNL     1       7.482  -2.326  23.721  0.00  0.00    +0.025 A 
ATOM     43  C   UNL     1       8.625  -2.756  24.409  0.00  0.00    +0.015 A 
ATOM     44  C   UNL     1       9.902  -2.503  23.891  0.00  0.00    +0.050 A 
ATOM     45  C   UNL     1      10.033  -1.841  22.680  0.00  0.00    +0.158 A 
ATOM     46  C   UNL     1       8.917  -1.352  22.024  0.00  0.00    +0.159 A 
ATOM     47  C   UNL     1       7.638  -1.583  22.537  0.00  0.00    +0.060 A 
BRANCH  46  48
ATOM     48  O   UNL     1       9.119  -0.637  20.879  0.00  0.00    -0.503 OA
ATOM     49  H   UNL     1       8.376  -0.808  20.274  0.00  0.00    +0.292 HD
ENDBRANCH  46  48
BRANCH  45  50
ATOM     50  O   UNL     1      11.279  -1.678  22.141  0.00  0.00    -0.503 OA
ATOM     51  H   UNL     1      11.774  -2.475  22.421  0.00  0.00    +0.292 HD
ENDBRANCH  45  50
ENDBRANCH  35  42
BRANCH  40  52
ATOM     52  O   UNL     1       1.435  -2.869  25.928  0.00  0.00    -0.506 OA
ATOM     53  H   UNL     1       0.585  -3.299  26.114  0.00  0.00    +0.292 HD
ENDBRANCH  40  52
BRANCH  31  55
ATOM     54  C   UNL     1       0.631  -6.342  22.365  0.00  0.00    +0.277 C 
ATOM     55  O   UNL     1       1.802  -6.652  23.119  0.00  0.00    -0.495 OA
ENDBRANCH  31  55
ENDBRANCH  30  36
ENDBRANCH   1  30
TORSDOF 18
ENDMDL
MODEL 8
REMARK VINA RESULT:      -6.4      3.355      8.734
REMARK  Name = 
REMARK  19 active torsions:
REMARK  status: ('A' for Active; 'I' for Inactive)
REMARK    1  A    between atoms: C_1  and  O_2
REMARK    2  A    between atoms: O_2  and  C_3
REMARK    3  A    between atoms: C_5  and  O_51
REMARK    4  A    between atoms: C_10  and  C_43
REMARK    5  A    between atoms: C_11  and  O_14
REMARK    6  A    between atoms: O_14  and  C_15
REMARK    7  A    between atoms: C_17  and  O_42
REMARK    8  A    between atoms: C_18  and  O_27
REMARK    9  A    between atoms: C_20  and  O_26
REMARK   10  A    between atoms: C_22  and  C_24
REMARK   11  A    between atoms: C_24  and  O_25
REMARK   12  A    between atoms: O_27  and  C_28
REMARK   13  A    between atoms: C_30  and  O_41
REMARK   14  A    between atoms: C_31  and  O_40
REMARK   15  A    between atoms: C_33  and  O_39
REMARK   16  A    between atoms: C_35  and  C_37
REMARK   17  A    between atoms: C_37  and  O_38
REMARK   18  A    between atoms: C_45  and  O_50
REMARK   19  A    between atoms: C_46  and  O_49
REMARK                            x       y       z     vdW  Elec       q    Type
REMARK                         _______ _______ _______ _____ _____    ______ ____
ROOT
ATOM      1  C   UNL     1       8.237   2.748  23.753  0.00  0.00    +0.340 C 
ATOM      2  O   UNL     1       8.830   3.735  24.604  0.00  0.00    -0.331 OA
ATOM      3  C   UNL     1       8.171   5.005  24.691  0.00  0.00    +0.179 C 
ATOM      4  C   UNL     1       7.906   5.625  23.304  0.00  0.00    +0.177 C 
ATOM      5  C   UNL     1       7.184   4.621  22.395  0.00  0.00    +0.187 C 
ATOM      6  C   UNL     1       8.013   3.323  22.342  0.00  0.00    +0.214 C 
ENDROOT
BRANCH   6   7
ATOM      7  O   UNL     1       7.372   2.377  21.470  0.00  0.00    -0.383 OA
ATOM      8  H   UNL     1       6.419   2.543  21.582  0.00  0.00    +0.210 HD
ENDBRANCH   6   7
BRANCH   4   9
ATOM      9  O   UNL     1       9.136   5.987  22.655  0.00  0.00    -0.386 OA
ATOM     10  H   UNL     1       9.755   5.241  22.768  0.00  0.00    +0.210 HD
ENDBRANCH   4   9
BRANCH   5  11
ATOM     11  O   UNL     1       5.826   4.298  22.762  0.00  0.00    -0.340 OA
BRANCH  11  12
ATOM     12  C   UNL     1       4.859   5.357  22.719  0.00  0.00    +0.282 C 
ATOM     13  O   UNL     1       4.859   6.051  23.981  0.00  0.00    -0.341 OA
ATOM     14  C   UNL     1       4.375   5.262  25.092  0.00  0.00    +0.178 C 
ATOM     15  C   UNL     1       2.983   4.643  24.843  0.00  0.00    +0.177 C 
ATOM     16  C   UNL     1       2.909   3.953  23.481  0.00  0.00    +0.179 C 
ATOM     17  C   UNL     1       3.420   4.906  22.389  0.00  0.00    +0.201 C 
BRANCH  17  18
ATOM     18  O   UNL     1       3.302   4.316  21.088  0.00  0.00    -0.384 OA
ATOM     19  H   UNL     1       3.554   3.375  21.183  0.00  0.00    +0.210 HD
ENDBRANCH  17  18
BRANCH  16  20
ATOM     20  O   UNL     1       3.608   2.707  23.470  0.00  0.00    -0.386 OA
ATOM     21  H   UNL     1       3.155   2.082  22.868  0.00  0.00    +0.210 HD
ENDBRANCH  16  20
BRANCH  15  22
ATOM     22  O   UNL     1       1.981   5.670  24.878  0.00  0.00    -0.386 OA
ATOM     23  H   UNL     1       1.857   5.996  23.968  0.00  0.00    +0.210 HD
ENDBRANCH  15  22
BRANCH  14  24
ATOM     24  C   UNL     1       4.322   6.179  26.329  0.00  0.00    +0.190 C 
BRANCH  24  25
ATOM     25  O   UNL     1       3.306   5.748  27.233  0.00  0.00    -0.392 OA
ATOM     26  H   UNL     1       3.687   5.000  27.721  0.00  0.00    +0.210 HD
ENDBRANCH  24  25
ENDBRANCH  14  24
ENDBRANCH  11  12
ENDBRANCH   5  11
BRANCH   3  27
ATOM     27  C   UNL     1       9.063   5.914  25.574  0.00  0.00    +0.190 C 
BRANCH  27  28
ATOM     28  O   UNL     1       8.636   6.001  26.936  0.00  0.00    -0.392 OA
ATOM     29  H   UNL     1       9.402   5.740  27.484  0.00  0.00    +0.210 HD
ENDBRANCH  27  28
ENDBRANCH   3  27
BRANCH   1  30
ATOM     30  O   UNL     1       6.991   2.192  24.220  0.00  0.00    -0.453 OA
BRANCH  30  36
ATOM     31  C   UNL     1       8.464  -3.833  25.833  0.00  0.00    +0.127 A 
ATOM     32  C   UNL     1       7.821  -2.805  26.534  0.00  0.00    +0.092 A 
ATOM     33  C   UNL     1       7.491  -1.625  25.872  0.00  0.00    +0.147 A 
ATOM     34  O   UNL     1       6.814  -0.659  26.577  0.00  0.00    -0.451 OA
ATOM     35  C   UNL     1       6.727   0.610  26.014  0.00  0.00    +0.181 A 
ATOM     36  C   UNL     1       7.002   0.899  24.722  0.00  0.00    +0.214 A 
ATOM     37  C   UNL     1       7.265  -0.287  23.859  0.00  0.00    +0.238 A 
ATOM     38  O   UNL     1       6.913  -0.348  22.685  0.00  0.00    -0.283 OA
ATOM     39  C   UNL     1       7.811  -1.469  24.527  0.00  0.00    +0.109 A 
ATOM     40  C   UNL     1       8.537  -2.456  23.855  0.00  0.00    +0.135 A 
ATOM     41  C   UNL     1       8.863  -3.639  24.508  0.00  0.00    +0.092 A 
BRANCH  35  42
ATOM     42  C   UNL     1       6.171   1.598  26.958  0.00  0.00    +0.025 A 
ATOM     43  C   UNL     1       4.809   1.621  27.285  0.00  0.00    +0.015 A 
ATOM     44  C   UNL     1       4.313   2.559  28.199  0.00  0.00    +0.050 A 
ATOM     45  C   UNL     1       5.182   3.457  28.799  0.00  0.00    +0.158 A 
ATOM     46  C   UNL     1       6.517   3.491  28.436  0.00  0.00    +0.159 A 
ATOM     47  C   UNL     1       7.022   2.571  27.514  0.00  0.00    +0.060 A 
BRANCH  46  48
ATOM     48  O   UNL     1       7.302   4.453  29.004  0.00  0.00    -0.503 OA
ATOM     49  H   UNL     1       6.734   5.045  29.526  0.00  0.00    +0.292 HD
ENDBRANCH  46  48
BRANCH  45  50
ATOM     50  O   UNL     1       4.704   4.309  29.756  0.00  0.00    -0.503 OA
ATOM     51  H   UNL     1       4.066   3.771  30.268  0.00  0.00    +0.292 HD
ENDBRANCH  45  50
ENDBRANCH  35  42
BRANCH  40  52
ATOM     52  O   UNL     1       8.945  -2.249  22.572  0.00  0.00    -0.506 OA
ATOM     53  H   UNL     1       9.829  -2.625  22.436  0.00  0.00    +0.292 HD
ENDBRANCH  40  52
BRANCH  31  55
ATOM     54  C   UNL     1       7.712  -5.617  27.153  0.00  0.00    +0.277 C 
ATOM     55  O   UNL     1       8.765  -5.055  26.371  0.00  0.00    -0.495 OA
ENDBRANCH  31  55
ENDBRANCH  30  36
ENDBRANCH   1  30
TORSDOF 18
ENDMDL
MODEL 9
REMARK VINA RESULT:      -6.3      2.539      7.639
REMARK  Name = 
REMARK  19 active torsions:
REMARK  status: ('A' for Active; 'I' for Inactive)
REMARK    1  A    between atoms: C_1  and  O_2
REMARK    2  A    between atoms: O_2  and  C_3
REMARK    3  A    between atoms: C_5  and  O_51
REMARK    4  A    between atoms: C_10  and  C_43
REMARK    5  A    between atoms: C_11  and  O_14
REMARK    6  A    between atoms: O_14  and  C_15
REMARK    7  A    between atoms: C_17  and  O_42
REMARK    8  A    between atoms: C_18  and  O_27
REMARK    9  A    between atoms: C_20  and  O_26
REMARK   10  A    between atoms: C_22  and  C_24
REMARK   11  A    between atoms: C_24  and  O_25
REMARK   12  A    between atoms: O_27  and  C_28
REMARK   13  A    between atoms: C_30  and  O_41
REMARK   14  A    between atoms: C_31  and  O_40
REMARK   15  A    between atoms: C_33  and  O_39
REMARK   16  A    between atoms: C_35  and  C_37
REMARK   17  A    between atoms: C_37  and  O_38
REMARK   18  A    between atoms: C_45  and  O_50
REMARK   19  A    between atoms: C_46  and  O_49
REMARK                            x       y       z     vdW  Elec       q    Type
REMARK                         _______ _______ _______ _____ _____    ______ ____
ROOT
ATOM      1  C   UNL     1       6.777  -0.286  26.670  0.00  0.00    +0.340 C 
ATOM      2  O   UNL     1       5.988   0.111  27.796  0.00  0.00    -0.331 OA
ATOM      3  C   UNL     1       5.488   1.453  27.805  0.00  0.00    +0.179 C 
ATOM      4  C   UNL     1       6.601   2.496  27.573  0.00  0.00    +0.177 C 
ATOM      5  C   UNL     1       7.409   2.150  26.315  0.00  0.00    +0.187 C 
ATOM      6  C   UNL     1       7.933   0.707  26.450  0.00  0.00    +0.214 C 
ENDROOT
BRANCH   6   7
ATOM      7  O   UNL     1       8.721   0.372  25.295  0.00  0.00    -0.383 OA
ATOM      8  H   UNL     1       9.642   0.380  25.611  0.00  0.00    +0.210 HD
ENDBRANCH   6   7
BRANCH   4   9
ATOM      9  O   UNL     1       7.519   2.528  28.680  0.00  0.00    -0.386 OA
ATOM     10  H   UNL     1       7.125   1.998  29.399  0.00  0.00    +0.210 HD
ENDBRANCH   4   9
BRANCH   5  11
ATOM     11  O   UNL     1       6.711   2.282  25.058  0.00  0.00    -0.340 OA
BRANCH  11  12
ATOM     12  C   UNL     1       7.503   2.471  23.877  0.00  0.00    +0.282 C 
ATOM     13  O   UNL     1       8.272   3.682  24.010  0.00  0.00    -0.341 OA
ATOM     14  C   UNL     1       7.478   4.891  24.021  0.00  0.00    +0.178 C 
ATOM     15  C   UNL     1       6.528   5.011  22.810  0.00  0.00    +0.177 C 
ATOM     16  C   UNL     1       5.739   3.722  22.584  0.00  0.00    +0.179 C 
ATOM     17  C   UNL     1       6.699   2.523  22.561  0.00  0.00    +0.201 C 
BRANCH  17  18
ATOM     18  O   UNL     1       6.000   1.303  22.283  0.00  0.00    -0.384 OA
ATOM     19  H   UNL     1       6.460   0.881  21.530  0.00  0.00    +0.210 HD
ENDBRANCH  17  18
BRANCH  16  20
ATOM     20  O   UNL     1       4.698   3.552  23.547  0.00  0.00    -0.386 OA
ATOM     21  H   UNL     1       3.834   3.497  23.091  0.00  0.00    +0.210 HD
ENDBRANCH  16  20
BRANCH  15  22
ATOM     22  O   UNL     1       7.288   5.284  21.623  0.00  0.00    -0.386 OA
ATOM     23  H   UNL     1       7.396   6.250  21.555  0.00  0.00    +0.210 HD
ENDBRANCH  15  22
BRANCH  14  24
ATOM     24  C   UNL     1       8.448   6.087  24.042  0.00  0.00    +0.190 C 
BRANCH  24  25
ATOM     25  O   UNL     1       9.510   5.891  23.110  0.00  0.00    -0.392 OA
ATOM     26  H   UNL     1       9.291   5.077  22.628  0.00  0.00    +0.210 HD
ENDBRANCH  24  25
ENDBRANCH  14  24
ENDBRANCH  11  12
ENDBRANCH   5  11
BRANCH   3  27
ATOM     27  C   UNL     1       4.772   1.659  29.164  0.00  0.00    +0.190 C 
BRANCH  27  28
ATOM     28  O   UNL     1       5.489   1.134  30.283  0.00  0.00    -0.392 OA
ATOM     29  H   UNL     1       6.258   0.654  29.920  0.00  0.00    +0.210 HD
ENDBRANCH  27  28
ENDBRANCH   3  27
BRANCH   1  30
ATOM     30  O   UNL     1       6.059  -0.430  25.428  0.00  0.00    -0.453 OA
BRANCH  30  36
ATOM     31  C   UNL     1       2.386  -5.393  23.708  0.00  0.00    +0.127 A 
ATOM     32  C   UNL     1       3.723  -5.076  23.434  0.00  0.00    +0.092 A 
ATOM     33  C   UNL     1       4.317  -3.992  24.075  0.00  0.00    +0.147 A 
ATOM     34  O   UNL     1       5.644  -3.742  23.822  0.00  0.00    -0.451 OA
ATOM     35  C   UNL     1       6.162  -2.519  24.237  0.00  0.00    +0.181 A 
ATOM     36  C   UNL     1       5.554  -1.682  25.108  0.00  0.00    +0.214 A 
ATOM     37  C   UNL     1       4.323  -2.230  25.745  0.00  0.00    +0.238 A 
ATOM     38  O   UNL     1       4.011  -1.989  26.908  0.00  0.00    -0.283 OA
ATOM     39  C   UNL     1       3.579  -3.226  24.973  0.00  0.00    +0.109 A 
ATOM     40  C   UNL     1       2.221  -3.486  25.173  0.00  0.00    +0.135 A 
ATOM     41  C   UNL     1       1.625  -4.570  24.541  0.00  0.00    +0.092 A 
BRANCH  35  42
ATOM     42  C   UNL     1       7.523  -2.289  23.718  0.00  0.00    +0.025 A 
ATOM     43  C   UNL     1       8.656  -2.798  24.366  0.00  0.00    +0.015 A 
ATOM     44  C   UNL     1       9.935  -2.580  23.839  0.00  0.00    +0.050 A 
ATOM     45  C   UNL     1      10.077  -1.870  22.656  0.00  0.00    +0.158 A 
ATOM     46  C   UNL     1       8.974  -1.304  22.041  0.00  0.00    +0.159 A 
ATOM     47  C   UNL     1       7.694  -1.501  22.565  0.00  0.00    +0.060 A 
BRANCH  46  48
ATOM     48  O   UNL     1       9.192  -0.548  20.925  0.00  0.00    -0.503 OA
ATOM     49  H   UNL     1       9.598   0.293  21.197  0.00  0.00    +0.292 HD
ENDBRANCH  46  48
BRANCH  45  50
ATOM     50  O   UNL     1      11.321  -1.739  22.103  0.00  0.00    -0.503 OA
ATOM     51  H   UNL     1      11.773  -2.581  22.313  0.00  0.00    +0.292 HD
ENDBRANCH  45  50
ENDBRANCH  35  42
BRANCH  40  52
ATOM     52  O   UNL     1       1.478  -2.664  25.966  0.00  0.00    -0.506 OA
ATOM     53  H   UNL     1       1.573  -1.743  25.677  0.00  0.00    +0.292 HD
ENDBRANCH  40  52
BRANCH  31  55
ATOM     54  C   UNL     1       0.633  -6.140  22.343  0.00  0.00    +0.277 C 
ATOM     55  O   UNL     1       1.735  -6.477  23.186  0.00  0.00    -0.495 OA
ENDBRANCH  31  55
ENDBRANCH  30  36
ENDBRANCH   1  30
TORSDOF 18
ENDMDL
