MODEL 1
REMARK VINA RESULT:      -7.3      0.000      0.000
REMARK  Name = 
REMARK  16 active torsions:
REMARK  status: ('A' for Active; 'I' for Inactive)
REMARK    1  A    between atoms: C_3  and  O_44
REMARK    2  A    between atoms: C_6  and  C_7
REMARK    3  A    between atoms: C_8  and  C_9
REMARK    4  A    between atoms: C_9  and  O_11
REMARK    5  A    between atoms: O_11  and  C_12
REMARK    6  A    between atoms: C_13  and  O_43
REMARK    7  A    between atoms: C_14  and  C_41
REMARK    8  A    between atoms: C_16  and  O_19
REMARK    9  A    between atoms: C_17  and  O_18
REMARK   10  A    between atoms: O_19  and  C_20
REMARK   11  A    between atoms: C_21  and  C_33
REMARK   12  A    between atoms: C_25  and  O_32
REMARK   13  A    between atoms: C_27  and  O_31
REMARK   14  A    between atoms: C_35  and  O_40
REMARK   15  A    between atoms: C_36  and  O_39
REMARK   16  A    between atoms: C_41  and  O_42
REMARK                            x       y       z     vdW  Elec       q    Type
REMARK                         _______ _______ _______ _____ _____    ______ ____
ROOT
ATOM      1  C   UNL     1      10.430   0.519  23.227  0.00  0.00    +0.242 C 
ATOM      2  C   UNL     1      10.066  -0.007  24.622  0.00  0.00    +0.226 C 
ATOM      3  C   UNL     1       8.545   0.177  24.876  0.00  0.00    +0.341 C 
ATOM      4  O   UNL     1       8.264   1.597  24.839  0.00  0.00    -0.331 OA
ATOM      5  C   UNL     1       8.545   2.182  23.552  0.00  0.00    +0.180 C 
ATOM      6  C   UNL     1      10.027   1.998  23.154  0.00  0.00    +0.189 C 
ENDROOT
BRANCH   6   7
ATOM      7  O   UNL     1      10.286   2.562  21.862  0.00  0.00    -0.385 OA
ATOM      8  H   UNL     1       9.470   3.000  21.556  0.00  0.00    +0.210 HD
ENDBRANCH   6   7
BRANCH   2   9
ATOM      9  O   UNL     1      10.821   0.733  25.610  0.00  0.00    -0.382 OA
ATOM     10  H   UNL     1      11.343   1.402  25.124  0.00  0.00    +0.210 HD
ENDBRANCH   2   9
BRANCH   3  11
ATOM     11  O   UNL     1       8.218  -0.287  26.201  0.00  0.00    -0.453 OA
BRANCH  11  12
ATOM     12  C   UNL     1       7.258  -1.284  26.369  0.00  0.00    +0.214 A 
ATOM     13  C   UNL     1       7.649  -2.716  26.493  0.00  0.00    +0.238 A 
ATOM     14  O   UNL     1       8.800  -3.061  26.731  0.00  0.00    -0.283 OA
ATOM     15  C   UNL     1       6.593  -3.720  26.451  0.00  0.00    +0.109 A 
ATOM     16  C   UNL     1       5.309  -3.302  26.759  0.00  0.00    +0.147 A 
ATOM     17  C   UNL     1       4.338  -4.262  27.063  0.00  0.00    +0.092 A 
ATOM     18  C   UNL     1       4.677  -5.618  27.008  0.00  0.00    +0.124 A 
ATOM     19  C   UNL     1       5.931  -6.036  26.573  0.00  0.00    +0.091 A 
ATOM     20  O   UNL     1       4.968  -1.972  26.802  0.00  0.00    -0.451 OA
ATOM     21  C   UNL     1       6.891  -5.078  26.286  0.00  0.00    +0.135 A 
ATOM     22  C   UNL     1       5.939  -1.002  26.503  0.00  0.00    +0.181 A 
BRANCH  22  23
ATOM     23  C   UNL     1       5.377   0.389  26.446  0.00  0.00    +0.025 A 
ATOM     24  C   UNL     1       5.224   1.146  27.627  0.00  0.00    +0.015 A 
ATOM     25  C   UNL     1       4.763   2.473  27.597  0.00  0.00    +0.050 A 
ATOM     26  C   UNL     1       4.450   3.056  26.381  0.00  0.00    +0.158 A 
ATOM     27  C   UNL     1       4.548   2.321  25.208  0.00  0.00    +0.159 A 
ATOM     28  C   UNL     1       4.979   0.993  25.235  0.00  0.00    +0.060 A 
BRANCH  27  29
ATOM     29  O   UNL     1       4.225   2.952  24.037  0.00  0.00    -0.503 OA
ATOM     30  H   UNL     1       3.593   3.664  24.238  0.00  0.00    +0.292 HD
ENDBRANCH  27  29
BRANCH  26  31
ATOM     31  O   UNL     1       4.054   4.361  26.343  0.00  0.00    -0.503 OA
ATOM     32  H   UNL     1       4.881   4.867  26.210  0.00  0.00    +0.292 HD
ENDBRANCH  26  31
ENDBRANCH  22  23
BRANCH  18  33
ATOM     33  O   UNL     1       3.805  -6.594  27.387  0.00  0.00    -0.507 OA
ATOM     34  H   UNL     1       3.011  -6.184  27.768  0.00  0.00    +0.292 HD
ENDBRANCH  18  33
BRANCH  21  35
ATOM     35  O   UNL     1       8.119  -5.464  25.828  0.00  0.00    -0.506 OA
ATOM     36  H   UNL     1       8.740  -4.719  25.872  0.00  0.00    +0.292 HD
ENDBRANCH  21  35
ENDBRANCH  11  12
ENDBRANCH   3  11
BRANCH   5  37
ATOM     37  C   UNL     1       8.198   3.678  23.620  0.00  0.00    +0.190 C 
BRANCH  37  38
ATOM     38  O   UNL     1       8.034   4.263  22.333  0.00  0.00    -0.392 OA
ATOM     39  H   UNL     1       7.393   3.703  21.843  0.00  0.00    +0.210 HD
ENDBRANCH  37  38
ENDBRANCH   5  37
BRANCH   1  40
ATOM     40  O   UNL     1       9.718  -0.217  22.192  0.00  0.00    -0.453 OA
BRANCH  40  41
ATOM     41  C   UNL     1       9.868  -1.569  22.185  0.00  0.00    +0.332 C 
ATOM     42  O   UNL     1      10.930  -2.169  22.235  0.00  0.00    -0.246 OA
BRANCH  41  44
ATOM     43  C   UNL     1       8.250  -3.285  22.819  0.00  0.00    +0.015 C 
ATOM     44  C   UNL     1       8.545  -2.224  22.039  0.00  0.00    +0.092 C 
BRANCH  43  46
ATOM     45  C   UNL     1       7.036  -5.409  22.484  0.00  0.00    +0.011 A 
ATOM     46  C   UNL     1       6.988  -4.043  22.815  0.00  0.00    -0.025 A 
ATOM     47  C   UNL     1       5.739  -3.466  23.064  0.00  0.00    +0.011 A 
ATOM     48  C   UNL     1       4.568  -4.232  22.998  0.00  0.00    +0.046 A 
ATOM     49  C   UNL     1       4.642  -5.587  22.673  0.00  0.00    +0.117 A 
ATOM     50  C   UNL     1       5.868  -6.181  22.417  0.00  0.00    +0.046 A 
BRANCH  49  51
ATOM     51  O   UNL     1       3.479  -6.291  22.611  0.00  0.00    -0.507 OA
ATOM     52  H   UNL     1       3.102  -6.347  23.504  0.00  0.00    +0.292 HD
ENDBRANCH  49  51
ENDBRANCH  43  46
ENDBRANCH  41  44
ENDBRANCH  40  41
ENDBRANCH   1  40
TORSDOF 16
ENDMDL
MODEL 2
REMARK VINA RESULT:      -6.7      2.505      6.894
REMARK  Name = 
REMARK  16 active torsions:
REMARK  status: ('A' for Active; 'I' for Inactive)
REMARK    1  A    between atoms: C_3  and  O_44
REMARK    2  A    between atoms: C_6  and  C_7
REMARK    3  A    between atoms: C_8  and  C_9
REMARK    4  A    between atoms: C_9  and  O_11
REMARK    5  A    between atoms: O_11  and  C_12
REMARK    6  A    between atoms: C_13  and  O_43
REMARK    7  A    between atoms: C_14  and  C_41
REMARK    8  A    between atoms: C_16  and  O_19
REMARK    9  A    between atoms: C_17  and  O_18
REMARK   10  A    between atoms: O_19  and  C_20
REMARK   11  A    between atoms: C_21  and  C_33
REMARK   12  A    between atoms: C_25  and  O_32
REMARK   13  A    between atoms: C_27  and  O_31
REMARK   14  A    between atoms: C_35  and  O_40
REMARK   15  A    between atoms: C_36  and  O_39
REMARK   16  A    between atoms: C_41  and  O_42
REMARK                            x       y       z     vdW  Elec       q    Type
REMARK                         _______ _______ _______ _____ _____    ______ ____
ROOT
ATOM      1  C   UNL     1       9.129  -1.509  25.408  0.00  0.00    +0.242 C 
ATOM      2  C   UNL     1       9.276  -0.023  25.760  0.00  0.00    +0.226 C 
ATOM      3  C   UNL     1       8.381   0.834  24.825  0.00  0.00    +0.341 C 
ATOM      4  O   UNL     1       8.852   0.640  23.469  0.00  0.00    -0.331 OA
ATOM      5  C   UNL     1       8.726  -0.727  23.031  0.00  0.00    +0.180 C 
ATOM      6  C   UNL     1       9.524  -1.692  23.936  0.00  0.00    +0.189 C 
ENDROOT
BRANCH   6   7
ATOM      7  O   UNL     1       9.369  -3.049  23.503  0.00  0.00    -0.385 OA
ATOM      8  H   UNL     1       9.053  -3.036  22.580  0.00  0.00    +0.210 HD
ENDBRANCH   6   7
BRANCH   2   9
ATOM      9  O   UNL     1      10.662   0.360  25.597  0.00  0.00    -0.382 OA
ATOM     10  H   UNL     1      10.916   0.852  26.403  0.00  0.00    +0.210 HD
ENDBRANCH   2   9
BRANCH   3  11
ATOM     11  O   UNL     1       8.550   2.230  25.139  0.00  0.00    -0.453 OA
BRANCH  11  12
ATOM     12  C   UNL     1       7.796   3.189  24.467  0.00  0.00    +0.214 A 
ATOM     13  C   UNL     1       6.307   3.138  24.468  0.00  0.00    +0.238 A 
ATOM     14  O   UNL     1       5.678   2.446  25.259  0.00  0.00    -0.283 OA
ATOM     15  C   UNL     1       5.590   4.040  23.575  0.00  0.00    +0.109 A 
ATOM     16  C   UNL     1       6.264   5.169  23.141  0.00  0.00    +0.147 A 
ATOM     17  C   UNL     1       5.533   6.219  22.575  0.00  0.00    +0.092 A 
ATOM     18  C   UNL     1       4.149   6.084  22.423  0.00  0.00    +0.124 A 
ATOM     19  C   UNL     1       3.496   4.898  22.742  0.00  0.00    +0.091 A 
ATOM     20  O   UNL     1       7.625   5.300  23.275  0.00  0.00    -0.451 OA
ATOM     21  C   UNL     1       4.225   3.867  23.315  0.00  0.00    +0.135 A 
ATOM     22  C   UNL     1       8.365   4.253  23.847  0.00  0.00    +0.181 A 
BRANCH  22  23
ATOM     23  C   UNL     1       9.847   4.483  23.786  0.00  0.00    +0.025 A 
ATOM     24  C   UNL     1      10.692   3.533  23.172  0.00  0.00    +0.015 A 
ATOM     25  C   UNL     1      12.074   3.751  23.043  0.00  0.00    +0.050 A 
ATOM     26  C   UNL     1      12.624   4.926  23.526  0.00  0.00    +0.158 A 
ATOM     27  C   UNL     1      11.825   5.858  24.173  0.00  0.00    +0.159 A 
ATOM     28  C   UNL     1      10.456   5.633  24.330  0.00  0.00    +0.060 A 
BRANCH  27  29
ATOM     29  O   UNL     1      12.426   7.000  24.629  0.00  0.00    -0.503 OA
ATOM     30  H   UNL     1      13.344   6.786  24.871  0.00  0.00    +0.292 HD
ENDBRANCH  27  29
BRANCH  26  31
ATOM     31  O   UNL     1      13.956   5.166  23.353  0.00  0.00    -0.503 OA
ATOM     32  H   UNL     1      14.188   5.797  24.064  0.00  0.00    +0.292 HD
ENDBRANCH  26  31
ENDBRANCH  22  23
BRANCH  18  33
ATOM     33  O   UNL     1       3.371   7.108  21.970  0.00  0.00    -0.507 OA
ATOM     34  H   UNL     1       3.619   7.317  21.054  0.00  0.00    +0.292 HD
ENDBRANCH  18  33
BRANCH  21  35
ATOM     35  O   UNL     1       3.611   2.682  23.607  0.00  0.00    -0.506 OA
ATOM     36  H   UNL     1       3.371   2.656  24.547  0.00  0.00    +0.292 HD
ENDBRANCH  21  35
ENDBRANCH  11  12
ENDBRANCH   3  11
BRANCH   5  37
ATOM     37  C   UNL     1       9.237  -0.815  21.584  0.00  0.00    +0.190 C 
BRANCH  37  38
ATOM     38  O   UNL     1      10.477  -1.506  21.480  0.00  0.00    -0.392 OA
ATOM     39  H   UNL     1      10.584  -2.028  22.306  0.00  0.00    +0.210 HD
ENDBRANCH  37  38
ENDBRANCH   5  37
BRANCH   1  40
ATOM     40  O   UNL     1       7.754  -1.952  25.588  0.00  0.00    -0.453 OA
BRANCH  40  41
ATOM     41  C   UNL     1       7.568  -3.130  26.242  0.00  0.00    +0.332 C 
ATOM     42  O   UNL     1       8.358  -3.649  27.013  0.00  0.00    -0.246 OA
BRANCH  41  44
ATOM     43  C   UNL     1       6.293  -4.900  25.145  0.00  0.00    +0.015 C 
ATOM     44  C   UNL     1       6.279  -3.739  25.831  0.00  0.00    +0.092 C 
BRANCH  43  46
ATOM     45  C   UNL     1       4.686  -6.755  25.421  0.00  0.00    +0.011 A 
ATOM     46  C   UNL     1       5.115  -5.646  24.670  0.00  0.00    -0.025 A 
ATOM     47  C   UNL     1       4.441  -5.348  23.483  0.00  0.00    +0.011 A 
ATOM     48  C   UNL     1       3.355  -6.126  23.060  0.00  0.00    +0.046 A 
ATOM     49  C   UNL     1       2.943  -7.218  23.825  0.00  0.00    +0.117 A 
ATOM     50  C   UNL     1       3.600  -7.536  25.004  0.00  0.00    +0.046 A 
BRANCH  49  51
ATOM     51  O   UNL     1       1.891  -7.952  23.372  0.00  0.00    -0.507 OA
ATOM     52  H   UNL     1       1.928  -8.832  23.781  0.00  0.00    +0.292 HD
ENDBRANCH  49  51
ENDBRANCH  43  46
ENDBRANCH  41  44
ENDBRANCH  40  41
ENDBRANCH   1  40
TORSDOF 16
ENDMDL
MODEL 3
REMARK VINA RESULT:      -6.7      1.919      4.534
REMARK  Name = 
REMARK  16 active torsions:
REMARK  status: ('A' for Active; 'I' for Inactive)
REMARK    1  A    between atoms: C_3  and  O_44
REMARK    2  A    between atoms: C_6  and  C_7
REMARK    3  A    between atoms: C_8  and  C_9
REMARK    4  A    between atoms: C_9  and  O_11
REMARK    5  A    between atoms: O_11  and  C_12
REMARK    6  A    between atoms: C_13  and  O_43
REMARK    7  A    between atoms: C_14  and  C_41
REMARK    8  A    between atoms: C_16  and  O_19
REMARK    9  A    between atoms: C_17  and  O_18
REMARK   10  A    between atoms: O_19  and  C_20
REMARK   11  A    between atoms: C_21  and  C_33
REMARK   12  A    between atoms: C_25  and  O_32
REMARK   13  A    between atoms: C_27  and  O_31
REMARK   14  A    between atoms: C_35  and  O_40
REMARK   15  A    between atoms: C_36  and  O_39
REMARK   16  A    between atoms: C_41  and  O_42
REMARK                            x       y       z     vdW  Elec       q    Type
REMARK                         _______ _______ _______ _____ _____    ______ ____
ROOT
ATOM      1  C   UNL     1       9.830  -1.521  23.929  0.00  0.00    +0.242 C 
ATOM      2  C   UNL     1       9.485  -0.577  25.088  0.00  0.00    +0.226 C 
ATOM      3  C   UNL     1       8.153   0.163  24.789  0.00  0.00    +0.341 C 
ATOM      4  O   UNL     1       8.354   0.962  23.598  0.00  0.00    -0.331 OA
ATOM      5  C   UNL     1       8.654   0.159  22.440  0.00  0.00    +0.180 C 
ATOM      6  C   UNL     1       9.932  -0.685  22.645  0.00  0.00    +0.189 C 
ENDROOT
BRANCH   6   7
ATOM      7  O   UNL     1      10.203  -1.495  21.496  0.00  0.00    -0.385 OA
ATOM      8  H   UNL     1       9.451  -2.104  21.372  0.00  0.00    +0.210 HD
ENDBRANCH   6   7
BRANCH   2   9
ATOM      9  O   UNL     1      10.556   0.383  25.241  0.00  0.00    -0.382 OA
ATOM     10  H   UNL     1      11.342   0.002  24.801  0.00  0.00    +0.210 HD
ENDBRANCH   2   9
BRANCH   3  11
ATOM     11  O   UNL     1       7.854   1.073  25.867  0.00  0.00    -0.453 OA
BRANCH  11  12
ATOM     12  C   UNL     1       6.539   1.475  26.090  0.00  0.00    +0.214 A 
ATOM     13  C   UNL     1       5.587   0.613  26.844  0.00  0.00    +0.238 A 
ATOM     14  O   UNL     1       5.961  -0.331  27.528  0.00  0.00    -0.283 OA
ATOM     15  C   UNL     1       4.179   0.994  26.856  0.00  0.00    +0.109 A 
ATOM     16  C   UNL     1       3.880   2.319  26.584  0.00  0.00    +0.147 A 
ATOM     17  C   UNL     1       2.611   2.808  26.910  0.00  0.00    +0.092 A 
ATOM     18  C   UNL     1       1.665   1.937  27.461  0.00  0.00    +0.124 A 
ATOM     19  C   UNL     1       1.928   0.580  27.612  0.00  0.00    +0.091 A 
ATOM     20  O   UNL     1       4.802   3.174  26.030  0.00  0.00    -0.451 OA
ATOM     21  C   UNL     1       3.192   0.106  27.299  0.00  0.00    +0.135 A 
ATOM     22  C   UNL     1       6.080   2.692  25.705  0.00  0.00    +0.181 A 
BRANCH  22  23
ATOM     23  C   UNL     1       6.917   3.702  24.973  0.00  0.00    +0.025 A 
ATOM     24  C   UNL     1       7.932   4.411  25.650  0.00  0.00    +0.015 A 
ATOM     25  C   UNL     1       8.773   5.313  24.978  0.00  0.00    +0.050 A 
ATOM     26  C   UNL     1       8.606   5.513  23.618  0.00  0.00    +0.158 A 
ATOM     27  C   UNL     1       7.588   4.863  22.935  0.00  0.00    +0.159 A 
ATOM     28  C   UNL     1       6.731   3.987  23.605  0.00  0.00    +0.060 A 
BRANCH  27  29
ATOM     29  O   UNL     1       7.473   5.101  21.592  0.00  0.00    -0.503 OA
ATOM     30  H   UNL     1       6.621   4.740  21.290  0.00  0.00    +0.292 HD
ENDBRANCH  27  29
BRANCH  26  31
ATOM     31  O   UNL     1       9.456   6.347  22.951  0.00  0.00    -0.503 OA
ATOM     32  H   UNL     1       9.165   7.247  23.199  0.00  0.00    +0.292 HD
ENDBRANCH  26  31
ENDBRANCH  22  23
BRANCH  18  33
ATOM     33  O   UNL     1       0.447   2.376  27.889  0.00  0.00    -0.507 OA
ATOM     34  H   UNL     1      -0.102   1.611  28.130  0.00  0.00    +0.292 HD
ENDBRANCH  18  33
BRANCH  21  35
ATOM     35  O   UNL     1       3.464  -1.229  27.410  0.00  0.00    -0.506 OA
ATOM     36  H   UNL     1       2.678  -1.703  27.725  0.00  0.00    +0.292 HD
ENDBRANCH  21  35
ENDBRANCH  11  12
ENDBRANCH   3  11
BRANCH   5  37
ATOM     37  C   UNL     1       8.831   1.102  21.237  0.00  0.00    +0.190 C 
BRANCH  37  38
ATOM     38  O   UNL     1       9.672   2.212  21.529  0.00  0.00    -0.392 OA
ATOM     39  H   UNL     1      10.464   1.858  21.990  0.00  0.00    +0.210 HD
ENDBRANCH  37  38
ENDBRANCH   5  37
BRANCH   1  40
ATOM     40  O   UNL     1       8.794  -2.530  23.754  0.00  0.00    -0.453 OA
BRANCH  40  41
ATOM     41  C   UNL     1       9.086  -3.790  24.175  0.00  0.00    +0.332 C 
ATOM     42  O   UNL     1      10.188  -4.191  24.513  0.00  0.00    -0.246 OA
BRANCH  41  44
ATOM     43  C   UNL     1       7.149  -4.847  25.221  0.00  0.00    +0.015 C 
ATOM     44  C   UNL     1       7.873  -4.641  24.102  0.00  0.00    +0.092 C 
BRANCH  43  46
ATOM     45  C   UNL     1       5.471  -6.009  26.611  0.00  0.00    +0.011 A 
ATOM     46  C   UNL     1       5.919  -5.649  25.327  0.00  0.00    -0.025 A 
ATOM     47  C   UNL     1       5.209  -6.123  24.221  0.00  0.00    +0.011 A 
ATOM     48  C   UNL     1       4.071  -6.924  24.387  0.00  0.00    +0.046 A 
ATOM     49  C   UNL     1       3.642  -7.262  25.670  0.00  0.00    +0.117 A 
ATOM     50  C   UNL     1       4.333  -6.809  26.783  0.00  0.00    +0.046 A 
BRANCH  49  51
ATOM     51  O   UNL     1       2.538  -8.050  25.786  0.00  0.00    -0.507 OA
ATOM     52  H   UNL     1       1.976  -7.694  26.493  0.00  0.00    +0.292 HD
ENDBRANCH  49  51
ENDBRANCH  43  46
ENDBRANCH  41  44
ENDBRANCH  40  41
ENDBRANCH   1  40
TORSDOF 16
ENDMDL
MODEL 4
REMARK VINA RESULT:      -6.5      2.253      5.935
REMARK  Name = 
REMARK  16 active torsions:
REMARK  status: ('A' for Active; 'I' for Inactive)
REMARK    1  A    between atoms: C_3  and  O_44
REMARK    2  A    between atoms: C_6  and  C_7
REMARK    3  A    between atoms: C_8  and  C_9
REMARK    4  A    between atoms: C_9  and  O_11
REMARK    5  A    between atoms: O_11  and  C_12
REMARK    6  A    between atoms: C_13  and  O_43
REMARK    7  A    between atoms: C_14  and  C_41
REMARK    8  A    between atoms: C_16  and  O_19
REMARK    9  A    between atoms: C_17  and  O_18
REMARK   10  A    between atoms: O_19  and  C_20
REMARK   11  A    between atoms: C_21  and  C_33
REMARK   12  A    between atoms: C_25  and  O_32
REMARK   13  A    between atoms: C_27  and  O_31
REMARK   14  A    between atoms: C_35  and  O_40
REMARK   15  A    between atoms: C_36  and  O_39
REMARK   16  A    between atoms: C_41  and  O_42
REMARK                            x       y       z     vdW  Elec       q    Type
REMARK                         _______ _______ _______ _____ _____    ______ ____
ROOT
ATOM      1  C   UNL     1       9.896  -1.171  24.377  0.00  0.00    +0.242 C 
ATOM      2  C   UNL     1       9.782   0.063  25.281  0.00  0.00    +0.226 C 
ATOM      3  C   UNL     1       8.508   0.871  24.915  0.00  0.00    +0.341 C 
ATOM      4  O   UNL     1       8.654   1.323  23.547  0.00  0.00    -0.331 OA
ATOM      5  C   UNL     1       8.739   0.231  22.611  0.00  0.00    +0.180 C 
ATOM      6  C   UNL     1       9.939  -0.693  22.919  0.00  0.00    +0.189 C 
ENDROOT
BRANCH   6   7
ATOM      7  O   UNL     1       9.996  -1.787  21.996  0.00  0.00    -0.385 OA
ATOM      8  H   UNL     1       9.893  -2.614  22.503  0.00  0.00    +0.210 HD
ENDBRANCH   6   7
BRANCH   2   9
ATOM      9  O   UNL     1      10.956   0.888  25.095  0.00  0.00    -0.382 OA
ATOM     10  H   UNL     1      10.948   1.183  24.162  0.00  0.00    +0.210 HD
ENDBRANCH   2   9
BRANCH   3  11
ATOM     11  O   UNL     1       8.426   2.046  25.746  0.00  0.00    -0.453 OA
BRANCH  11  12
ATOM     12  C   UNL     1       7.339   2.909  25.621  0.00  0.00    +0.214 A 
ATOM     13  C   UNL     1       5.962   2.470  25.983  0.00  0.00    +0.238 A 
ATOM     14  O   UNL     1       5.750   1.465  26.650  0.00  0.00    -0.283 OA
ATOM     15  C   UNL     1       4.849   3.344  25.629  0.00  0.00    +0.109 A 
ATOM     16  C   UNL     1       5.138   4.681  25.414  0.00  0.00    +0.147 A 
ATOM     17  C   UNL     1       4.092   5.609  25.410  0.00  0.00    +0.092 A 
ATOM     18  C   UNL     1       2.778   5.157  25.579  0.00  0.00    +0.124 A 
ATOM     19  C   UNL     1       2.482   3.801  25.665  0.00  0.00    +0.091 A 
ATOM     20  O   UNL     1       6.425   5.127  25.234  0.00  0.00    -0.451 OA
ATOM     21  C   UNL     1       3.526   2.889  25.682  0.00  0.00    +0.135 A 
ATOM     22  C   UNL     1       7.482   4.203  25.242  0.00  0.00    +0.181 A 
BRANCH  22  23
ATOM     23  C   UNL     1       8.802   4.821  24.884  0.00  0.00    +0.025 A 
ATOM     24  C   UNL     1       9.248   5.985  25.546  0.00  0.00    +0.015 A 
ATOM     25  C   UNL     1      10.507   6.549  25.278  0.00  0.00    +0.050 A 
ATOM     26  C   UNL     1      11.334   5.950  24.342  0.00  0.00    +0.158 A 
ATOM     27  C   UNL     1      10.904   4.830  23.644  0.00  0.00    +0.159 A 
ATOM     28  C   UNL     1       9.641   4.284  23.886  0.00  0.00    +0.060 A 
BRANCH  27  29
ATOM     29  O   UNL     1      11.765   4.283  22.732  0.00  0.00    -0.503 OA
ATOM     30  H   UNL     1      11.241   3.923  21.995  0.00  0.00    +0.292 HD
ENDBRANCH  27  29
BRANCH  26  31
ATOM     31  O   UNL     1      12.579   6.462  24.118  0.00  0.00    -0.503 OA
ATOM     32  H   UNL     1      12.845   6.093  23.252  0.00  0.00    +0.292 HD
ENDBRANCH  26  31
ENDBRANCH  22  23
BRANCH  18  33
ATOM     33  O   UNL     1       1.728   6.020  25.681  0.00  0.00    -0.507 OA
ATOM     34  H   UNL     1       1.144   5.730  26.402  0.00  0.00    +0.292 HD
ENDBRANCH  18  33
BRANCH  21  35
ATOM     35  O   UNL     1       3.258   1.550  25.735  0.00  0.00    -0.506 OA
ATOM     36  H   UNL     1       4.065   1.058  25.956  0.00  0.00    +0.292 HD
ENDBRANCH  21  35
ENDBRANCH  11  12
ENDBRANCH   3  11
BRANCH   5  37
ATOM     37  C   UNL     1       8.876   0.821  21.198  0.00  0.00    +0.190 C 
BRANCH  37  38
ATOM     38  O   UNL     1       9.267   2.189  21.209  0.00  0.00    -0.392 OA
ATOM     39  H   UNL     1       9.519   2.407  22.133  0.00  0.00    +0.210 HD
ENDBRANCH  37  38
ENDBRANCH   5  37
BRANCH   1  40
ATOM     40  O   UNL     1       8.750  -2.052  24.552  0.00  0.00    -0.453 OA
BRANCH  40  41
ATOM     41  C   UNL     1       9.011  -3.382  24.678  0.00  0.00    +0.332 C 
ATOM     42  O   UNL     1      10.044  -3.940  24.348  0.00  0.00    -0.246 OA
BRANCH  41  44
ATOM     43  C   UNL     1       7.120  -4.903  24.412  0.00  0.00    +0.015 C 
ATOM     44  C   UNL     1       7.819  -4.080  25.220  0.00  0.00    +0.092 C 
BRANCH  43  46
ATOM     45  C   UNL     1       5.726  -5.980  26.144  0.00  0.00    +0.011 A 
ATOM     46  C   UNL     1       5.926  -5.681  24.784  0.00  0.00    -0.025 A 
ATOM     47  C   UNL     1       5.016  -6.190  23.853  0.00  0.00    +0.011 A 
ATOM     48  C   UNL     1       3.924  -6.965  24.266  0.00  0.00    +0.046 A 
ATOM     49  C   UNL     1       3.743  -7.243  25.621  0.00  0.00    +0.117 A 
ATOM     50  C   UNL     1       4.636  -6.754  26.563  0.00  0.00    +0.046 A 
BRANCH  49  51
ATOM     51  O   UNL     1       2.676  -8.008  25.978  0.00  0.00    -0.507 OA
ATOM     52  H   UNL     1       3.004  -8.827  26.385  0.00  0.00    +0.292 HD
ENDBRANCH  49  51
ENDBRANCH  43  46
ENDBRANCH  41  44
ENDBRANCH  40  41
ENDBRANCH   1  40
TORSDOF 16
ENDMDL
MODEL 5
REMARK VINA RESULT:      -6.4      1.930      7.538
REMARK  Name = 
REMARK  16 active torsions:
REMARK  status: ('A' for Active; 'I' for Inactive)
REMARK    1  A    between atoms: C_3  and  O_44
REMARK    2  A    between atoms: C_6  and  C_7
REMARK    3  A    between atoms: C_8  and  C_9
REMARK    4  A    between atoms: C_9  and  O_11
REMARK    5  A    between atoms: O_11  and  C_12
REMARK    6  A    between atoms: C_13  and  O_43
REMARK    7  A    between atoms: C_14  and  C_41
REMARK    8  A    between atoms: C_16  and  O_19
REMARK    9  A    between atoms: C_17  and  O_18
REMARK   10  A    between atoms: O_19  and  C_20
REMARK   11  A    between atoms: C_21  and  C_33
REMARK   12  A    between atoms: C_25  and  O_32
REMARK   13  A    between atoms: C_27  and  O_31
REMARK   14  A    between atoms: C_35  and  O_40
REMARK   15  A    between atoms: C_36  and  O_39
REMARK   16  A    between atoms: C_41  and  O_42
REMARK                            x       y       z     vdW  Elec       q    Type
REMARK                         _______ _______ _______ _____ _____    ______ ____
ROOT
ATOM      1  C   UNL     1       4.231  -4.094  23.436  0.00  0.00    +0.242 C 
ATOM      2  C   UNL     1       4.137  -3.284  24.736  0.00  0.00    +0.226 C 
ATOM      3  C   UNL     1       4.771  -4.084  25.905  0.00  0.00    +0.341 C 
ATOM      4  O   UNL     1       4.003  -5.299  26.072  0.00  0.00    -0.331 OA
ATOM      5  C   UNL     1       4.054  -6.149  24.909  0.00  0.00    +0.180 C 
ATOM      6  C   UNL     1       3.509  -5.431  23.654  0.00  0.00    +0.189 C 
ENDROOT
BRANCH   6   7
ATOM      7  O   UNL     1       3.590  -6.279  22.502  0.00  0.00    -0.385 OA
ATOM      8  H   UNL     1       4.479  -6.680  22.485  0.00  0.00    +0.210 HD
ENDBRANCH   6   7
BRANCH   2   9
ATOM      9  O   UNL     1       2.743  -3.021  25.021  0.00  0.00    -0.382 OA
ATOM     10  H   UNL     1       2.221  -3.640  24.473  0.00  0.00    +0.210 HD
ENDBRANCH   2   9
BRANCH   3  11
ATOM     11  O   UNL     1       4.649  -3.330  27.128  0.00  0.00    -0.453 OA
BRANCH  11  12
ATOM     12  C   UNL     1       5.251  -2.078  27.234  0.00  0.00    +0.214 A 
ATOM     13  C   UNL     1       4.486  -0.895  27.718  0.00  0.00    +0.238 A 
ATOM     14  O   UNL     1       3.411  -1.003  28.295  0.00  0.00    -0.283 OA
ATOM     15  C   UNL     1       5.110   0.418  27.602  0.00  0.00    +0.109 A 
ATOM     16  C   UNL     1       6.491   0.455  27.497  0.00  0.00    +0.147 A 
ATOM     17  C   UNL     1       7.155   1.665  27.723  0.00  0.00    +0.092 A 
ATOM     18  C   UNL     1       6.407   2.812  28.008  0.00  0.00    +0.124 A 
ATOM     19  C   UNL     1       5.016   2.797  27.985  0.00  0.00    +0.091 A 
ATOM     20  O   UNL     1       7.228  -0.666  27.204  0.00  0.00    -0.451 OA
ATOM     21  C   UNL     1       4.366   1.591  27.773  0.00  0.00    +0.135 A 
ATOM     22  C   UNL     1       6.569  -1.885  26.981  0.00  0.00    +0.181 A 
BRANCH  22  23
ATOM     23  C   UNL     1       7.495  -2.976  26.526  0.00  0.00    +0.025 A 
ATOM     24  C   UNL     1       7.398  -4.271  27.080  0.00  0.00    +0.015 A 
ATOM     25  C   UNL     1       8.207  -5.328  26.629  0.00  0.00    +0.050 A 
ATOM     26  C   UNL     1       9.121  -5.098  25.615  0.00  0.00    +0.158 A 
ATOM     27  C   UNL     1       9.269  -3.824  25.082  0.00  0.00    +0.159 A 
ATOM     28  C   UNL     1       8.488  -2.764  25.548  0.00  0.00    +0.060 A 
BRANCH  27  29
ATOM     29  O   UNL     1      10.190  -3.659  24.083  0.00  0.00    -0.503 OA
ATOM     30  H   UNL     1      10.906  -4.304  24.218  0.00  0.00    +0.292 HD
ENDBRANCH  27  29
BRANCH  26  31
ATOM     31  O   UNL     1       9.870  -6.133  25.136  0.00  0.00    -0.503 OA
ATOM     32  H   UNL     1      10.645  -5.706  24.720  0.00  0.00    +0.292 HD
ENDBRANCH  26  31
ENDBRANCH  22  23
BRANCH  18  33
ATOM     33  O   UNL     1       7.000   3.996  28.333  0.00  0.00    -0.507 OA
ATOM     34  H   UNL     1       7.883   3.822  28.700  0.00  0.00    +0.292 HD
ENDBRANCH  18  33
BRANCH  21  35
ATOM     35  O   UNL     1       3.001   1.557  27.716  0.00  0.00    -0.506 OA
ATOM     36  H   UNL     1       2.707   0.746  27.270  0.00  0.00    +0.292 HD
ENDBRANCH  21  35
ENDBRANCH  11  12
ENDBRANCH   3  11
BRANCH   5  37
ATOM     37  C   UNL     1       3.222  -7.409  25.200  0.00  0.00    +0.190 C 
BRANCH  37  38
ATOM     38  O   UNL     1       3.141  -8.285  24.081  0.00  0.00    -0.392 OA
ATOM     39  H   UNL     1       3.893  -8.062  23.488  0.00  0.00    +0.210 HD
ENDBRANCH  37  38
ENDBRANCH   5  37
BRANCH   1  40
ATOM     40  O   UNL     1       5.620  -4.358  23.087  0.00  0.00    -0.453 OA
BRANCH  40  41
ATOM     41  C   UNL     1       6.058  -3.870  21.895  0.00  0.00    +0.332 C 
ATOM     42  O   UNL     1       5.667  -4.222  20.794  0.00  0.00    -0.246 OA
BRANCH  41  44
ATOM     43  C   UNL     1       6.832  -1.683  22.657  0.00  0.00    +0.015 C 
ATOM     44  C   UNL     1       7.141  -2.882  22.121  0.00  0.00    +0.092 C 
BRANCH  43  46
ATOM     45  C   UNL     1       9.046  -0.632  22.355  0.00  0.00    +0.011 A 
ATOM     46  C   UNL     1       7.776  -0.594  22.959  0.00  0.00    -0.025 A 
ATOM     47  C   UNL     1       7.501   0.439  23.858  0.00  0.00    +0.011 A 
ATOM     48  C   UNL     1       8.461   1.421  24.140  0.00  0.00    +0.046 A 
ATOM     49  C   UNL     1       9.711   1.366  23.524  0.00  0.00    +0.117 A 
ATOM     50  C   UNL     1      10.010   0.347  22.632  0.00  0.00    +0.046 A 
BRANCH  49  51
ATOM     51  O   UNL     1      10.617   2.333  23.834  0.00  0.00    -0.507 OA
ATOM     52  H   UNL     1      11.187   2.483  23.063  0.00  0.00    +0.292 HD
ENDBRANCH  49  51
ENDBRANCH  43  46
ENDBRANCH  41  44
ENDBRANCH  40  41
ENDBRANCH   1  40
TORSDOF 16
ENDMDL
MODEL 6
REMARK VINA RESULT:      -6.2      2.449      6.542
REMARK  Name = 
REMARK  16 active torsions:
REMARK  status: ('A' for Active; 'I' for Inactive)
REMARK    1  A    between atoms: C_3  and  O_44
REMARK    2  A    between atoms: C_6  and  C_7
REMARK    3  A    between atoms: C_8  and  C_9
REMARK    4  A    between atoms: C_9  and  O_11
REMARK    5  A    between atoms: O_11  and  C_12
REMARK    6  A    between atoms: C_13  and  O_43
REMARK    7  A    between atoms: C_14  and  C_41
REMARK    8  A    between atoms: C_16  and  O_19
REMARK    9  A    between atoms: C_17  and  O_18
REMARK   10  A    between atoms: O_19  and  C_20
REMARK   11  A    between atoms: C_21  and  C_33
REMARK   12  A    between atoms: C_25  and  O_32
REMARK   13  A    between atoms: C_27  and  O_31
REMARK   14  A    between atoms: C_35  and  O_40
REMARK   15  A    between atoms: C_36  and  O_39
REMARK   16  A    between atoms: C_41  and  O_42
REMARK                            x       y       z     vdW  Elec       q    Type
REMARK                         _______ _______ _______ _____ _____    ______ ____
ROOT
ATOM      1  C   UNL     1       8.147  -3.261  23.030  0.00  0.00    +0.242 C 
ATOM      2  C   UNL     1       6.644  -3.417  22.765  0.00  0.00    +0.226 C 
ATOM      3  C   UNL     1       5.850  -3.206  24.083  0.00  0.00    +0.341 C 
ATOM      4  O   UNL     1       6.257  -4.241  25.010  0.00  0.00    -0.331 OA
ATOM      5  C   UNL     1       7.656  -4.159  25.349  0.00  0.00    +0.180 C 
ATOM      6  C   UNL     1       8.554  -4.287  24.097  0.00  0.00    +0.189 C 
ENDROOT
BRANCH   6   7
ATOM      7  O   UNL     1       9.939  -4.179  24.446  0.00  0.00    -0.385 OA
ATOM      8  H   UNL     1      10.265  -5.072  24.667  0.00  0.00    +0.210 HD
ENDBRANCH   6   7
BRANCH   2   9
ATOM      9  O   UNL     1       6.398  -4.748  22.252  0.00  0.00    -0.382 OA
ATOM     10  H   UNL     1       7.092  -5.327  22.625  0.00  0.00    +0.210 HD
ENDBRANCH   2   9
BRANCH   3  11
ATOM     11  O   UNL     1       4.442  -3.388  23.833  0.00  0.00    -0.453 OA
BRANCH  11  12
ATOM     12  C   UNL     1       3.747  -4.402  24.488  0.00  0.00    +0.214 A 
ATOM     13  C   UNL     1       3.496  -5.715  23.829  0.00  0.00    +0.238 A 
ATOM     14  O   UNL     1       4.105  -6.069  22.827  0.00  0.00    -0.283 OA
ATOM     15  C   UNL     1       2.585  -6.646  24.483  0.00  0.00    +0.109 A 
ATOM     16  C   UNL     1       2.376  -6.479  25.842  0.00  0.00    +0.147 A 
ATOM     17  C   UNL     1       1.797  -7.522  26.572  0.00  0.00    +0.092 A 
ATOM     18  C   UNL     1       1.406  -8.688  25.905  0.00  0.00    +0.124 A 
ATOM     19  C   UNL     1       1.501  -8.800  24.521  0.00  0.00    +0.091 A 
ATOM     20  O   UNL     1       2.745  -5.330  26.498  0.00  0.00    -0.451 OA
ATOM     21  C   UNL     1       2.088  -7.767  23.807  0.00  0.00    +0.135 A 
ATOM     22  C   UNL     1       3.331  -4.281  25.773  0.00  0.00    +0.181 A 
BRANCH  22  23
ATOM     23  C   UNL     1       3.538  -3.044  26.599  0.00  0.00    +0.025 A 
ATOM     24  C   UNL     1       4.510  -3.024  27.622  0.00  0.00    +0.015 A 
ATOM     25  C   UNL     1       4.771  -1.861  28.368  0.00  0.00    +0.050 A 
ATOM     26  C   UNL     1       4.061  -0.705  28.093  0.00  0.00    +0.158 A 
ATOM     27  C   UNL     1       3.069  -0.707  27.122  0.00  0.00    +0.159 A 
ATOM     28  C   UNL     1       2.786  -1.868  26.399  0.00  0.00    +0.060 A 
BRANCH  27  29
ATOM     29  O   UNL     1       2.401   0.466  26.897  0.00  0.00    -0.503 OA
ATOM     30  H   UNL     1       1.520   0.399  27.303  0.00  0.00    +0.292 HD
ENDBRANCH  27  29
BRANCH  26  31
ATOM     31  O   UNL     1       4.350   0.440  28.777  0.00  0.00    -0.503 OA
ATOM     32  H   UNL     1       3.630   1.058  28.538  0.00  0.00    +0.292 HD
ENDBRANCH  26  31
ENDBRANCH  22  23
BRANCH  18  33
ATOM     33  O   UNL     1       0.928  -9.775  26.575  0.00  0.00    -0.507 OA
ATOM     34  H   UNL     1       1.675 -10.305  26.899  0.00  0.00    +0.292 HD
ENDBRANCH  18  33
BRANCH  21  35
ATOM     35  O   UNL     1       2.163  -7.841  22.445  0.00  0.00    -0.506 OA
ATOM     36  H   UNL     1       2.199  -8.769  22.164  0.00  0.00    +0.292 HD
ENDBRANCH  21  35
ENDBRANCH  11  12
ENDBRANCH   3  11
BRANCH   5  37
ATOM     37  C   UNL     1       7.974  -5.287  26.344  0.00  0.00    +0.190 C 
BRANCH  37  38
ATOM     38  O   UNL     1       9.159  -5.041  27.093  0.00  0.00    -0.392 OA
ATOM     39  H   UNL     1       8.949  -4.326  27.734  0.00  0.00    +0.210 HD
ENDBRANCH  37  38
ENDBRANCH   5  37
BRANCH   1  40
ATOM     40  O   UNL     1       8.453  -1.924  23.519  0.00  0.00    -0.453 OA
BRANCH  40  41
ATOM     41  C   UNL     1       9.511  -1.287  22.949  0.00  0.00    +0.332 C 
ATOM     42  O   UNL     1      10.506  -1.827  22.493  0.00  0.00    -0.246 OA
BRANCH  41  44
ATOM     43  C   UNL     1      10.255   0.938  23.624  0.00  0.00    +0.015 C 
ATOM     44  C   UNL     1       9.316   0.181  23.020  0.00  0.00    +0.092 C 
BRANCH  43  46
ATOM     45  C   UNL     1       9.081   2.992  24.334  0.00  0.00    +0.011 A 
ATOM     46  C   UNL     1      10.229   2.403  23.774  0.00  0.00    -0.025 A 
ATOM     47  C   UNL     1      11.256   3.242  23.333  0.00  0.00    +0.011 A 
ATOM     48  C   UNL     1      11.151   4.634  23.461  0.00  0.00    +0.046 A 
ATOM     49  C   UNL     1      10.006   5.195  24.025  0.00  0.00    +0.117 A 
ATOM     50  C   UNL     1       8.971   4.383  24.465  0.00  0.00    +0.046 A 
BRANCH  49  51
ATOM     51  O   UNL     1       9.941   6.550  24.120  0.00  0.00    -0.507 OA
ATOM     52  H   UNL     1      10.767   6.925  23.775  0.00  0.00    +0.292 HD
ENDBRANCH  49  51
ENDBRANCH  43  46
ENDBRANCH  41  44
ENDBRANCH  40  41
ENDBRANCH   1  40
TORSDOF 16
ENDMDL
MODEL 7
REMARK VINA RESULT:      -6.1      2.017      6.032
REMARK  Name = 
REMARK  16 active torsions:
REMARK  status: ('A' for Active; 'I' for Inactive)
REMARK    1  A    between atoms: C_3  and  O_44
REMARK    2  A    between atoms: C_6  and  C_7
REMARK    3  A    between atoms: C_8  and  C_9
REMARK    4  A    between atoms: C_9  and  O_11
REMARK    5  A    between atoms: O_11  and  C_12
REMARK    6  A    between atoms: C_13  and  O_43
REMARK    7  A    between atoms: C_14  and  C_41
REMARK    8  A    between atoms: C_16  and  O_19
REMARK    9  A    between atoms: C_17  and  O_18
REMARK   10  A    between atoms: O_19  and  C_20
REMARK   11  A    between atoms: C_21  and  C_33
REMARK   12  A    between atoms: C_25  and  O_32
REMARK   13  A    between atoms: C_27  and  O_31
REMARK   14  A    between atoms: C_35  and  O_40
REMARK   15  A    between atoms: C_36  and  O_39
REMARK   16  A    between atoms: C_41  and  O_42
REMARK                            x       y       z     vdW  Elec       q    Type
REMARK                         _______ _______ _______ _____ _____    ______ ____
ROOT
ATOM      1  C   UNL     1       8.873  -2.716  23.551  0.00  0.00    +0.242 C 
ATOM      2  C   UNL     1       8.624  -1.203  23.486  0.00  0.00    +0.226 C 
ATOM      3  C   UNL     1       7.155  -0.891  23.880  0.00  0.00    +0.341 C 
ATOM      4  O   UNL     1       6.295  -1.535  22.910  0.00  0.00    -0.331 OA
ATOM      5  C   UNL     1       6.433  -2.969  22.915  0.00  0.00    +0.180 C 
ATOM      6  C   UNL     1       7.882  -3.405  22.602  0.00  0.00    +0.189 C 
ENDROOT
BRANCH   6   7
ATOM      7  O   UNL     1       8.009  -4.831  22.636  0.00  0.00    -0.385 OA
ATOM      8  H   UNL     1       7.887  -5.166  21.727  0.00  0.00    +0.210 HD
ENDBRANCH   6   7
BRANCH   2   9
ATOM      9  O   UNL     1       8.876  -0.748  22.136  0.00  0.00    -0.382 OA
ATOM     10  H   UNL     1       9.191   0.176  22.203  0.00  0.00    +0.210 HD
ENDBRANCH   2   9
BRANCH   3  11
ATOM     11  O   UNL     1       6.920   0.527  23.784  0.00  0.00    -0.453 OA
BRANCH  11  12
ATOM     12  C   UNL     1       6.497   1.238  24.905  0.00  0.00    +0.214 A 
ATOM     13  C   UNL     1       5.307   0.803  25.689  0.00  0.00    +0.238 A 
ATOM     14  O   UNL     1       4.821  -0.315  25.571  0.00  0.00    -0.283 OA
ATOM     15  C   UNL     1       4.795   1.704  26.714  0.00  0.00    +0.109 A 
ATOM     16  C   UNL     1       5.669   2.657  27.213  0.00  0.00    +0.147 A 
ATOM     17  C   UNL     1       5.350   3.308  28.409  0.00  0.00    +0.092 A 
ATOM     18  C   UNL     1       4.141   3.012  29.047  0.00  0.00    +0.124 A 
ATOM     19  C   UNL     1       3.210   2.151  28.475  0.00  0.00    +0.091 A 
ATOM     20  O   UNL     1       6.851   2.961  26.583  0.00  0.00    -0.451 OA
ATOM     21  C   UNL     1       3.539   1.500  27.297  0.00  0.00    +0.135 A 
ATOM     22  C   UNL     1       7.180   2.307  25.385  0.00  0.00    +0.181 A 
BRANCH  22  23
ATOM     23  C   UNL     1       8.423   2.854  24.743  0.00  0.00    +0.025 A 
ATOM     24  C   UNL     1       9.533   2.014  24.510  0.00  0.00    +0.015 A 
ATOM     25  C   UNL     1      10.685   2.481  23.853  0.00  0.00    +0.050 A 
ATOM     26  C   UNL     1      10.734   3.795  23.421  0.00  0.00    +0.158 A 
ATOM     27  C   UNL     1       9.675   4.655  23.676  0.00  0.00    +0.159 A 
ATOM     28  C   UNL     1       8.540   4.204  24.354  0.00  0.00    +0.060 A 
BRANCH  27  29
ATOM     29  O   UNL     1       9.782   5.943  23.224  0.00  0.00    -0.503 OA
ATOM     30  H   UNL     1      10.135   5.919  22.317  0.00  0.00    +0.292 HD
ENDBRANCH  27  29
BRANCH  26  31
ATOM     31  O   UNL     1      11.827   4.237  22.735  0.00  0.00    -0.503 OA
ATOM     32  H   UNL     1      11.669   3.957  21.811  0.00  0.00    +0.292 HD
ENDBRANCH  26  31
ENDBRANCH  22  23
BRANCH  18  33
ATOM     33  O   UNL     1       3.820   3.540  30.262  0.00  0.00    -0.507 OA
ATOM     34  H   UNL     1       3.615   4.484  30.157  0.00  0.00    +0.292 HD
ENDBRANCH  18  33
BRANCH  21  35
ATOM     35  O   UNL     1       2.629   0.673  26.701  0.00  0.00    -0.506 OA
ATOM     36  H   UNL     1       2.477   0.952  25.784  0.00  0.00    +0.292 HD
ENDBRANCH  21  35
ENDBRANCH  11  12
ENDBRANCH   3  11
BRANCH   5  37
ATOM     37  C   UNL     1       5.469  -3.547  21.865  0.00  0.00    +0.190 C 
BRANCH  37  38
ATOM     38  O   UNL     1       5.019  -4.857  22.193  0.00  0.00    -0.392 OA
ATOM     39  H   UNL     1       4.095  -4.770  22.515  0.00  0.00    +0.210 HD
ENDBRANCH  37  38
ENDBRANCH   5  37
BRANCH   1  40
ATOM     40  O   UNL     1       8.663  -3.220  24.901  0.00  0.00    -0.453 OA
BRANCH  40  41
ATOM     41  C   UNL     1       9.262  -4.399  25.217  0.00  0.00    +0.332 C 
ATOM     42  O   UNL     1      10.327  -4.799  24.773  0.00  0.00    -0.246 OA
BRANCH  41  44
ATOM     43  C   UNL     1       7.069  -4.943  26.141  0.00  0.00    +0.015 C 
ATOM     44  C   UNL     1       8.398  -5.175  26.140  0.00  0.00    +0.092 C 
BRANCH  43  46
ATOM     45  C   UNL     1       6.362  -5.821  28.339  0.00  0.00    +0.011 A 
ATOM     46  C   UNL     1       6.067  -5.624  26.978  0.00  0.00    -0.025 A 
ATOM     47  C   UNL     1       4.867  -6.139  26.479  0.00  0.00    +0.011 A 
ATOM     48  C   UNL     1       3.975  -6.821  27.318  0.00  0.00    +0.046 A 
ATOM     49  C   UNL     1       4.287  -6.998  28.666  0.00  0.00    +0.117 A 
ATOM     50  C   UNL     1       5.474  -6.502  29.182  0.00  0.00    +0.046 A 
BRANCH  49  51
ATOM     51  O   UNL     1       3.398  -7.676  29.442  0.00  0.00    -0.507 OA
ATOM     52  H   UNL     1       3.756  -7.738  30.342  0.00  0.00    +0.292 HD
ENDBRANCH  49  51
ENDBRANCH  43  46
ENDBRANCH  41  44
ENDBRANCH  40  41
ENDBRANCH   1  40
TORSDOF 16
ENDMDL
MODEL 8
REMARK VINA RESULT:      -6.0      2.902      6.821
REMARK  Name = 
REMARK  16 active torsions:
REMARK  status: ('A' for Active; 'I' for Inactive)
REMARK    1  A    between atoms: C_3  and  O_44
REMARK    2  A    between atoms: C_6  and  C_7
REMARK    3  A    between atoms: C_8  and  C_9
REMARK    4  A    between atoms: C_9  and  O_11
REMARK    5  A    between atoms: O_11  and  C_12
REMARK    6  A    between atoms: C_13  and  O_43
REMARK    7  A    between atoms: C_14  and  C_41
REMARK    8  A    between atoms: C_16  and  O_19
REMARK    9  A    between atoms: C_17  and  O_18
REMARK   10  A    between atoms: O_19  and  C_20
REMARK   11  A    between atoms: C_21  and  C_33
REMARK   12  A    between atoms: C_25  and  O_32
REMARK   13  A    between atoms: C_27  and  O_31
REMARK   14  A    between atoms: C_35  and  O_40
REMARK   15  A    between atoms: C_36  and  O_39
REMARK   16  A    between atoms: C_41  and  O_42
REMARK                            x       y       z     vdW  Elec       q    Type
REMARK                         _______ _______ _______ _____ _____    ______ ____
ROOT
ATOM      1  C   UNL     1       7.972  -0.341  24.767  0.00  0.00    +0.242 C 
ATOM      2  C   UNL     1       7.101   0.768  25.369  0.00  0.00    +0.226 C 
ATOM      3  C   UNL     1       7.084   2.000  24.424  0.00  0.00    +0.341 C 
ATOM      4  O   UNL     1       8.441   2.494  24.324  0.00  0.00    -0.331 OA
ATOM      5  C   UNL     1       9.337   1.530  23.737  0.00  0.00    +0.180 C 
ATOM      6  C   UNL     1       9.385   0.222  24.558  0.00  0.00    +0.189 C 
ENDROOT
BRANCH   6   7
ATOM      7  O   UNL     1      10.261  -0.735  23.949  0.00  0.00    -0.385 OA
ATOM      8  H   UNL     1      11.164  -0.367  23.960  0.00  0.00    +0.210 HD
ENDBRANCH   6   7
BRANCH   2   9
ATOM      9  O   UNL     1       7.648   1.144  26.655  0.00  0.00    -0.382 OA
ATOM     10  H   UNL     1       8.124   1.989  26.523  0.00  0.00    +0.210 HD
ENDBRANCH   2   9
BRANCH   3  11
ATOM     11  O   UNL     1       6.291   3.050  25.013  0.00  0.00    -0.453 OA
BRANCH  11  12
ATOM     12  C   UNL     1       5.529   3.884  24.198  0.00  0.00    +0.214 A 
ATOM     13  C   UNL     1       4.161   3.492  23.758  0.00  0.00    +0.238 A 
ATOM     14  O   UNL     1       3.538   2.584  24.294  0.00  0.00    -0.283 OA
ATOM     15  C   UNL     1       3.508   4.306  22.740  0.00  0.00    +0.109 A 
ATOM     16  C   UNL     1       3.964   5.605  22.581  0.00  0.00    +0.147 A 
ATOM     17  C   UNL     1       3.173   6.519  21.878  0.00  0.00    +0.092 A 
ATOM     18  C   UNL     1       1.964   6.089  21.320  0.00  0.00    +0.124 A 
ATOM     19  C   UNL     1       1.574   4.755  21.373  0.00  0.00    +0.091 A 
ATOM     20  O   UNL     1       5.156   6.028  23.115  0.00  0.00    -0.451 OA
ATOM     21  C   UNL     1       2.357   3.858  22.082  0.00  0.00    +0.135 A 
ATOM     22  C   UNL     1       5.954   5.117  23.826  0.00  0.00    +0.181 A 
BRANCH  22  23
ATOM     23  C   UNL     1       7.287   5.688  24.215  0.00  0.00    +0.025 A 
ATOM     24  C   UNL     1       7.461   6.301  25.475  0.00  0.00    +0.015 A 
ATOM     25  C   UNL     1       8.712   6.785  25.893  0.00  0.00    +0.050 A 
ATOM     26  C   UNL     1       9.804   6.658  25.052  0.00  0.00    +0.158 A 
ATOM     27  C   UNL     1       9.654   6.099  23.790  0.00  0.00    +0.159 A 
ATOM     28  C   UNL     1       8.407   5.643  23.359  0.00  0.00    +0.060 A 
BRANCH  27  29
ATOM     29  O   UNL     1      10.771   6.000  23.005  0.00  0.00    -0.503 OA
ATOM     30  H   UNL     1      10.740   6.711  22.340  0.00  0.00    +0.292 HD
ENDBRANCH  27  29
BRANCH  26  31
ATOM     31  O   UNL     1      11.032   7.077  25.475  0.00  0.00    -0.503 OA
ATOM     32  H   UNL     1      11.409   7.553  24.708  0.00  0.00    +0.292 HD
ENDBRANCH  26  31
ENDBRANCH  22  23
BRANCH  18  33
ATOM     33  O   UNL     1       1.105   6.954  20.710  0.00  0.00    -0.507 OA
ATOM     34  H   UNL     1       0.780   7.597  21.362  0.00  0.00    +0.292 HD
ENDBRANCH  18  33
BRANCH  21  35
ATOM     35  O   UNL     1       2.010   2.537  22.121  0.00  0.00    -0.506 OA
ATOM     36  H   UNL     1       2.599   2.056  22.724  0.00  0.00    +0.292 HD
ENDBRANCH  21  35
ENDBRANCH  11  12
ENDBRANCH   3  11
BRANCH   5  37
ATOM     37  C   UNL     1      10.738   2.160  23.665  0.00  0.00    +0.190 C 
BRANCH  37  38
ATOM     38  O   UNL     1      10.868   3.090  22.595  0.00  0.00    -0.392 OA
ATOM     39  H   UNL     1      10.346   3.886  22.842  0.00  0.00    +0.210 HD
ENDBRANCH  37  38
ENDBRANCH   5  37
BRANCH   1  40
ATOM     40  O   UNL     1       7.443  -0.779  23.483  0.00  0.00    -0.453 OA
BRANCH  40  41
ATOM     41  C   UNL     1       7.456  -2.116  23.236  0.00  0.00    +0.332 C 
ATOM     42  O   UNL     1       7.693  -2.640  22.160  0.00  0.00    -0.246 OA
BRANCH  41  44
ATOM     43  C   UNL     1       6.565  -4.105  24.338  0.00  0.00    +0.015 C 
ATOM     44  C   UNL     1       7.069  -2.860  24.460  0.00  0.00    +0.092 C 
BRANCH  43  46
ATOM     45  C   UNL     1       6.772  -4.835  26.688  0.00  0.00    +0.011 A 
ATOM     46  C   UNL     1       6.142  -4.986  25.440  0.00  0.00    -0.025 A 
ATOM     47  C   UNL     1       5.194  -6.002  25.295  0.00  0.00    +0.011 A 
ATOM     48  C   UNL     1       4.869  -6.839  26.370  0.00  0.00    +0.046 A 
ATOM     49  C   UNL     1       5.502  -6.667  27.601  0.00  0.00    +0.117 A 
ATOM     50  C   UNL     1       6.451  -5.669  27.767  0.00  0.00    +0.046 A 
BRANCH  49  51
ATOM     51  O   UNL     1       5.165  -7.509  28.615  0.00  0.00    -0.507 OA
ATOM     52  H   UNL     1       5.413  -8.413  28.363  0.00  0.00    +0.292 HD
ENDBRANCH  49  51
ENDBRANCH  43  46
ENDBRANCH  41  44
ENDBRANCH  40  41
ENDBRANCH   1  40
TORSDOF 16
ENDMDL
MODEL 9
REMARK VINA RESULT:      -5.7      2.023      6.615
REMARK  Name = 
REMARK  16 active torsions:
REMARK  status: ('A' for Active; 'I' for Inactive)
REMARK    1  A    between atoms: C_3  and  O_44
REMARK    2  A    between atoms: C_6  and  C_7
REMARK    3  A    between atoms: C_8  and  C_9
REMARK    4  A    between atoms: C_9  and  O_11
REMARK    5  A    between atoms: O_11  and  C_12
REMARK    6  A    between atoms: C_13  and  O_43
REMARK    7  A    between atoms: C_14  and  C_41
REMARK    8  A    between atoms: C_16  and  O_19
REMARK    9  A    between atoms: C_17  and  O_18
REMARK   10  A    between atoms: O_19  and  C_20
REMARK   11  A    between atoms: C_21  and  C_33
REMARK   12  A    between atoms: C_25  and  O_32
REMARK   13  A    between atoms: C_27  and  O_31
REMARK   14  A    between atoms: C_35  and  O_40
REMARK   15  A    between atoms: C_36  and  O_39
REMARK   16  A    between atoms: C_41  and  O_42
REMARK                            x       y       z     vdW  Elec       q    Type
REMARK                         _______ _______ _______ _____ _____    ______ ____
ROOT
ATOM      1  C   UNL     1       8.602  -3.220  23.632  0.00  0.00    +0.242 C 
ATOM      2  C   UNL     1       8.119  -1.811  23.265  0.00  0.00    +0.226 C 
ATOM      3  C   UNL     1       6.620  -1.652  23.635  0.00  0.00    +0.341 C 
ATOM      4  O   UNL     1       5.870  -2.607  22.847  0.00  0.00    -0.331 OA
ATOM      5  C   UNL     1       6.231  -3.971  23.142  0.00  0.00    +0.180 C 
ATOM      6  C   UNL     1       7.730  -4.235  22.878  0.00  0.00    +0.189 C 
ENDROOT
BRANCH   6   7
ATOM      7  O   UNL     1       8.078  -5.587  23.200  0.00  0.00    -0.385 OA
ATOM      8  H   UNL     1       8.630  -5.572  24.005  0.00  0.00    +0.210 HD
ENDBRANCH   6   7
BRANCH   2   9
ATOM      9  O   UNL     1       8.297  -1.613  21.843  0.00  0.00    -0.382 OA
ATOM     10  H   UNL     1       7.422  -1.371  21.480  0.00  0.00    +0.210 HD
ENDBRANCH   2   9
BRANCH   3  11
ATOM     11  O   UNL     1       6.166  -0.337  23.257  0.00  0.00    -0.453 OA
BRANCH  11  12
ATOM     12  C   UNL     1       6.798   0.791  23.776  0.00  0.00    +0.214 A 
ATOM     13  C   UNL     1       7.788   1.559  22.971  0.00  0.00    +0.238 A 
ATOM     14  O   UNL     1       7.891   1.421  21.758  0.00  0.00    -0.283 OA
ATOM     15  C   UNL     1       8.564   2.593  23.644  0.00  0.00    +0.109 A 
ATOM     16  C   UNL     1       8.043   3.113  24.818  0.00  0.00    +0.147 A 
ATOM     17  C   UNL     1       8.557   4.315  25.314  0.00  0.00    +0.092 A 
ATOM     18  C   UNL     1       9.609   4.940  24.636  0.00  0.00    +0.124 A 
ATOM     19  C   UNL     1      10.214   4.348  23.531  0.00  0.00    +0.091 A 
ATOM     20  O   UNL     1       7.018   2.496  25.494  0.00  0.00    -0.451 OA
ATOM     21  C   UNL     1       9.690   3.163  23.039  0.00  0.00    +0.135 A 
ATOM     22  C   UNL     1       6.494   1.291  25.000  0.00  0.00    +0.181 A 
BRANCH  22  23
ATOM     23  C   UNL     1       5.490   0.667  25.926  0.00  0.00    +0.025 A 
ATOM     24  C   UNL     1       4.274   1.327  26.207  0.00  0.00    +0.015 A 
ATOM     25  C   UNL     1       3.288   0.738  27.017  0.00  0.00    +0.050 A 
ATOM     26  C   UNL     1       3.510  -0.519  27.552  0.00  0.00    +0.158 A 
ATOM     27  C   UNL     1       4.714  -1.172  27.328  0.00  0.00    +0.159 A 
ATOM     28  C   UNL     1       5.709  -0.579  26.548  0.00  0.00    +0.060 A 
BRANCH  27  29
ATOM     29  O   UNL     1       4.874  -2.412  27.884  0.00  0.00    -0.503 OA
ATOM     30  H   UNL     1       5.658  -2.827  27.483  0.00  0.00    +0.292 HD
ENDBRANCH  27  29
BRANCH  26  31
ATOM     31  O   UNL     1       2.533  -1.117  28.294  0.00  0.00    -0.503 OA
ATOM     32  H   UNL     1       2.706  -0.826  29.212  0.00  0.00    +0.292 HD
ENDBRANCH  26  31
ENDBRANCH  22  23
BRANCH  18  33
ATOM     33  O   UNL     1      10.086   6.160  25.014  0.00  0.00    -0.507 OA
ATOM     34  H   UNL     1       9.563   6.489  25.764  0.00  0.00    +0.292 HD
ENDBRANCH  18  33
BRANCH  21  35
ATOM     35  O   UNL     1      10.287   2.548  21.974  0.00  0.00    -0.506 OA
ATOM     36  H   UNL     1      11.211   2.836  21.900  0.00  0.00    +0.292 HD
ENDBRANCH  21  35
ENDBRANCH  11  12
ENDBRANCH   3  11
BRANCH   5  37
ATOM     37  C   UNL     1       5.369  -4.894  22.266  0.00  0.00    +0.190 C 
BRANCH  37  38
ATOM     38  O   UNL     1       5.970  -5.177  21.008  0.00  0.00    -0.392 OA
ATOM     39  H   UNL     1       6.923  -4.947  21.087  0.00  0.00    +0.210 HD
ENDBRANCH  37  38
ENDBRANCH   5  37
BRANCH   1  40
ATOM     40  O   UNL     1       8.473  -3.458  25.063  0.00  0.00    -0.453 OA
BRANCH  40  41
ATOM     41  C   UNL     1       9.118  -4.545  25.566  0.00  0.00    +0.332 C 
ATOM     42  O   UNL     1      10.202  -4.966  25.194  0.00  0.00    -0.246 OA
BRANCH  41  44
ATOM     43  C   UNL     1       6.936  -5.102  26.509  0.00  0.00    +0.015 C 
ATOM     44  C   UNL     1       8.278  -5.197  26.600  0.00  0.00    +0.092 C 
BRANCH  43  46
ATOM     45  C   UNL     1       6.320  -5.833  28.786  0.00  0.00    +0.011 A 
ATOM     46  C   UNL     1       5.956  -5.693  27.435  0.00  0.00    -0.025 A 
ATOM     47  C   UNL     1       4.709  -6.179  27.032  0.00  0.00    +0.011 A 
ATOM     48  C   UNL     1       3.838  -6.776  27.954  0.00  0.00    +0.046 A 
ATOM     49  C   UNL     1       4.219  -6.898  29.290  0.00  0.00    +0.117 A 
ATOM     50  C   UNL     1       5.454  -6.429  29.713  0.00  0.00    +0.046 A 
BRANCH  49  51
ATOM     51  O   UNL     1       3.349  -7.493  30.149  0.00  0.00    -0.507 OA
ATOM     52  H   UNL     1       2.797  -6.806  30.557  0.00  0.00    +0.292 HD
ENDBRANCH  49  51
ENDBRANCH  43  46
ENDBRANCH  41  44
ENDBRANCH  40  41
ENDBRANCH   1  40
TORSDOF 16
ENDMDL
