MODEL 1
REMARK VINA RESULT:      -7.3      0.000      0.000
REMARK  Name = 
REMARK  17 active torsions:
REMARK  status: ('A' for Active; 'I' for Inactive)
REMARK    1  A    between atoms: C_3  and  O_47
REMARK    2  A    between atoms: C_4  and  O_46
REMARK    3  A    between atoms: C_6  and  C_7
REMARK    4  A    between atoms: C_8  and  O_20
REMARK    5  A    between atoms: C_12  and  O_19
REMARK    6  A    between atoms: C_14  and  O_18
REMARK    7  A    between atoms: O_20  and  C_21
REMARK    8  A    between atoms: C_23  and  O_45
REMARK    9  A    between atoms: C_24  and  O_44
REMARK   10  A    between atoms: C_25  and  O_43
REMARK   11  A    between atoms: C_27  and  C_30
REMARK   12  A    between atoms: C_30  and  O_31
REMARK   13  A    between atoms: O_31  and  C_32
REMARK   14  A    between atoms: C_32  and  C_34
REMARK   15  A    between atoms: C_36  and  O_42
REMARK   16  A    between atoms: C_37  and  O_41
REMARK   17  A    between atoms: C_38  and  O_40
REMARK                            x       y       z     vdW  Elec       q    Type
REMARK                         _______ _______ _______ _____ _____    ______ ____
ROOT
ATOM      1  C   UNL     1       5.003  -3.858  28.231  0.00  0.00    +0.340 C 
ATOM      2  O   UNL     1       6.299  -4.374  27.950  0.00  0.00    -0.330 OA
ATOM      3  C   UNL     1       6.579  -5.764  27.710  0.00  0.00    +0.191 C 
ATOM      4  C   UNL     1       5.394  -6.758  27.703  0.00  0.00    +0.178 C 
ATOM      5  C   UNL     1       4.046  -6.060  27.827  0.00  0.00    +0.180 C 
ATOM      6  C   UNL     1       4.144  -4.937  28.875  0.00  0.00    +0.214 C 
ENDROOT
BRANCH   4   7
ATOM      7  O   UNL     1       5.489  -7.653  28.836  0.00  0.00    -0.386 OA
ATOM      8  H   UNL     1       5.880  -7.104  29.554  0.00  0.00    +0.210 HD
ENDBRANCH   4   7
BRANCH   5   9
ATOM      9  O   UNL     1       3.042  -7.009  28.220  0.00  0.00    -0.386 OA
ATOM     10  H   UNL     1       2.564  -6.565  28.953  0.00  0.00    +0.210 HD
ENDBRANCH   5   9
BRANCH   6  11
ATOM     11  O   UNL     1       2.827  -4.457  29.188  0.00  0.00    -0.383 OA
ATOM     12  H   UNL     1       2.935  -3.582  29.608  0.00  0.00    +0.210 HD
ENDBRANCH   6  11
BRANCH   1  13
ATOM     13  O   UNL     1       4.137  -3.372  27.150  0.00  0.00    -0.453 OA
BRANCH  13  24
ATOM     14  C   UNL     1       5.035  -2.336  25.146  0.00  0.00    +0.181 A 
ATOM     15  O   UNL     1       5.486  -1.156  24.518  0.00  0.00    -0.451 OA
ATOM     16  C   UNL     1       5.458   0.036  25.182  0.00  0.00    +0.147 A 
ATOM     17  C   UNL     1       4.710   0.208  26.327  0.00  0.00    +0.109 A 
ATOM     18  C   UNL     1       4.647   1.448  26.969  0.00  0.00    +0.135 A 
ATOM     19  C   UNL     1       5.352   2.527  26.457  0.00  0.00    +0.091 A 
ATOM     20  C   UNL     1       6.102   2.352  25.296  0.00  0.00    +0.124 A 
ATOM     21  C   UNL     1       3.968  -0.936  26.816  0.00  0.00    +0.238 A 
ATOM     22  O   UNL     1       3.025  -0.721  27.569  0.00  0.00    -0.283 OA
ATOM     23  C   UNL     1       6.161   1.115  24.651  0.00  0.00    +0.092 A 
ATOM     24  C   UNL     1       4.386  -2.290  26.349  0.00  0.00    +0.214 A 
BRANCH  14  26
ATOM     25  C   UNL     1       5.944  -3.223  22.961  0.00  0.00    +0.015 A 
ATOM     26  C   UNL     1       5.307  -3.516  24.209  0.00  0.00    +0.025 A 
ATOM     27  C   UNL     1       4.946  -4.861  24.393  0.00  0.00    +0.060 A 
ATOM     28  C   UNL     1       5.114  -5.794  23.344  0.00  0.00    +0.159 A 
ATOM     29  C   UNL     1       5.637  -5.427  22.100  0.00  0.00    +0.158 A 
ATOM     30  C   UNL     1       6.095  -4.148  21.916  0.00  0.00    +0.050 A 
BRANCH  28  31
ATOM     31  O   UNL     1       4.724  -7.096  23.537  0.00  0.00    -0.503 OA
ATOM     32  H   UNL     1       5.221  -7.614  22.864  0.00  0.00    +0.292 HD
ENDBRANCH  28  31
BRANCH  29  33
ATOM     33  O   UNL     1       5.661  -6.364  21.102  0.00  0.00    -0.503 OA
ATOM     34  H   UNL     1       5.157  -6.015  20.345  0.00  0.00    +0.292 HD
ENDBRANCH  29  33
ENDBRANCH  14  26
BRANCH  20  35
ATOM     35  O   UNL     1       6.793   3.399  24.751  0.00  0.00    -0.507 OA
ATOM     36  H   UNL     1       7.650   3.478  25.208  0.00  0.00    +0.292 HD
ENDBRANCH  20  35
BRANCH  18  37
ATOM     37  O   UNL     1       3.903   1.664  28.097  0.00  0.00    -0.506 OA
ATOM     38  H   UNL     1       4.204   2.510  28.504  0.00  0.00    +0.292 HD
ENDBRANCH  18  37
ENDBRANCH  13  24
ENDBRANCH   1  13
BRANCH   3  39
ATOM     39  C   UNL     1       7.386  -5.732  26.403  0.00  0.00    +0.266 C 
BRANCH  39  40
ATOM     40  O   UNL     1       8.400  -4.732  26.340  0.00  0.00    -0.458 OA
BRANCH  40  41
ATOM     41  C   UNL     1       8.741  -4.290  25.106  0.00  0.00    +0.340 C 
ATOM     42  O   UNL     1       8.893  -4.972  24.104  0.00  0.00    -0.245 OA
BRANCH  41  43
ATOM     43  C   UNL     1       8.974  -2.820  25.157  0.00  0.00    +0.066 A 
ATOM     44  C   UNL     1       8.563  -2.058  26.262  0.00  0.00    +0.064 A 
ATOM     45  C   UNL     1       8.821  -0.695  26.286  0.00  0.00    +0.163 A 
ATOM     46  C   UNL     1       9.479  -0.083  25.231  0.00  0.00    +0.201 A 
ATOM     47  C   UNL     1       9.896  -0.833  24.132  0.00  0.00    +0.163 A 
ATOM     48  C   UNL     1       9.658  -2.204  24.090  0.00  0.00    +0.064 A 
BRANCH  45  49
ATOM     49  O   UNL     1       8.411   0.038  27.361  0.00  0.00    -0.503 OA
ATOM     50  H   UNL     1       9.186   0.588  27.595  0.00  0.00    +0.292 HD
ENDBRANCH  45  49
BRANCH  46  51
ATOM     51  O   UNL     1       9.702   1.266  25.285  0.00  0.00    -0.501 OA
ATOM     52  H   UNL     1      10.194   1.467  24.464  0.00  0.00    +0.292 HD
ENDBRANCH  46  51
BRANCH  47  53
ATOM     53  O   UNL     1      10.519  -0.168  23.114  0.00  0.00    -0.503 OA
ATOM     54  H   UNL     1      10.351  -0.650  22.284  0.00  0.00    +0.292 HD
ENDBRANCH  47  53
ENDBRANCH  41  43
ENDBRANCH  40  41
ENDBRANCH  39  40
ENDBRANCH   3  39
TORSDOF 17
ENDMDL
MODEL 2
REMARK VINA RESULT:      -7.3      2.818      6.646
REMARK  Name = 
REMARK  17 active torsions:
REMARK  status: ('A' for Active; 'I' for Inactive)
REMARK    1  A    between atoms: C_3  and  O_47
REMARK    2  A    between atoms: C_4  and  O_46
REMARK    3  A    between atoms: C_6  and  C_7
REMARK    4  A    between atoms: C_8  and  O_20
REMARK    5  A    between atoms: C_12  and  O_19
REMARK    6  A    between atoms: C_14  and  O_18
REMARK    7  A    between atoms: O_20  and  C_21
REMARK    8  A    between atoms: C_23  and  O_45
REMARK    9  A    between atoms: C_24  and  O_44
REMARK   10  A    between atoms: C_25  and  O_43
REMARK   11  A    between atoms: C_27  and  C_30
REMARK   12  A    between atoms: C_30  and  O_31
REMARK   13  A    between atoms: O_31  and  C_32
REMARK   14  A    between atoms: C_32  and  C_34
REMARK   15  A    between atoms: C_36  and  O_42
REMARK   16  A    between atoms: C_37  and  O_41
REMARK   17  A    between atoms: C_38  and  O_40
REMARK                            x       y       z     vdW  Elec       q    Type
REMARK                         _______ _______ _______ _____ _____    ______ ____
ROOT
ATOM      1  C   UNL     1       7.132   1.946  26.383  0.00  0.00    +0.340 C 
ATOM      2  O   UNL     1       7.550   0.694  26.915  0.00  0.00    -0.330 OA
ATOM      3  C   UNL     1       6.670  -0.421  27.139  0.00  0.00    +0.191 C 
ATOM      4  C   UNL     1       5.186  -0.277  26.729  0.00  0.00    +0.178 C 
ATOM      5  C   UNL     1       4.906   1.033  26.002  0.00  0.00    +0.180 C 
ATOM      6  C   UNL     1       5.662   2.178  26.701  0.00  0.00    +0.214 C 
ENDROOT
BRANCH   4   7
ATOM      7  O   UNL     1       4.344  -0.271  27.905  0.00  0.00    -0.386 OA
ATOM      8  H   UNL     1       3.487   0.104  27.595  0.00  0.00    +0.210 HD
ENDBRANCH   4   7
BRANCH   5   9
ATOM      9  O   UNL     1       3.495   1.301  26.009  0.00  0.00    -0.386 OA
ATOM     10  H   UNL     1       3.105   0.526  26.468  0.00  0.00    +0.210 HD
ENDBRANCH   5   9
BRANCH   6  11
ATOM     11  O   UNL     1       5.196   3.438  26.192  0.00  0.00    -0.383 OA
ATOM     12  H   UNL     1       4.644   3.841  26.890  0.00  0.00    +0.210 HD
ENDBRANCH   6  11
BRANCH   1  13
ATOM     13  O   UNL     1       7.184   2.204  24.939  0.00  0.00    -0.453 OA
BRANCH  13  24
ATOM     14  C   UNL     1       9.194   1.662  23.688  0.00  0.00    +0.181 A 
ATOM     15  O   UNL     1      10.448   2.095  23.209  0.00  0.00    -0.451 OA
ATOM     16  C   UNL     1      10.879   3.367  23.447  0.00  0.00    +0.147 A 
ATOM     17  C   UNL     1      10.013   4.360  23.856  0.00  0.00    +0.109 A 
ATOM     18  C   UNL     1      10.457   5.671  24.045  0.00  0.00    +0.135 A 
ATOM     19  C   UNL     1      11.789   5.988  23.828  0.00  0.00    +0.091 A 
ATOM     20  C   UNL     1      12.660   4.985  23.408  0.00  0.00    +0.124 A 
ATOM     21  C   UNL     1       8.625   3.994  24.047  0.00  0.00    +0.238 A 
ATOM     22  O   UNL     1       7.793   4.895  24.026  0.00  0.00    -0.283 OA
ATOM     23  C   UNL     1      12.218   3.676  23.213  0.00  0.00    +0.092 A 
ATOM     24  C   UNL     1       8.303   2.549  24.228  0.00  0.00    +0.214 A 
BRANCH  14  26
ATOM     25  C   UNL     1       7.908  -0.226  22.608  0.00  0.00    +0.015 A 
ATOM     26  C   UNL     1       9.047   0.170  23.380  0.00  0.00    +0.025 A 
ATOM     27  C   UNL     1       9.865  -0.883  23.820  0.00  0.00    +0.060 A 
ATOM     28  C   UNL     1       9.483  -2.226  23.592  0.00  0.00    +0.159 A 
ATOM     29  C   UNL     1       8.297  -2.558  22.931  0.00  0.00    +0.158 A 
ATOM     30  C   UNL     1       7.524  -1.560  22.398  0.00  0.00    +0.050 A 
BRANCH  28  31
ATOM     31  O   UNL     1      10.284  -3.238  24.060  0.00  0.00    -0.503 OA
ATOM     32  H   UNL     1      10.116  -3.268  25.029  0.00  0.00    +0.292 HD
ENDBRANCH  28  31
BRANCH  29  33
ATOM     33  O   UNL     1       7.944  -3.879  22.852  0.00  0.00    -0.503 OA
ATOM     34  H   UNL     1       8.738  -4.417  23.028  0.00  0.00    +0.292 HD
ENDBRANCH  29  33
ENDBRANCH  14  26
BRANCH  20  35
ATOM     35  O   UNL     1      13.977   5.266  23.165  0.00  0.00    -0.507 OA
ATOM     36  H   UNL     1      14.526   4.603  23.621  0.00  0.00    +0.292 HD
ENDBRANCH  20  35
BRANCH  18  37
ATOM     37  O   UNL     1       9.626   6.688  24.433  0.00  0.00    -0.506 OA
ATOM     38  H   UNL     1      10.058   7.542  24.198  0.00  0.00    +0.292 HD
ENDBRANCH  18  37
ENDBRANCH  13  24
ENDBRANCH   1  13
BRANCH   3  39
ATOM     39  C   UNL     1       7.406  -1.583  26.453  0.00  0.00    +0.266 C 
BRANCH  39  40
ATOM     40  O   UNL     1       6.618  -2.749  26.223  0.00  0.00    -0.458 OA
BRANCH  40  41
ATOM     41  C   UNL     1       7.256  -3.940  26.316  0.00  0.00    +0.340 C 
ATOM     42  O   UNL     1       8.455  -4.114  26.468  0.00  0.00    -0.245 OA
BRANCH  41  43
ATOM     43  C   UNL     1       6.270  -5.042  26.136  0.00  0.00    +0.066 A 
ATOM     44  C   UNL     1       5.748  -5.736  27.239  0.00  0.00    +0.064 A 
ATOM     45  C   UNL     1       4.812  -6.739  27.034  0.00  0.00    +0.163 A 
ATOM     46  C   UNL     1       4.389  -7.058  25.753  0.00  0.00    +0.201 A 
ATOM     47  C   UNL     1       4.897  -6.370  24.653  0.00  0.00    +0.163 A 
ATOM     48  C   UNL     1       5.830  -5.353  24.834  0.00  0.00    +0.064 A 
BRANCH  45  49
ATOM     49  O   UNL     1       4.316  -7.413  28.112  0.00  0.00    -0.503 OA
ATOM     50  H   UNL     1       4.214  -8.335  27.801  0.00  0.00    +0.292 HD
ENDBRANCH  45  49
BRANCH  46  51
ATOM     51  O   UNL     1       3.474  -8.064  25.592  0.00  0.00    -0.501 OA
ATOM     52  H   UNL     1       3.874  -8.834  26.044  0.00  0.00    +0.292 HD
ENDBRANCH  46  51
BRANCH  47  53
ATOM     53  O   UNL     1       4.458  -6.748  23.415  0.00  0.00    -0.503 OA
ATOM     54  H   UNL     1       3.759  -7.417  23.528  0.00  0.00    +0.292 HD
ENDBRANCH  47  53
ENDBRANCH  41  43
ENDBRANCH  40  41
ENDBRANCH  39  40
ENDBRANCH   3  39
TORSDOF 17
ENDMDL
MODEL 3
REMARK VINA RESULT:      -7.0      1.777      4.061
REMARK  Name = 
REMARK  17 active torsions:
REMARK  status: ('A' for Active; 'I' for Inactive)
REMARK    1  A    between atoms: C_3  and  O_47
REMARK    2  A    between atoms: C_4  and  O_46
REMARK    3  A    between atoms: C_6  and  C_7
REMARK    4  A    between atoms: C_8  and  O_20
REMARK    5  A    between atoms: C_12  and  O_19
REMARK    6  A    between atoms: C_14  and  O_18
REMARK    7  A    between atoms: O_20  and  C_21
REMARK    8  A    between atoms: C_23  and  O_45
REMARK    9  A    between atoms: C_24  and  O_44
REMARK   10  A    between atoms: C_25  and  O_43
REMARK   11  A    between atoms: C_27  and  C_30
REMARK   12  A    between atoms: C_30  and  O_31
REMARK   13  A    between atoms: O_31  and  C_32
REMARK   14  A    between atoms: C_32  and  C_34
REMARK   15  A    between atoms: C_36  and  O_42
REMARK   16  A    between atoms: C_37  and  O_41
REMARK   17  A    between atoms: C_38  and  O_40
REMARK                            x       y       z     vdW  Elec       q    Type
REMARK                         _______ _______ _______ _____ _____    ______ ____
ROOT
ATOM      1  C   UNL     1       4.710  -0.523  27.090  0.00  0.00    +0.340 C 
ATOM      2  O   UNL     1       5.051  -1.449  28.114  0.00  0.00    -0.330 OA
ATOM      3  C   UNL     1       4.088  -2.145  28.925  0.00  0.00    +0.191 C 
ATOM      4  C   UNL     1       2.586  -1.917  28.634  0.00  0.00    +0.178 C 
ATOM      5  C   UNL     1       2.355  -1.056  27.399  0.00  0.00    +0.180 C 
ATOM      6  C   UNL     1       3.360   0.110  27.391  0.00  0.00    +0.214 C 
ENDROOT
BRANCH   4   7
ATOM      7  O   UNL     1       1.968  -1.213  29.736  0.00  0.00    -0.386 OA
ATOM      8  H   UNL     1       1.160  -1.738  29.945  0.00  0.00    +0.210 HD
ENDBRANCH   4   7
BRANCH   5   9
ATOM      9  O   UNL     1       1.012  -0.546  27.407  0.00  0.00    -0.386 OA
ATOM     10  H   UNL     1       1.075   0.290  27.918  0.00  0.00    +0.210 HD
ENDBRANCH   5   9
BRANCH   6  11
ATOM     11  O   UNL     1       2.978   1.063  26.386  0.00  0.00    -0.383 OA
ATOM     12  H   UNL     1       2.895   0.572  25.546  0.00  0.00    +0.210 HD
ENDBRANCH   6  11
BRANCH   1  13
ATOM     13  O   UNL     1       4.545  -0.967  25.700  0.00  0.00    -0.453 OA
BRANCH  13  24
ATOM     14  C   UNL     1       5.981  -1.521  23.821  0.00  0.00    +0.181 A 
ATOM     15  O   UNL     1       7.002  -1.104  22.943  0.00  0.00    -0.451 OA
ATOM     16  C   UNL     1       7.524   0.153  23.035  0.00  0.00    +0.147 A 
ATOM     17  C   UNL     1       6.882   1.154  23.733  0.00  0.00    +0.109 A 
ATOM     18  C   UNL     1       7.399   2.451  23.776  0.00  0.00    +0.135 A 
ATOM     19  C   UNL     1       8.582   2.745  23.115  0.00  0.00    +0.091 A 
ATOM     20  C   UNL     1       9.226   1.734  22.405  0.00  0.00    +0.124 A 
ATOM     21  C   UNL     1       5.636   0.813  24.389  0.00  0.00    +0.238 A 
ATOM     22  O   UNL     1       4.874   1.731  24.672  0.00  0.00    -0.283 OA
ATOM     23  C   UNL     1       8.707   0.439  22.356  0.00  0.00    +0.092 A 
ATOM     24  C   UNL     1       5.357  -0.629  24.650  0.00  0.00    +0.214 A 
BRANCH  14  26
ATOM     25  C   UNL     1       4.575  -3.578  24.243  0.00  0.00    +0.015 A 
ATOM     26  C   UNL     1       5.695  -3.003  23.561  0.00  0.00    +0.025 A 
ATOM     27  C   UNL     1       6.442  -3.897  22.778  0.00  0.00    +0.060 A 
ATOM     28  C   UNL     1       6.139  -5.279  22.790  0.00  0.00    +0.159 A 
ATOM     29  C   UNL     1       5.103  -5.806  23.568  0.00  0.00    +0.158 A 
ATOM     30  C   UNL     1       4.288  -4.952  24.266  0.00  0.00    +0.050 A 
BRANCH  28  31
ATOM     31  O   UNL     1       6.903  -6.139  22.041  0.00  0.00    -0.503 OA
ATOM     32  H   UNL     1       6.397  -6.269  21.207  0.00  0.00    +0.292 HD
ENDBRANCH  28  31
BRANCH  29  33
ATOM     33  O   UNL     1       4.948  -7.166  23.611  0.00  0.00    -0.503 OA
ATOM     34  H   UNL     1       4.908  -7.437  24.546  0.00  0.00    +0.292 HD
ENDBRANCH  29  33
ENDBRANCH  14  26
BRANCH  20  35
ATOM     35  O   UNL     1      10.384   1.993  21.723  0.00  0.00    -0.507 OA
ATOM     36  H   UNL     1      10.186   2.011  20.769  0.00  0.00    +0.292 HD
ENDBRANCH  20  35
BRANCH  18  37
ATOM     37  O   UNL     1       6.783   3.475  24.444  0.00  0.00    -0.506 OA
ATOM     38  H   UNL     1       5.866   3.560  24.094  0.00  0.00    +0.292 HD
ENDBRANCH  18  37
ENDBRANCH  13  24
ENDBRANCH   1  13
BRANCH   3  39
ATOM     39  C   UNL     1       4.539  -3.609  28.814  0.00  0.00    +0.266 C 
BRANCH  39  40
ATOM     40  O   UNL     1       5.278  -3.930  27.638  0.00  0.00    -0.458 OA
BRANCH  40  41
ATOM     41  C   UNL     1       6.331  -4.767  27.792  0.00  0.00    +0.340 C 
ATOM     42  O   UNL     1       6.446  -5.646  28.632  0.00  0.00    -0.245 OA
BRANCH  41  43
ATOM     43  C   UNL     1       7.390  -4.413  26.805  0.00  0.00    +0.066 A 
ATOM     44  C   UNL     1       8.043  -5.404  26.055  0.00  0.00    +0.064 A 
ATOM     45  C   UNL     1       9.005  -5.035  25.127  0.00  0.00    +0.163 A 
ATOM     46  C   UNL     1       9.324  -3.700  24.935  0.00  0.00    +0.201 A 
ATOM     47  C   UNL     1       8.677  -2.709  25.670  0.00  0.00    +0.163 A 
ATOM     48  C   UNL     1       7.700  -3.055  26.601  0.00  0.00    +0.064 A 
BRANCH  45  49
ATOM     49  O   UNL     1       9.640  -6.006  24.408  0.00  0.00    -0.503 OA
ATOM     50  H   UNL     1      10.260  -6.419  25.043  0.00  0.00    +0.292 HD
ENDBRANCH  45  49
BRANCH  46  51
ATOM     51  O   UNL     1      10.290  -3.377  24.020  0.00  0.00    -0.501 OA
ATOM     52  H   UNL     1       9.970  -2.549  23.608  0.00  0.00    +0.292 HD
ENDBRANCH  46  51
BRANCH  47  53
ATOM     53  O   UNL     1       9.052  -1.414  25.452  0.00  0.00    -0.503 OA
ATOM     54  H   UNL     1       9.972  -1.411  25.131  0.00  0.00    +0.292 HD
ENDBRANCH  47  53
ENDBRANCH  41  43
ENDBRANCH  40  41
ENDBRANCH  39  40
ENDBRANCH   3  39
TORSDOF 17
ENDMDL
MODEL 4
REMARK VINA RESULT:      -7.0      2.627      6.681
REMARK  Name = 
REMARK  17 active torsions:
REMARK  status: ('A' for Active; 'I' for Inactive)
REMARK    1  A    between atoms: C_3  and  O_47
REMARK    2  A    between atoms: C_4  and  O_46
REMARK    3  A    between atoms: C_6  and  C_7
REMARK    4  A    between atoms: C_8  and  O_20
REMARK    5  A    between atoms: C_12  and  O_19
REMARK    6  A    between atoms: C_14  and  O_18
REMARK    7  A    between atoms: O_20  and  C_21
REMARK    8  A    between atoms: C_23  and  O_45
REMARK    9  A    between atoms: C_24  and  O_44
REMARK   10  A    between atoms: C_25  and  O_43
REMARK   11  A    between atoms: C_27  and  C_30
REMARK   12  A    between atoms: C_30  and  O_31
REMARK   13  A    between atoms: O_31  and  C_32
REMARK   14  A    between atoms: C_32  and  C_34
REMARK   15  A    between atoms: C_36  and  O_42
REMARK   16  A    between atoms: C_37  and  O_41
REMARK   17  A    between atoms: C_38  and  O_40
REMARK                            x       y       z     vdW  Elec       q    Type
REMARK                         _______ _______ _______ _____ _____    ______ ____
ROOT
ATOM      1  C   UNL     1       6.746   2.112  26.379  0.00  0.00    +0.340 C 
ATOM      2  O   UNL     1       6.782   0.945  27.192  0.00  0.00    -0.330 OA
ATOM      3  C   UNL     1       5.627   0.150  27.512  0.00  0.00    +0.191 C 
ATOM      4  C   UNL     1       4.268   0.552  26.894  0.00  0.00    +0.178 C 
ATOM      5  C   UNL     1       4.395   1.698  25.899  0.00  0.00    +0.180 C 
ATOM      6  C   UNL     1       5.368   2.754  26.454  0.00  0.00    +0.214 C 
ENDROOT
BRANCH   4   7
ATOM      7  O   UNL     1       3.369   1.016  27.929  0.00  0.00    -0.386 OA
ATOM      8  H   UNL     1       2.598   1.387  27.440  0.00  0.00    +0.210 HD
ENDBRANCH   4   7
BRANCH   5   9
ATOM      9  O   UNL     1       3.107   2.291  25.672  0.00  0.00    -0.386 OA
ATOM     10  H   UNL     1       2.822   2.596  26.560  0.00  0.00    +0.210 HD
ENDBRANCH   5   9
BRANCH   6  11
ATOM     11  O   UNL     1       5.288   3.945  25.656  0.00  0.00    -0.383 OA
ATOM     12  H   UNL     1       5.088   3.662  24.742  0.00  0.00    +0.210 HD
ENDBRANCH   6  11
BRANCH   1  13
ATOM     13  O   UNL     1       6.973   2.027  24.931  0.00  0.00    -0.453 OA
BRANCH  13  24
ATOM     14  C   UNL     1       9.151   1.481  24.006  0.00  0.00    +0.181 A 
ATOM     15  O   UNL     1      10.413   1.949  23.581  0.00  0.00    -0.451 OA
ATOM     16  C   UNL     1      10.708   3.280  23.622  0.00  0.00    +0.147 A 
ATOM     17  C   UNL     1       9.723   4.235  23.753  0.00  0.00    +0.109 A 
ATOM     18  C   UNL     1      10.033   5.598  23.740  0.00  0.00    +0.135 A 
ATOM     19  C   UNL     1      11.351   6.005  23.602  0.00  0.00    +0.091 A 
ATOM     20  C   UNL     1      12.343   5.038  23.462  0.00  0.00    +0.124 A 
ATOM     21  C   UNL     1       8.356   3.770  23.871  0.00  0.00    +0.238 A 
ATOM     22  O   UNL     1       7.462   4.565  23.603  0.00  0.00    -0.283 OA
ATOM     23  C   UNL     1      12.035   3.677  23.469  0.00  0.00    +0.092 A 
ATOM     24  C   UNL     1       8.135   2.354  24.283  0.00  0.00    +0.214 A 
BRANCH  14  26
ATOM     25  C   UNL     1       9.230  -0.665  22.675  0.00  0.00    +0.015 A 
ATOM     26  C   UNL     1       9.164  -0.049  23.965  0.00  0.00    +0.025 A 
ATOM     27  C   UNL     1       9.050  -0.938  25.046  0.00  0.00    +0.060 A 
ATOM     28  C   UNL     1       8.897  -2.325  24.814  0.00  0.00    +0.159 A 
ATOM     29  C   UNL     1       8.852  -2.863  23.525  0.00  0.00    +0.158 A 
ATOM     30  C   UNL     1       9.061  -2.040  22.448  0.00  0.00    +0.050 A 
BRANCH  28  31
ATOM     31  O   UNL     1       8.756  -3.171  25.887  0.00  0.00    -0.503 OA
ATOM     32  H   UNL     1       8.725  -2.582  26.674  0.00  0.00    +0.292 HD
ENDBRANCH  28  31
BRANCH  29  33
ATOM     33  O   UNL     1       8.588  -4.199  23.385  0.00  0.00    -0.503 OA
ATOM     34  H   UNL     1       8.600  -4.606  24.270  0.00  0.00    +0.292 HD
ENDBRANCH  29  33
ENDBRANCH  14  26
BRANCH  20  35
ATOM     35  O   UNL     1      13.652   5.404  23.302  0.00  0.00    -0.507 OA
ATOM     36  H   UNL     1      14.070   5.460  24.181  0.00  0.00    +0.292 HD
ENDBRANCH  20  35
BRANCH  18  37
ATOM     37  O   UNL     1       9.082   6.577  23.851  0.00  0.00    -0.506 OA
ATOM     38  H   UNL     1       9.417   7.381  23.389  0.00  0.00    +0.292 HD
ENDBRANCH  18  37
ENDBRANCH  13  24
ENDBRANCH   1  13
BRANCH   3  39
ATOM     39  C   UNL     1       6.083  -1.275  27.164  0.00  0.00    +0.266 C 
BRANCH  39  40
ATOM     40  O   UNL     1       5.400  -1.882  26.070  0.00  0.00    -0.458 OA
BRANCH  40  41
ATOM     41  C   UNL     1       4.881  -3.114  26.286  0.00  0.00    +0.340 C 
ATOM     42  O   UNL     1       4.471  -3.556  27.348  0.00  0.00    -0.245 OA
BRANCH  41  43
ATOM     43  C   UNL     1       4.941  -3.902  25.023  0.00  0.00    +0.066 A 
ATOM     44  C   UNL     1       5.184  -3.278  23.789  0.00  0.00    +0.064 A 
ATOM     45  C   UNL     1       5.259  -4.047  22.638  0.00  0.00    +0.163 A 
ATOM     46  C   UNL     1       5.097  -5.422  22.696  0.00  0.00    +0.201 A 
ATOM     47  C   UNL     1       4.862  -6.052  23.918  0.00  0.00    +0.163 A 
ATOM     48  C   UNL     1       4.792  -5.301  25.089  0.00  0.00    +0.064 A 
BRANCH  45  49
ATOM     49  O   UNL     1       5.489  -3.430  21.442  0.00  0.00    -0.503 OA
ATOM     50  H   UNL     1       4.605  -3.351  21.031  0.00  0.00    +0.292 HD
ENDBRANCH  45  49
BRANCH  46  51
ATOM     51  O   UNL     1       5.165  -6.145  21.536  0.00  0.00    -0.501 OA
ATOM     52  H   UNL     1       5.832  -6.837  21.716  0.00  0.00    +0.292 HD
ENDBRANCH  46  51
BRANCH  47  53
ATOM     53  O   UNL     1       4.687  -7.406  23.906  0.00  0.00    -0.503 OA
ATOM     54  H   UNL     1       5.564  -7.829  23.857  0.00  0.00    +0.292 HD
ENDBRANCH  47  53
ENDBRANCH  41  43
ENDBRANCH  40  41
ENDBRANCH  39  40
ENDBRANCH   3  39
TORSDOF 17
ENDMDL
MODEL 5
REMARK VINA RESULT:      -6.9      3.127      6.598
REMARK  Name = 
REMARK  17 active torsions:
REMARK  status: ('A' for Active; 'I' for Inactive)
REMARK    1  A    between atoms: C_3  and  O_47
REMARK    2  A    between atoms: C_4  and  O_46
REMARK    3  A    between atoms: C_6  and  C_7
REMARK    4  A    between atoms: C_8  and  O_20
REMARK    5  A    between atoms: C_12  and  O_19
REMARK    6  A    between atoms: C_14  and  O_18
REMARK    7  A    between atoms: O_20  and  C_21
REMARK    8  A    between atoms: C_23  and  O_45
REMARK    9  A    between atoms: C_24  and  O_44
REMARK   10  A    between atoms: C_25  and  O_43
REMARK   11  A    between atoms: C_27  and  C_30
REMARK   12  A    between atoms: C_30  and  O_31
REMARK   13  A    between atoms: O_31  and  C_32
REMARK   14  A    between atoms: C_32  and  C_34
REMARK   15  A    between atoms: C_36  and  O_42
REMARK   16  A    between atoms: C_37  and  O_41
REMARK   17  A    between atoms: C_38  and  O_40
REMARK                            x       y       z     vdW  Elec       q    Type
REMARK                         _______ _______ _______ _____ _____    ______ ____
ROOT
ATOM      1  C   UNL     1      10.346  -0.292  24.282  0.00  0.00    +0.340 C 
ATOM      2  O   UNL     1       9.838   1.014  24.531  0.00  0.00    -0.330 OA
ATOM      3  C   UNL     1       9.062   1.771  23.585  0.00  0.00    +0.191 C 
ATOM      4  C   UNL     1       8.708   1.109  22.233  0.00  0.00    +0.178 C 
ATOM      5  C   UNL     1       9.146  -0.349  22.165  0.00  0.00    +0.180 C 
ATOM      6  C   UNL     1      10.546  -0.494  22.787  0.00  0.00    +0.214 C 
ENDROOT
BRANCH   4   7
ATOM      7  O   UNL     1       9.394   1.785  21.154  0.00  0.00    -0.386 OA
ATOM      8  H   UNL     1       9.968   2.449  21.602  0.00  0.00    +0.210 HD
ENDBRANCH   4   7
BRANCH   5   9
ATOM      9  O   UNL     1       9.170  -0.785  20.796  0.00  0.00    -0.386 OA
ATOM     10  H   UNL     1       8.710  -1.651  20.811  0.00  0.00    +0.210 HD
ENDBRANCH   5   9
BRANCH   6  11
ATOM     11  O   UNL     1      11.069  -1.798  22.488  0.00  0.00    -0.383 OA
ATOM     12  H   UNL     1      11.724  -1.684  21.772  0.00  0.00    +0.210 HD
ENDBRANCH   6  11
BRANCH   1  13
ATOM     13  O   UNL     1       9.575  -1.483  24.659  0.00  0.00    -0.453 OA
BRANCH  13  24
ATOM     14  C   UNL     1       7.204  -2.004  24.733  0.00  0.00    +0.181 A 
ATOM     15  O   UNL     1       5.944  -1.727  25.303  0.00  0.00    -0.451 OA
ATOM     16  C   UNL     1       5.817  -0.781  26.278  0.00  0.00    +0.147 A 
ATOM     17  C   UNL     1       6.911  -0.306  26.970  0.00  0.00    +0.109 A 
ATOM     18  C   UNL     1       6.763   0.623  28.003  0.00  0.00    +0.135 A 
ATOM     19  C   UNL     1       5.500   1.087  28.340  0.00  0.00    +0.091 A 
ATOM     20  C   UNL     1       4.396   0.600  27.644  0.00  0.00    +0.124 A 
ATOM     21  C   UNL     1       8.210  -0.832  26.605  0.00  0.00    +0.238 A 
ATOM     22  O   UNL     1       9.114  -0.732  27.428  0.00  0.00    -0.283 OA
ATOM     23  C   UNL     1       4.542  -0.333  26.616  0.00  0.00    +0.092 A 
ATOM     24  C   UNL     1       8.349  -1.482  25.270  0.00  0.00    +0.214 A 
BRANCH  14  26
ATOM     25  C   UNL     1       6.086  -2.642  22.559  0.00  0.00    +0.015 A 
ATOM     26  C   UNL     1       7.009  -3.005  23.591  0.00  0.00    +0.025 A 
ATOM     27  C   UNL     1       7.581  -4.281  23.460  0.00  0.00    +0.060 A 
ATOM     28  C   UNL     1       7.152  -5.151  22.430  0.00  0.00    +0.159 A 
ATOM     29  C   UNL     1       6.160  -4.787  21.515  0.00  0.00    +0.158 A 
ATOM     30  C   UNL     1       5.651  -3.514  21.549  0.00  0.00    +0.050 A 
BRANCH  28  31
ATOM     31  O   UNL     1       7.704  -6.405  22.341  0.00  0.00    -0.503 OA
ATOM     32  H   UNL     1       8.003  -6.618  23.254  0.00  0.00    +0.292 HD
ENDBRANCH  28  31
BRANCH  29  33
ATOM     33  O   UNL     1       5.722  -5.727  20.621  0.00  0.00    -0.503 OA
ATOM     34  H   UNL     1       5.329  -6.464  21.122  0.00  0.00    +0.292 HD
ENDBRANCH  29  33
ENDBRANCH  14  26
BRANCH  20  35
ATOM     35  O   UNL     1       3.134   1.018  27.963  0.00  0.00    -0.507 OA
ATOM     36  H   UNL     1       3.195   1.680  28.675  0.00  0.00    +0.292 HD
ENDBRANCH  20  35
BRANCH  18  37
ATOM     37  O   UNL     1       7.821   1.107  28.725  0.00  0.00    -0.506 OA
ATOM     38  H   UNL     1       7.594   1.039  29.682  0.00  0.00    +0.292 HD
ENDBRANCH  18  37
ENDBRANCH  13  24
ENDBRANCH   1  13
BRANCH   3  39
ATOM     39  C   UNL     1       7.844   2.209  24.413  0.00  0.00    +0.266 C 
BRANCH  39  40
ATOM     40  O   UNL     1       7.779   3.602  24.707  0.00  0.00    -0.458 OA
BRANCH  40  41
ATOM     41  C   UNL     1       8.231   4.447  23.750  0.00  0.00    +0.340 C 
ATOM     42  O   UNL     1       7.778   4.581  22.624  0.00  0.00    -0.245 OA
BRANCH  41  43
ATOM     43  C   UNL     1       9.436   5.164  24.255  0.00  0.00    +0.066 A 
ATOM     44  C   UNL     1       9.421   5.826  25.492  0.00  0.00    +0.064 A 
ATOM     45  C   UNL     1      10.568   6.461  25.942  0.00  0.00    +0.163 A 
ATOM     46  C   UNL     1      11.727   6.446  25.181  0.00  0.00    +0.201 A 
ATOM     47  C   UNL     1      11.754   5.785  23.953  0.00  0.00    +0.163 A 
ATOM     48  C   UNL     1      10.616   5.132  23.486  0.00  0.00    +0.064 A 
BRANCH  45  49
ATOM     49  O   UNL     1      10.541   7.108  27.143  0.00  0.00    -0.503 OA
ATOM     50  H   UNL     1       9.595   7.123  27.394  0.00  0.00    +0.292 HD
ENDBRANCH  45  49
BRANCH  46  51
ATOM     51  O   UNL     1      12.835   7.096  25.652  0.00  0.00    -0.501 OA
ATOM     52  H   UNL     1      13.130   6.557  26.414  0.00  0.00    +0.292 HD
ENDBRANCH  46  51
BRANCH  47  53
ATOM     53  O   UNL     1      12.918   5.827  23.240  0.00  0.00    -0.503 OA
ATOM     54  H   UNL     1      12.930   6.650  22.719  0.00  0.00    +0.292 HD
ENDBRANCH  47  53
ENDBRANCH  41  43
ENDBRANCH  40  41
ENDBRANCH  39  40
ENDBRANCH   3  39
TORSDOF 17
ENDMDL
MODEL 6
REMARK VINA RESULT:      -6.9      2.109      6.435
REMARK  Name = 
REMARK  17 active torsions:
REMARK  status: ('A' for Active; 'I' for Inactive)
REMARK    1  A    between atoms: C_3  and  O_47
REMARK    2  A    between atoms: C_4  and  O_46
REMARK    3  A    between atoms: C_6  and  C_7
REMARK    4  A    between atoms: C_8  and  O_20
REMARK    5  A    between atoms: C_12  and  O_19
REMARK    6  A    between atoms: C_14  and  O_18
REMARK    7  A    between atoms: O_20  and  C_21
REMARK    8  A    between atoms: C_23  and  O_45
REMARK    9  A    between atoms: C_24  and  O_44
REMARK   10  A    between atoms: C_25  and  O_43
REMARK   11  A    between atoms: C_27  and  C_30
REMARK   12  A    between atoms: C_30  and  O_31
REMARK   13  A    between atoms: O_31  and  C_32
REMARK   14  A    between atoms: C_32  and  C_34
REMARK   15  A    between atoms: C_36  and  O_42
REMARK   16  A    between atoms: C_37  and  O_41
REMARK   17  A    between atoms: C_38  and  O_40
REMARK                            x       y       z     vdW  Elec       q    Type
REMARK                         _______ _______ _______ _____ _____    ______ ____
ROOT
ATOM      1  C   UNL     1       7.331   0.840  24.440  0.00  0.00    +0.340 C 
ATOM      2  O   UNL     1       7.177   0.013  23.293  0.00  0.00    -0.330 OA
ATOM      3  C   UNL     1       8.223  -0.250  22.342  0.00  0.00    +0.191 C 
ATOM      4  C   UNL     1       9.621   0.356  22.606  0.00  0.00    +0.178 C 
ATOM      5  C   UNL     1       9.707   1.059  23.955  0.00  0.00    +0.180 C 
ATOM      6  C   UNL     1       8.422   1.872  24.193  0.00  0.00    +0.214 C 
ENDROOT
BRANCH   4   7
ATOM      7  O   UNL     1       9.924   1.360  21.610  0.00  0.00    -0.386 OA
ATOM      8  H   UNL     1      10.788   1.079  21.229  0.00  0.00    +0.210 HD
ENDBRANCH   4   7
BRANCH   5   9
ATOM      9  O   UNL     1      10.849   1.930  23.977  0.00  0.00    -0.386 OA
ATOM     10  H   UNL     1      11.589   1.366  23.665  0.00  0.00    +0.210 HD
ENDBRANCH   5   9
BRANCH   6  11
ATOM     11  O   UNL     1       8.606   2.739  25.323  0.00  0.00    -0.383 OA
ATOM     12  H   UNL     1       9.558   2.720  25.544  0.00  0.00    +0.210 HD
ENDBRANCH   6  11
BRANCH   1  13
ATOM     13  O   UNL     1       7.731   0.267  25.732  0.00  0.00    -0.453 OA
BRANCH  13  24
ATOM     14  C   UNL     1       6.594  -1.597  26.796  0.00  0.00    +0.181 A 
ATOM     15  O   UNL     1       5.518  -2.031  27.599  0.00  0.00    -0.451 OA
ATOM     16  C   UNL     1       4.627  -1.132  28.107  0.00  0.00    +0.147 A 
ATOM     17  C   UNL     1       4.904   0.218  28.147  0.00  0.00    +0.109 A 
ATOM     18  C   UNL     1       4.006   1.123  28.719  0.00  0.00    +0.135 A 
ATOM     19  C   UNL     1       2.810   0.666  29.250  0.00  0.00    +0.091 A 
ATOM     20  C   UNL     1       2.535  -0.699  29.215  0.00  0.00    +0.124 A 
ATOM     21  C   UNL     1       6.175   0.653  27.604  0.00  0.00    +0.238 A 
ATOM     22  O   UNL     1       6.603   1.743  27.966  0.00  0.00    -0.283 OA
ATOM     23  C   UNL     1       3.434  -1.605  28.650  0.00  0.00    +0.092 A 
ATOM     24  C   UNL     1       6.884  -0.266  26.667  0.00  0.00    +0.214 A 
BRANCH  14  26
ATOM     25  C   UNL     1       6.882  -4.106  26.736  0.00  0.00    +0.015 A 
ATOM     26  C   UNL     1       7.336  -2.830  26.274  0.00  0.00    +0.025 A 
ATOM     27  C   UNL     1       8.464  -2.864  25.438  0.00  0.00    +0.060 A 
ATOM     28  C   UNL     1       9.136  -4.085  25.197  0.00  0.00    +0.159 A 
ATOM     29  C   UNL     1       8.716  -5.289  25.770  0.00  0.00    +0.158 A 
ATOM     30  C   UNL     1       7.561  -5.314  26.508  0.00  0.00    +0.050 A 
BRANCH  28  31
ATOM     31  O   UNL     1      10.255  -4.088  24.402  0.00  0.00    -0.503 OA
ATOM     32  H   UNL     1       9.987  -4.569  23.586  0.00  0.00    +0.292 HD
ENDBRANCH  28  31
BRANCH  29  33
ATOM     33  O   UNL     1       9.487  -6.405  25.578  0.00  0.00    -0.503 OA
ATOM     34  H   UNL     1       9.184  -6.848  24.765  0.00  0.00    +0.292 HD
ENDBRANCH  29  33
ENDBRANCH  14  26
BRANCH  20  35
ATOM     35  O   UNL     1       1.374  -1.189  29.749  0.00  0.00    -0.507 OA
ATOM     36  H   UNL     1       1.543  -2.083  30.095  0.00  0.00    +0.292 HD
ENDBRANCH  20  35
BRANCH  18  37
ATOM     37  O   UNL     1       4.252   2.468  28.793  0.00  0.00    -0.506 OA
ATOM     38  H   UNL     1       4.103   2.855  27.899  0.00  0.00    +0.292 HD
ENDBRANCH  18  37
ENDBRANCH  13  24
ENDBRANCH   1  13
BRANCH   3  39
ATOM     39  C   UNL     1       8.209  -1.783  22.231  0.00  0.00    +0.266 C 
BRANCH  39  40
ATOM     40  O   UNL     1       6.934  -2.393  22.420  0.00  0.00    -0.458 OA
BRANCH  40  41
ATOM     41  C   UNL     1       6.889  -3.744  22.327  0.00  0.00    +0.340 C 
ATOM     42  O   UNL     1       7.608  -4.451  21.640  0.00  0.00    -0.245 OA
BRANCH  41  43
ATOM     43  C   UNL     1       5.761  -4.256  23.155  0.00  0.00    +0.066 A 
ATOM     44  C   UNL     1       4.877  -3.377  23.800  0.00  0.00    +0.064 A 
ATOM     45  C   UNL     1       3.823  -3.890  24.542  0.00  0.00    +0.163 A 
ATOM     46  C   UNL     1       3.638  -5.260  24.649  0.00  0.00    +0.201 A 
ATOM     47  C   UNL     1       4.507  -6.140  24.008  0.00  0.00    +0.163 A 
ATOM     48  C   UNL     1       5.566  -5.648  23.249  0.00  0.00    +0.064 A 
BRANCH  45  49
ATOM     49  O   UNL     1       2.973  -3.028  25.171  0.00  0.00    -0.503 OA
ATOM     50  H   UNL     1       3.157  -3.151  26.124  0.00  0.00    +0.292 HD
ENDBRANCH  45  49
BRANCH  46  51
ATOM     51  O   UNL     1       2.594  -5.727  25.402  0.00  0.00    -0.501 OA
ATOM     52  H   UNL     1       2.203  -6.442  24.861  0.00  0.00    +0.292 HD
ENDBRANCH  46  51
BRANCH  47  53
ATOM     53  O   UNL     1       4.285  -7.478  24.172  0.00  0.00    -0.503 OA
ATOM     54  H   UNL     1       3.376  -7.676  23.882  0.00  0.00    +0.292 HD
ENDBRANCH  47  53
ENDBRANCH  41  43
ENDBRANCH  40  41
ENDBRANCH  39  40
ENDBRANCH   3  39
TORSDOF 17
ENDMDL
MODEL 7
REMARK VINA RESULT:      -6.8      2.230      7.623
REMARK  Name = 
REMARK  17 active torsions:
REMARK  status: ('A' for Active; 'I' for Inactive)
REMARK    1  A    between atoms: C_3  and  O_47
REMARK    2  A    between atoms: C_4  and  O_46
REMARK    3  A    between atoms: C_6  and  C_7
REMARK    4  A    between atoms: C_8  and  O_20
REMARK    5  A    between atoms: C_12  and  O_19
REMARK    6  A    between atoms: C_14  and  O_18
REMARK    7  A    between atoms: O_20  and  C_21
REMARK    8  A    between atoms: C_23  and  O_45
REMARK    9  A    between atoms: C_24  and  O_44
REMARK   10  A    between atoms: C_25  and  O_43
REMARK   11  A    between atoms: C_27  and  C_30
REMARK   12  A    between atoms: C_30  and  O_31
REMARK   13  A    between atoms: O_31  and  C_32
REMARK   14  A    between atoms: C_32  and  C_34
REMARK   15  A    between atoms: C_36  and  O_42
REMARK   16  A    between atoms: C_37  and  O_41
REMARK   17  A    between atoms: C_38  and  O_40
REMARK                            x       y       z     vdW  Elec       q    Type
REMARK                         _______ _______ _______ _____ _____    ______ ____
ROOT
ATOM      1  C   UNL     1       6.860  -0.915  27.425  0.00  0.00    +0.340 C 
ATOM      2  O   UNL     1       5.648  -1.628  27.211  0.00  0.00    -0.330 OA
ATOM      3  C   UNL     1       4.585  -1.173  26.355  0.00  0.00    +0.191 C 
ATOM      4  C   UNL     1       4.789   0.146  25.574  0.00  0.00    +0.178 C 
ATOM      5  C   UNL     1       6.193   0.713  25.741  0.00  0.00    +0.180 C 
ATOM      6  C   UNL     1       6.630   0.574  27.211  0.00  0.00    +0.214 C 
ENDROOT
BRANCH   4   7
ATOM      7  O   UNL     1       3.884   1.161  26.068  0.00  0.00    -0.386 OA
ATOM      8  H   UNL     1       3.399   0.723  26.806  0.00  0.00    +0.210 HD
ENDBRANCH   4   7
BRANCH   5   9
ATOM      9  O   UNL     1       6.208   2.096  25.354  0.00  0.00    -0.386 OA
ATOM     10  H   UNL     1       5.346   2.229  24.903  0.00  0.00    +0.210 HD
ENDBRANCH   5   9
BRANCH   6  11
ATOM     11  O   UNL     1       7.827   1.338  27.428  0.00  0.00    -0.383 OA
ATOM     12  H   UNL     1       7.549   2.258  27.605  0.00  0.00    +0.210 HD
ENDBRANCH   6  11
BRANCH   1  13
ATOM     13  O   UNL     1       8.041  -1.172  26.592  0.00  0.00    -0.453 OA
BRANCH  13  24
ATOM     14  C   UNL     1       8.365  -1.638  24.231  0.00  0.00    +0.181 A 
ATOM     15  O   UNL     1       8.137  -2.516  23.150  0.00  0.00    -0.451 OA
ATOM     16  C   UNL     1       7.461  -3.686  23.340  0.00  0.00    +0.147 A 
ATOM     17  C   UNL     1       7.268  -4.214  24.599  0.00  0.00    +0.109 A 
ATOM     18  C   UNL     1       6.621  -5.439  24.776  0.00  0.00    +0.135 A 
ATOM     19  C   UNL     1       6.154  -6.140  23.674  0.00  0.00    +0.091 A 
ATOM     20  C   UNL     1       6.356  -5.607  22.403  0.00  0.00    +0.124 A 
ATOM     21  C   UNL     1       7.792  -3.465  25.722  0.00  0.00    +0.238 A 
ATOM     22  O   UNL     1       7.978  -4.071  26.771  0.00  0.00    -0.283 OA
ATOM     23  C   UNL     1       7.008  -4.386  22.224  0.00  0.00    +0.092 A 
ATOM     24  C   UNL     1       8.093  -2.018  25.516  0.00  0.00    +0.214 A 
BRANCH  14  26
ATOM     25  C   UNL     1      10.211   0.083  24.353  0.00  0.00    +0.015 A 
ATOM     26  C   UNL     1       9.026  -0.367  23.690  0.00  0.00    +0.025 A 
ATOM     27  C   UNL     1       8.571   0.462  22.651  0.00  0.00    +0.060 A 
ATOM     28  C   UNL     1       9.207   1.700  22.397  0.00  0.00    +0.159 A 
ATOM     29  C   UNL     1      10.294   2.145  23.154  0.00  0.00    +0.158 A 
ATOM     30  C   UNL     1      10.829   1.320  24.109  0.00  0.00    +0.050 A 
BRANCH  28  31
ATOM     31  O   UNL     1       8.725   2.507  21.397  0.00  0.00    -0.503 OA
ATOM     32  H   UNL     1       8.012   1.983  20.967  0.00  0.00    +0.292 HD
ENDBRANCH  28  31
BRANCH  29  33
ATOM     33  O   UNL     1      10.780   3.404  22.919  0.00  0.00    -0.503 OA
ATOM     34  H   UNL     1      10.489   3.681  22.031  0.00  0.00    +0.292 HD
ENDBRANCH  29  33
ENDBRANCH  14  26
BRANCH  20  35
ATOM     35  O   UNL     1       5.928  -6.280  21.291  0.00  0.00    -0.507 OA
ATOM     36  H   UNL     1       5.251  -6.927  21.560  0.00  0.00    +0.292 HD
ENDBRANCH  20  35
BRANCH  18  37
ATOM     37  O   UNL     1       6.425  -6.005  26.007  0.00  0.00    -0.506 OA
ATOM     38  H   UNL     1       5.743  -6.710  25.914  0.00  0.00    +0.292 HD
ENDBRANCH  18  37
ENDBRANCH  13  24
ENDBRANCH   1  13
BRANCH   3  39
ATOM     39  C   UNL     1       4.311  -2.398  25.468  0.00  0.00    +0.266 C 
BRANCH  39  40
ATOM     40  O   UNL     1       3.184  -3.184  25.850  0.00  0.00    -0.458 OA
BRANCH  40  41
ATOM     41  C   UNL     1       3.446  -4.413  26.356  0.00  0.00    +0.340 C 
ATOM     42  O   UNL     1       4.034  -4.662  27.396  0.00  0.00    -0.245 OA
BRANCH  41  43
ATOM     43  C   UNL     1       2.958  -5.451  25.405  0.00  0.00    +0.066 A 
ATOM     44  C   UNL     1       3.109  -6.818  25.683  0.00  0.00    +0.064 A 
ATOM     45  C   UNL     1       2.619  -7.756  24.786  0.00  0.00    +0.163 A 
ATOM     46  C   UNL     1       1.983  -7.353  23.622  0.00  0.00    +0.201 A 
ATOM     47  C   UNL     1       1.822  -5.998  23.341  0.00  0.00    +0.163 A 
ATOM     48  C   UNL     1       2.297  -5.038  24.231  0.00  0.00    +0.064 A 
BRANCH  45  49
ATOM     49  O   UNL     1       2.777  -9.083  25.062  0.00  0.00    -0.503 OA
ATOM     50  H   UNL     1       2.898  -9.504  24.187  0.00  0.00    +0.292 HD
ENDBRANCH  45  49
BRANCH  46  51
ATOM     51  O   UNL     1       1.526  -8.309  22.756  0.00  0.00    -0.501 OA
ATOM     52  H   UNL     1       1.158  -9.008  23.333  0.00  0.00    +0.292 HD
ENDBRANCH  46  51
BRANCH  47  53
ATOM     53  O   UNL     1       1.208  -5.665  22.167  0.00  0.00    -0.503 OA
ATOM     54  H   UNL     1       1.847  -5.785  21.441  0.00  0.00    +0.292 HD
ENDBRANCH  47  53
ENDBRANCH  41  43
ENDBRANCH  40  41
ENDBRANCH  39  40
ENDBRANCH   3  39
TORSDOF 17
ENDMDL
MODEL 8
REMARK VINA RESULT:      -6.6      2.090      5.136
REMARK  Name = 
REMARK  17 active torsions:
REMARK  status: ('A' for Active; 'I' for Inactive)
REMARK    1  A    between atoms: C_3  and  O_47
REMARK    2  A    between atoms: C_4  and  O_46
REMARK    3  A    between atoms: C_6  and  C_7
REMARK    4  A    between atoms: C_8  and  O_20
REMARK    5  A    between atoms: C_12  and  O_19
REMARK    6  A    between atoms: C_14  and  O_18
REMARK    7  A    between atoms: O_20  and  C_21
REMARK    8  A    between atoms: C_23  and  O_45
REMARK    9  A    between atoms: C_24  and  O_44
REMARK   10  A    between atoms: C_25  and  O_43
REMARK   11  A    between atoms: C_27  and  C_30
REMARK   12  A    between atoms: C_30  and  O_31
REMARK   13  A    between atoms: O_31  and  C_32
REMARK   14  A    between atoms: C_32  and  C_34
REMARK   15  A    between atoms: C_36  and  O_42
REMARK   16  A    between atoms: C_37  and  O_41
REMARK   17  A    between atoms: C_38  and  O_40
REMARK                            x       y       z     vdW  Elec       q    Type
REMARK                         _______ _______ _______ _____ _____    ______ ____
ROOT
ATOM      1  C   UNL     1       9.307  -3.777  24.935  0.00  0.00    +0.340 C 
ATOM      2  O   UNL     1       9.156  -2.806  23.907  0.00  0.00    -0.330 OA
ATOM      3  C   UNL     1       8.114  -2.835  22.916  0.00  0.00    +0.191 C 
ATOM      4  C   UNL     1       7.056  -3.959  23.000  0.00  0.00    +0.178 C 
ATOM      5  C   UNL     1       7.216  -4.819  24.248  0.00  0.00    +0.180 C 
ATOM      6  C   UNL     1       8.710  -5.103  24.487  0.00  0.00    +0.214 C 
ENDROOT
BRANCH   4   7
ATOM      7  O   UNL     1       7.193  -4.857  21.874  0.00  0.00    -0.386 OA
ATOM      8  H   UNL     1       7.861  -5.520  22.165  0.00  0.00    +0.210 HD
ENDBRANCH   4   7
BRANCH   5   9
ATOM      9  O   UNL     1       6.503  -6.055  24.082  0.00  0.00    -0.386 OA
ATOM     10  H   UNL     1       7.105  -6.609  23.540  0.00  0.00    +0.210 HD
ENDBRANCH   5   9
BRANCH   6  11
ATOM     11  O   UNL     1       8.848  -6.120  25.492  0.00  0.00    -0.383 OA
ATOM     12  H   UNL     1       8.010  -6.141  25.993  0.00  0.00    +0.210 HD
ENDBRANCH   6  11
BRANCH   1  13
ATOM     13  O   UNL     1       8.683  -3.582  26.250  0.00  0.00    -0.453 OA
BRANCH  13  24
ATOM     14  C   UNL     1       6.399  -2.970  26.804  0.00  0.00    +0.181 A 
ATOM     15  O   UNL     1       5.413  -1.961  26.833  0.00  0.00    -0.451 OA
ATOM     16  C   UNL     1       5.704  -0.695  26.416  0.00  0.00    +0.147 A 
ATOM     17  C   UNL     1       7.006  -0.264  26.269  0.00  0.00    +0.109 A 
ATOM     18  C   UNL     1       7.292   1.051  25.893  0.00  0.00    +0.135 A 
ATOM     19  C   UNL     1       6.257   1.942  25.653  0.00  0.00    +0.091 A 
ATOM     20  C   UNL     1       4.943   1.505  25.809  0.00  0.00    +0.124 A 
ATOM     21  C   UNL     1       8.059  -1.217  26.553  0.00  0.00    +0.238 A 
ATOM     22  O   UNL     1       9.174  -0.772  26.805  0.00  0.00    -0.283 OA
ATOM     23  C   UNL     1       4.656   0.194  26.191  0.00  0.00    +0.092 A 
ATOM     24  C   UNL     1       7.708  -2.667  26.546  0.00  0.00    +0.214 A 
BRANCH  14  26
ATOM     25  C   UNL     1       4.346  -4.435  26.948  0.00  0.00    +0.015 A 
ATOM     26  C   UNL     1       5.747  -4.296  27.204  0.00  0.00    +0.025 A 
ATOM     27  C   UNL     1       6.345  -5.384  27.860  0.00  0.00    +0.060 A 
ATOM     28  C   UNL     1       5.553  -6.463  28.318  0.00  0.00    +0.159 A 
ATOM     29  C   UNL     1       4.166  -6.493  28.143  0.00  0.00    +0.158 A 
ATOM     30  C   UNL     1       3.560  -5.499  27.419  0.00  0.00    +0.050 A 
BRANCH  28  31
ATOM     31  O   UNL     1       6.156  -7.500  28.985  0.00  0.00    -0.503 OA
ATOM     32  H   UNL     1       6.871  -7.808  28.383  0.00  0.00    +0.292 HD
ENDBRANCH  28  31
BRANCH  29  33
ATOM     33  O   UNL     1       3.459  -7.517  28.715  0.00  0.00    -0.503 OA
ATOM     34  H   UNL     1       4.094  -8.137  29.116  0.00  0.00    +0.292 HD
ENDBRANCH  29  33
ENDBRANCH  14  26
BRANCH  20  35
ATOM     35  O   UNL     1       3.897   2.362  25.601  0.00  0.00    -0.507 OA
ATOM     36  H   UNL     1       4.196   3.084  25.019  0.00  0.00    +0.292 HD
ENDBRANCH  20  35
BRANCH  18  37
ATOM     37  O   UNL     1       8.569   1.522  25.753  0.00  0.00    -0.506 OA
ATOM     38  H   UNL     1       8.717   2.214  26.440  0.00  0.00    +0.292 HD
ENDBRANCH  18  37
ENDBRANCH  13  24
ENDBRANCH   1  13
BRANCH   3  39
ATOM     39  C   UNL     1       7.534  -1.414  22.985  0.00  0.00    +0.266 C 
BRANCH  39  40
ATOM     40  O   UNL     1       8.493  -0.376  23.175  0.00  0.00    -0.458 OA
BRANCH  40  41
ATOM     41  C   UNL     1       8.811   0.363  22.085  0.00  0.00    +0.340 C 
ATOM     42  O   UNL     1       9.443  -0.013  21.110  0.00  0.00    -0.245 OA
BRANCH  41  43
ATOM     43  C   UNL     1       8.325   1.758  22.277  0.00  0.00    +0.066 A 
ATOM     44  C   UNL     1       6.989   2.103  22.020  0.00  0.00    +0.064 A 
ATOM     45  C   UNL     1       6.566   3.406  22.235  0.00  0.00    +0.163 A 
ATOM     46  C   UNL     1       7.450   4.367  22.701  0.00  0.00    +0.201 A 
ATOM     47  C   UNL     1       8.777   4.033  22.965  0.00  0.00    +0.163 A 
ATOM     48  C   UNL     1       9.222   2.728  22.766  0.00  0.00    +0.064 A 
BRANCH  45  49
ATOM     49  O   UNL     1       5.267   3.733  21.976  0.00  0.00    -0.503 OA
ATOM     50  H   UNL     1       4.879   2.920  21.594  0.00  0.00    +0.292 HD
ENDBRANCH  45  49
BRANCH  46  51
ATOM     51  O   UNL     1       6.998   5.645  22.887  0.00  0.00    -0.501 OA
ATOM     52  H   UNL     1       7.726   6.212  22.561  0.00  0.00    +0.292 HD
ENDBRANCH  46  51
BRANCH  47  53
ATOM     53  O   UNL     1       9.605   5.029  23.399  0.00  0.00    -0.503 OA
ATOM     54  H   UNL     1      10.450   4.957  22.919  0.00  0.00    +0.292 HD
ENDBRANCH  47  53
ENDBRANCH  41  43
ENDBRANCH  40  41
ENDBRANCH  39  40
ENDBRANCH   3  39
TORSDOF 17
ENDMDL
MODEL 9
REMARK VINA RESULT:      -6.5      1.689      5.338
REMARK  Name = 
REMARK  17 active torsions:
REMARK  status: ('A' for Active; 'I' for Inactive)
REMARK    1  A    between atoms: C_3  and  O_47
REMARK    2  A    between atoms: C_4  and  O_46
REMARK    3  A    between atoms: C_6  and  C_7
REMARK    4  A    between atoms: C_8  and  O_20
REMARK    5  A    between atoms: C_12  and  O_19
REMARK    6  A    between atoms: C_14  and  O_18
REMARK    7  A    between atoms: O_20  and  C_21
REMARK    8  A    between atoms: C_23  and  O_45
REMARK    9  A    between atoms: C_24  and  O_44
REMARK   10  A    between atoms: C_25  and  O_43
REMARK   11  A    between atoms: C_27  and  C_30
REMARK   12  A    between atoms: C_30  and  O_31
REMARK   13  A    between atoms: O_31  and  C_32
REMARK   14  A    between atoms: C_32  and  C_34
REMARK   15  A    between atoms: C_36  and  O_42
REMARK   16  A    between atoms: C_37  and  O_41
REMARK   17  A    between atoms: C_38  and  O_40
REMARK                            x       y       z     vdW  Elec       q    Type
REMARK                         _______ _______ _______ _____ _____    ______ ____
ROOT
ATOM      1  C   UNL     1       4.668  -4.815  23.737  0.00  0.00    +0.340 C 
ATOM      2  O   UNL     1       4.018  -3.632  24.187  0.00  0.00    -0.330 OA
ATOM      3  C   UNL     1       3.002  -3.607  25.205  0.00  0.00    +0.191 C 
ATOM      4  C   UNL     1       2.626  -4.939  25.895  0.00  0.00    +0.178 C 
ATOM      5  C   UNL     1       3.520  -6.094  25.462  0.00  0.00    +0.180 C 
ATOM      6  C   UNL     1       3.758  -6.017  23.943  0.00  0.00    +0.214 C 
ENDROOT
BRANCH   4   7
ATOM      7  O   UNL     1       1.277  -5.320  25.539  0.00  0.00    -0.386 OA
ATOM      8  H   UNL     1       1.035  -6.017  26.192  0.00  0.00    +0.210 HD
ENDBRANCH   4   7
BRANCH   5   9
ATOM      9  O   UNL     1       2.896  -7.344  25.797  0.00  0.00    -0.386 OA
ATOM     10  H   UNL     1       3.497  -7.742  26.463  0.00  0.00    +0.210 HD
ENDBRANCH   5   9
BRANCH   6  11
ATOM     11  O   UNL     1       4.369  -7.236  23.492  0.00  0.00    -0.383 OA
ATOM     12  H   UNL     1       5.248  -6.999  23.136  0.00  0.00    +0.210 HD
ENDBRANCH   6  11
BRANCH   1  13
ATOM     13  O   UNL     1       5.923  -5.264  24.354  0.00  0.00    -0.453 OA
BRANCH  13  24
ATOM     14  C   UNL     1       7.024  -4.061  26.153  0.00  0.00    +0.181 A 
ATOM     15  O   UNL     1       7.899  -3.018  26.524  0.00  0.00    -0.451 OA
ATOM     16  C   UNL     1       8.501  -2.248  25.573  0.00  0.00    +0.147 A 
ATOM     17  C   UNL     1       8.555  -2.640  24.252  0.00  0.00    +0.109 A 
ATOM     18  C   UNL     1       9.222  -1.869  23.297  0.00  0.00    +0.135 A 
ATOM     19  C   UNL     1       9.835  -0.683  23.672  0.00  0.00    +0.091 A 
ATOM     20  C   UNL     1       9.785  -0.292  25.008  0.00  0.00    +0.124 A 
ATOM     21  C   UNL     1       7.924  -3.897  23.905  0.00  0.00    +0.238 A 
ATOM     22  O   UNL     1       8.280  -4.442  22.866  0.00  0.00    -0.283 OA
ATOM     23  C   UNL     1       9.125  -1.065  25.965  0.00  0.00    +0.092 A 
ATOM     24  C   UNL     1       6.909  -4.450  24.847  0.00  0.00    +0.214 A 
BRANCH  14  26
ATOM     25  C   UNL     1       6.862  -5.953  27.819  0.00  0.00    +0.015 A 
ATOM     26  C   UNL     1       6.411  -4.653  27.425  0.00  0.00    +0.025 A 
ATOM     27  C   UNL     1       5.399  -4.102  28.228  0.00  0.00    +0.060 A 
ATOM     28  C   UNL     1       4.820  -4.866  29.268  0.00  0.00    +0.159 A 
ATOM     29  C   UNL     1       5.220  -6.178  29.537  0.00  0.00    +0.158 A 
ATOM     30  C   UNL     1       6.273  -6.714  28.842  0.00  0.00    +0.050 A 
BRANCH  28  31
ATOM     31  O   UNL     1       3.811  -4.318  30.019  0.00  0.00    -0.503 OA
ATOM     32  H   UNL     1       4.221  -3.548  30.474  0.00  0.00    +0.292 HD
ENDBRANCH  28  31
BRANCH  29  33
ATOM     33  O   UNL     1       4.532  -6.888  30.485  0.00  0.00    -0.503 OA
ATOM     34  H   UNL     1       3.701  -6.416  30.674  0.00  0.00    +0.292 HD
ENDBRANCH  29  33
ENDBRANCH  14  26
BRANCH  20  35
ATOM     35  O   UNL     1      10.397   0.861  25.418  0.00  0.00    -0.507 OA
ATOM     36  H   UNL     1       9.801   1.329  26.031  0.00  0.00    +0.292 HD
ENDBRANCH  20  35
BRANCH  18  37
ATOM     37  O   UNL     1       9.312  -2.232  21.980  0.00  0.00    -0.506 OA
ATOM     38  H   UNL     1       8.401  -2.253  21.606  0.00  0.00    +0.292 HD
ENDBRANCH  18  37
ENDBRANCH  13  24
ENDBRANCH   1  13
BRANCH   3  39
ATOM     39  C   UNL     1       3.503  -2.517  26.164  0.00  0.00    +0.266 C 
BRANCH  39  40
ATOM     40  O   UNL     1       4.463  -1.618  25.613  0.00  0.00    -0.458 OA
BRANCH  40  41
ATOM     41  C   UNL     1       5.040  -0.745  26.473  0.00  0.00    +0.340 C 
ATOM     42  O   UNL     1       4.916  -0.729  27.688  0.00  0.00    -0.245 OA
BRANCH  41  43
ATOM     43  C   UNL     1       5.819   0.263  25.701  0.00  0.00    +0.066 A 
ATOM     44  C   UNL     1       5.898   0.204  24.301  0.00  0.00    +0.064 A 
ATOM     45  C   UNL     1       6.611   1.174  23.615  0.00  0.00    +0.163 A 
ATOM     46  C   UNL     1       7.244   2.200  24.299  0.00  0.00    +0.201 A 
ATOM     47  C   UNL     1       7.167   2.272  25.688  0.00  0.00    +0.163 A 
ATOM     48  C   UNL     1       6.448   1.313  26.399  0.00  0.00    +0.064 A 
BRANCH  45  49
ATOM     49  O   UNL     1       6.687   1.103  22.254  0.00  0.00    -0.503 OA
ATOM     50  H   UNL     1       6.401   1.986  21.944  0.00  0.00    +0.292 HD
ENDBRANCH  45  49
BRANCH  46  51
ATOM     51  O   UNL     1       7.950   3.131  23.586  0.00  0.00    -0.501 OA
ATOM     52  H   UNL     1       7.728   3.985  24.010  0.00  0.00    +0.292 HD
ENDBRANCH  46  51
BRANCH  47  53
ATOM     53  O   UNL     1       7.832   3.293  26.306  0.00  0.00    -0.503 OA
ATOM     54  H   UNL     1       8.769   3.253  26.042  0.00  0.00    +0.292 HD
ENDBRANCH  47  53
ENDBRANCH  41  43
ENDBRANCH  40  41
ENDBRANCH  39  40
ENDBRANCH   3  39
TORSDOF 17
ENDMDL
