MODEL 1
REMARK VINA RESULT:      -7.8      0.000      0.000
REMARK  Name = 
REMARK  12 active torsions:
REMARK  status: ('A' for Active; 'I' for Inactive)
REMARK    1  A    between atoms: C_3  and  O_22
REMARK    2  A    between atoms: C_4  and  O_21
REMARK    3  A    between atoms: C_6  and  C_7
REMARK    4  A    between atoms: C_8  and  O_20
REMARK    5  A    between atoms: C_12  and  O_19
REMARK    6  A    between atoms: C_14  and  O_18
REMARK    7  A    between atoms: O_22  and  C_23
REMARK    8  A    between atoms: C_25  and  O_39
REMARK    9  A    between atoms: C_27  and  O_38
REMARK   10  A    between atoms: C_29  and  O_37
REMARK   11  A    between atoms: C_31  and  C_34
REMARK   12  A    between atoms: C_34  and  O_36
REMARK                            x       y       z     vdW  Elec       q    Type
REMARK                         _______ _______ _______ _____ _____    ______ ____
ROOT
ATOM      1  C   UNL     1       9.578  -0.264  24.580  0.00  0.00    +0.015 A 
ATOM      2  C   UNL     1       8.650   0.667  24.098  0.00  0.00    +0.025 A 
ATOM      3  C   UNL     1       7.493   0.161  23.481  0.00  0.00    +0.060 A 
ATOM      4  C   UNL     1       7.318  -1.221  23.303  0.00  0.00    +0.159 A 
ATOM      5  C   UNL     1       8.294  -2.137  23.695  0.00  0.00    +0.165 A 
ATOM      6  C   UNL     1       9.398  -1.636  24.396  0.00  0.00    +0.050 A 
ENDROOT
BRANCH   2   7
ATOM      7  C   UNL     1       9.006   2.111  24.181  0.00  0.00    +0.181 A 
ATOM      8  O   UNL     1      10.290   2.356  23.684  0.00  0.00    -0.451 OA
ATOM      9  C   UNL     1      10.816   3.618  23.747  0.00  0.00    +0.147 A 
ATOM     10  C   UNL     1      10.076   4.711  24.173  0.00  0.00    +0.109 A 
ATOM     11  C   UNL     1      10.663   5.986  24.193  0.00  0.00    +0.135 A 
ATOM     12  C   UNL     1      11.992   6.159  23.804  0.00  0.00    +0.091 A 
ATOM     13  C   UNL     1      12.725   5.050  23.395  0.00  0.00    +0.124 A 
ATOM     14  C   UNL     1       8.697   4.491  24.612  0.00  0.00    +0.238 A 
ATOM     15  O   UNL     1       8.009   5.454  24.953  0.00  0.00    -0.283 OA
ATOM     16  C   UNL     1      12.147   3.783  23.360  0.00  0.00    +0.092 A 
ATOM     17  C   UNL     1       8.205   3.083  24.668  0.00  0.00    +0.208 A 
BRANCH  11  18
ATOM     18  O   UNL     1       9.991   7.108  24.593  0.00  0.00    -0.506 OA
ATOM     19  H   UNL     1      10.455   7.891  24.216  0.00  0.00    +0.292 HD
ENDBRANCH  11  18
BRANCH  13  20
ATOM     20  O   UNL     1      14.029   5.169  23.017  0.00  0.00    -0.507 OA
ATOM     21  H   UNL     1      14.136   4.780  22.132  0.00  0.00    +0.292 HD
ENDBRANCH  13  20
BRANCH  17  22
ATOM     22  O   UNL     1       6.968   2.882  25.245  0.00  0.00    -0.501 OA
ATOM     23  H   UNL     1       6.793   1.930  25.294  0.00  0.00    +0.292 HD
ENDBRANCH  17  22
ENDBRANCH   2   7
BRANCH   4  24
ATOM     24  O   UNL     1       6.169  -1.637  22.689  0.00  0.00    -0.503 OA
ATOM     25  H   UNL     1       5.578  -1.949  23.401  0.00  0.00    +0.292 HD
ENDBRANCH   4  24
BRANCH   5  26
ATOM     26  O   UNL     1       8.141  -3.466  23.318  0.00  0.00    -0.457 OA
BRANCH  26  27
ATOM     27  C   UNL     1       7.869  -4.344  24.425  0.00  0.00    +0.340 C 
ATOM     28  O   UNL     1       7.345  -5.607  24.002  0.00  0.00    -0.322 OA
ATOM     29  C   UNL     1       5.940  -5.697  23.822  0.00  0.00    +0.261 C 
ATOM     30  C   UNL     1       5.266  -5.454  25.176  0.00  0.00    +0.185 C 
ATOM     31  C   UNL     1       5.588  -4.035  25.677  0.00  0.00    +0.180 C 
ATOM     32  C   UNL     1       7.099  -3.741  25.635  0.00  0.00    +0.214 C 
BRANCH  29  33
ATOM     33  C   UNL     1       5.239  -4.834  22.755  0.00  0.00    +0.337 C 
ATOM     34  O   UNL     1       4.047  -4.565  22.764  0.00  0.00    -0.248 OA
BRANCH  33  35
ATOM     35  O   UNL     1       6.038  -4.490  21.715  0.00  0.00    -0.479 OA
ATOM     36  H   UNL     1       6.328  -5.222  21.136  0.00  0.00    +0.295 HD
ENDBRANCH  33  35
ENDBRANCH  29  33
BRANCH  30  37
ATOM     37  O   UNL     1       5.779  -6.433  26.103  0.00  0.00    -0.386 OA
ATOM     38  H   UNL     1       5.161  -7.186  26.124  0.00  0.00    +0.210 HD
ENDBRANCH  30  37
BRANCH  31  39
ATOM     39  O   UNL     1       4.801  -3.052  25.012  0.00  0.00    -0.386 OA
ATOM     40  H   UNL     1       5.225  -2.170  25.071  0.00  0.00    +0.210 HD
ENDBRANCH  31  39
BRANCH  32  41
ATOM     41  O   UNL     1       7.644  -4.365  26.831  0.00  0.00    -0.383 OA
ATOM     42  H   UNL     1       8.423  -3.831  27.097  0.00  0.00    +0.210 HD
ENDBRANCH  32  41
ENDBRANCH  26  27
ENDBRANCH   5  26
TORSDOF 12
ENDMDL
MODEL 2
REMARK VINA RESULT:      -7.4      1.150      1.953
REMARK  Name = 
REMARK  12 active torsions:
REMARK  status: ('A' for Active; 'I' for Inactive)
REMARK    1  A    between atoms: C_3  and  O_22
REMARK    2  A    between atoms: C_4  and  O_21
REMARK    3  A    between atoms: C_6  and  C_7
REMARK    4  A    between atoms: C_8  and  O_20
REMARK    5  A    between atoms: C_12  and  O_19
REMARK    6  A    between atoms: C_14  and  O_18
REMARK    7  A    between atoms: O_22  and  C_23
REMARK    8  A    between atoms: C_25  and  O_39
REMARK    9  A    between atoms: C_27  and  O_38
REMARK   10  A    between atoms: C_29  and  O_37
REMARK   11  A    between atoms: C_31  and  C_34
REMARK   12  A    between atoms: C_34  and  O_36
REMARK                            x       y       z     vdW  Elec       q    Type
REMARK                         _______ _______ _______ _____ _____    ______ ____
ROOT
ATOM      1  C   UNL     1       9.107  -0.600  22.882  0.00  0.00    +0.015 A 
ATOM      2  C   UNL     1       9.215   0.116  24.080  0.00  0.00    +0.025 A 
ATOM      3  C   UNL     1       9.101  -0.612  25.277  0.00  0.00    +0.060 A 
ATOM      4  C   UNL     1       8.822  -1.988  25.258  0.00  0.00    +0.159 A 
ATOM      5  C   UNL     1       8.615  -2.675  24.062  0.00  0.00    +0.165 A 
ATOM      6  C   UNL     1       8.827  -1.967  22.872  0.00  0.00    +0.050 A 
ENDROOT
BRANCH   2   7
ATOM      7  C   UNL     1       9.338   1.598  23.997  0.00  0.00    +0.181 A 
ATOM      8  O   UNL     1      10.639   1.990  23.663  0.00  0.00    -0.451 OA
ATOM      9  C   UNL     1      10.958   3.320  23.612  0.00  0.00    +0.147 A 
ATOM     10  C   UNL     1      10.007   4.318  23.755  0.00  0.00    +0.109 A 
ATOM     11  C   UNL     1      10.391   5.666  23.670  0.00  0.00    +0.135 A 
ATOM     12  C   UNL     1      11.727   6.008  23.458  0.00  0.00    +0.091 A 
ATOM     13  C   UNL     1      12.671   4.995  23.332  0.00  0.00    +0.124 A 
ATOM     14  C   UNL     1       8.620   3.929  24.017  0.00  0.00    +0.238 A 
ATOM     15  O   UNL     1       7.753   4.798  24.105  0.00  0.00    -0.283 OA
ATOM     16  C   UNL     1      12.297   3.655  23.403  0.00  0.00    +0.092 A 
ATOM     17  C   UNL     1       8.334   2.477  24.210  0.00  0.00    +0.208 A 
BRANCH  11  18
ATOM     18  O   UNL     1       9.506   6.701  23.794  0.00  0.00    -0.506 OA
ATOM     19  H   UNL     1       8.947   6.530  24.587  0.00  0.00    +0.292 HD
ENDBRANCH  11  18
BRANCH  13  20
ATOM     20  O   UNL     1      13.989   5.282  23.135  0.00  0.00    -0.507 OA
ATOM     21  H   UNL     1      14.069   5.895  22.384  0.00  0.00    +0.292 HD
ENDBRANCH  13  20
BRANCH  17  22
ATOM     22  O   UNL     1       7.061   2.146  24.623  0.00  0.00    -0.501 OA
ATOM     23  H   UNL     1       7.120   1.522  25.363  0.00  0.00    +0.292 HD
ENDBRANCH  17  22
ENDBRANCH   2   7
BRANCH   4  24
ATOM     24  O   UNL     1       8.719  -2.627  26.463  0.00  0.00    -0.503 OA
ATOM     25  H   UNL     1       8.032  -3.312  26.350  0.00  0.00    +0.292 HD
ENDBRANCH   4  24
BRANCH   5  26
ATOM     26  O   UNL     1       8.158  -3.986  24.124  0.00  0.00    -0.457 OA
BRANCH  26  27
ATOM     27  C   UNL     1       6.788  -4.089  24.553  0.00  0.00    +0.340 C 
ATOM     28  O   UNL     1       6.304  -5.436  24.508  0.00  0.00    -0.322 OA
ATOM     29  C   UNL     1       5.761  -5.888  23.277  0.00  0.00    +0.261 C 
ATOM     30  C   UNL     1       4.525  -5.041  22.960  0.00  0.00    +0.185 C 
ATOM     31  C   UNL     1       4.926  -3.566  22.785  0.00  0.00    +0.180 C 
ATOM     32  C   UNL     1       5.781  -3.062  23.964  0.00  0.00    +0.214 C 
BRANCH  29  33
ATOM     33  C   UNL     1       6.649  -5.963  22.020  0.00  0.00    +0.337 C 
ATOM     34  O   UNL     1       6.220  -5.998  20.877  0.00  0.00    -0.248 OA
BRANCH  33  35
ATOM     35  O   UNL     1       7.970  -6.115  22.288  0.00  0.00    -0.479 OA
ATOM     36  H   UNL     1       8.237  -5.979  23.218  0.00  0.00    +0.295 HD
ENDBRANCH  33  35
ENDBRANCH  29  33
BRANCH  30  37
ATOM     37  O   UNL     1       3.606  -5.175  24.063  0.00  0.00    -0.386 OA
ATOM     38  H   UNL     1       4.087  -4.972  24.887  0.00  0.00    +0.210 HD
ENDBRANCH  30  37
BRANCH  31  39
ATOM     39  O   UNL     1       5.522  -3.330  21.513  0.00  0.00    -0.386 OA
ATOM     40  H   UNL     1       5.282  -2.440  21.178  0.00  0.00    +0.210 HD
ENDBRANCH  31  39
BRANCH  32  41
ATOM     41  O   UNL     1       4.829  -2.754  25.021  0.00  0.00    -0.383 OA
ATOM     42  H   UNL     1       5.351  -2.650  25.847  0.00  0.00    +0.210 HD
ENDBRANCH  32  41
ENDBRANCH  26  27
ENDBRANCH   5  26
TORSDOF 12
ENDMDL
MODEL 3
REMARK VINA RESULT:      -7.2      1.052      2.493
REMARK  Name = 
REMARK  12 active torsions:
REMARK  status: ('A' for Active; 'I' for Inactive)
REMARK    1  A    between atoms: C_3  and  O_22
REMARK    2  A    between atoms: C_4  and  O_21
REMARK    3  A    between atoms: C_6  and  C_7
REMARK    4  A    between atoms: C_8  and  O_20
REMARK    5  A    between atoms: C_12  and  O_19
REMARK    6  A    between atoms: C_14  and  O_18
REMARK    7  A    between atoms: O_22  and  C_23
REMARK    8  A    between atoms: C_25  and  O_39
REMARK    9  A    between atoms: C_27  and  O_38
REMARK   10  A    between atoms: C_29  and  O_37
REMARK   11  A    between atoms: C_31  and  C_34
REMARK   12  A    between atoms: C_34  and  O_36
REMARK                            x       y       z     vdW  Elec       q    Type
REMARK                         _______ _______ _______ _____ _____    ______ ____
ROOT
ATOM      1  C   UNL     1       9.006  -0.093  22.714  0.00  0.00    +0.015 A 
ATOM      2  C   UNL     1       9.204   0.457  23.987  0.00  0.00    +0.025 A 
ATOM      3  C   UNL     1       9.097  -0.412  25.087  0.00  0.00    +0.060 A 
ATOM      4  C   UNL     1       8.739  -1.758  24.907  0.00  0.00    +0.159 A 
ATOM      5  C   UNL     1       8.444  -2.274  23.646  0.00  0.00    +0.165 A 
ATOM      6  C   UNL     1       8.648  -1.431  22.546  0.00  0.00    +0.050 A 
ENDROOT
BRANCH   2   7
ATOM      7  C   UNL     1       9.410   1.929  24.085  0.00  0.00    +0.181 A 
ATOM      8  O   UNL     1      10.656   2.311  23.578  0.00  0.00    -0.451 OA
ATOM      9  C   UNL     1      11.049   3.620  23.652  0.00  0.00    +0.147 A 
ATOM     10  C   UNL     1      10.206   4.625  24.100  0.00  0.00    +0.109 A 
ATOM     11  C   UNL     1      10.658   5.954  24.130  0.00  0.00    +0.135 A 
ATOM     12  C   UNL     1      11.957   6.268  23.729  0.00  0.00    +0.091 A 
ATOM     13  C   UNL     1      12.795   5.246  23.297  0.00  0.00    +0.124 A 
ATOM     14  C   UNL     1       8.862   4.259  24.552  0.00  0.00    +0.238 A 
ATOM     15  O   UNL     1       8.083   5.142  24.913  0.00  0.00    -0.283 OA
ATOM     16  C   UNL     1      12.351   3.927  23.252  0.00  0.00    +0.092 A 
ATOM     17  C   UNL     1       8.519   2.807  24.594  0.00  0.00    +0.208 A 
BRANCH  11  18
ATOM     18  O   UNL     1       9.879   6.995  24.553  0.00  0.00    -0.506 OA
ATOM     19  H   UNL     1      10.117   7.193  25.489  0.00  0.00    +0.292 HD
ENDBRANCH  11  18
BRANCH  13  20
ATOM     20  O   UNL     1      14.076   5.503  22.906  0.00  0.00    -0.507 OA
ATOM     21  H   UNL     1      14.683   4.970  23.447  0.00  0.00    +0.292 HD
ENDBRANCH  13  20
BRANCH  17  22
ATOM     22  O   UNL     1       7.317   2.473  25.182  0.00  0.00    -0.501 OA
ATOM     23  H   UNL     1       7.491   1.994  26.007  0.00  0.00    +0.292 HD
ENDBRANCH  17  22
ENDBRANCH   2   7
BRANCH   4  24
ATOM     24  O   UNL     1       8.648  -2.541  26.026  0.00  0.00    -0.503 OA
ATOM     25  H   UNL     1       9.440  -2.342  26.561  0.00  0.00    +0.292 HD
ENDBRANCH   4  24
BRANCH   5  26
ATOM     26  O   UNL     1       7.914  -3.556  23.564  0.00  0.00    -0.457 OA
BRANCH  26  27
ATOM     27  C   UNL     1       6.631  -3.600  22.915  0.00  0.00    +0.340 C 
ATOM     28  O   UNL     1       5.548  -3.463  23.842  0.00  0.00    -0.322 OA
ATOM     29  C   UNL     1       5.071  -4.648  24.460  0.00  0.00    +0.261 C 
ATOM     30  C   UNL     1       4.509  -5.565  23.369  0.00  0.00    +0.185 C 
ATOM     31  C   UNL     1       5.625  -5.961  22.387  0.00  0.00    +0.180 C 
ATOM     32  C   UNL     1       6.400  -4.733  21.875  0.00  0.00    +0.214 C 
BRANCH  29  33
ATOM     33  C   UNL     1       5.999  -5.472  25.373  0.00  0.00    +0.337 C 
ATOM     34  O   UNL     1       5.751  -6.603  25.764  0.00  0.00    -0.248 OA
BRANCH  33  35
ATOM     35  O   UNL     1       7.080  -4.786  25.822  0.00  0.00    -0.479 OA
ATOM     36  H   UNL     1       6.924  -3.853  26.067  0.00  0.00    +0.295 HD
ENDBRANCH  33  35
ENDBRANCH  29  33
BRANCH  30  37
ATOM     37  O   UNL     1       3.475  -4.837  22.674  0.00  0.00    -0.386 OA
ATOM     38  H   UNL     1       3.592  -4.982  21.717  0.00  0.00    +0.210 HD
ENDBRANCH  30  37
BRANCH  31  39
ATOM     39  O   UNL     1       6.466  -6.976  22.927  0.00  0.00    -0.386 OA
ATOM     40  H   UNL     1       6.534  -6.888  23.901  0.00  0.00    +0.210 HD
ENDBRANCH  31  39
BRANCH  32  41
ATOM     41  O   UNL     1       5.571  -4.170  20.819  0.00  0.00    -0.383 OA
ATOM     42  H   UNL     1       6.180  -3.725  20.191  0.00  0.00    +0.210 HD
ENDBRANCH  32  41
ENDBRANCH  26  27
ENDBRANCH   5  26
TORSDOF 12
ENDMDL
MODEL 4
REMARK VINA RESULT:      -7.0      1.829      3.409
REMARK  Name = 
REMARK  12 active torsions:
REMARK  status: ('A' for Active; 'I' for Inactive)
REMARK    1  A    between atoms: C_3  and  O_22
REMARK    2  A    between atoms: C_4  and  O_21
REMARK    3  A    between atoms: C_6  and  C_7
REMARK    4  A    between atoms: C_8  and  O_20
REMARK    5  A    between atoms: C_12  and  O_19
REMARK    6  A    between atoms: C_14  and  O_18
REMARK    7  A    between atoms: O_22  and  C_23
REMARK    8  A    between atoms: C_25  and  O_39
REMARK    9  A    between atoms: C_27  and  O_38
REMARK   10  A    between atoms: C_29  and  O_37
REMARK   11  A    between atoms: C_31  and  C_34
REMARK   12  A    between atoms: C_34  and  O_36
REMARK                            x       y       z     vdW  Elec       q    Type
REMARK                         _______ _______ _______ _____ _____    ______ ____
ROOT
ATOM      1  C   UNL     1       8.641  -1.327  22.750  0.00  0.00    +0.015 A 
ATOM      2  C   UNL     1       8.860  -0.538  23.886  0.00  0.00    +0.025 A 
ATOM      3  C   UNL     1       8.893  -1.194  25.129  0.00  0.00    +0.060 A 
ATOM      4  C   UNL     1       8.648  -2.574  25.220  0.00  0.00    +0.159 A 
ATOM      5  C   UNL     1       8.331  -3.336  24.096  0.00  0.00    +0.165 A 
ATOM      6  C   UNL     1       8.396  -2.697  22.851  0.00  0.00    +0.050 A 
ENDROOT
BRANCH   2   7
ATOM      7  C   UNL     1       8.937   0.938  23.704  0.00  0.00    +0.181 A 
ATOM      8  O   UNL     1       7.676   1.497  23.471  0.00  0.00    -0.451 OA
ATOM      9  C   UNL     1       7.561   2.835  23.207  0.00  0.00    +0.147 A 
ATOM     10  C   UNL     1       8.639   3.703  23.286  0.00  0.00    +0.109 A 
ATOM     11  C   UNL     1       8.455   5.070  23.028  0.00  0.00    +0.135 A 
ATOM     12  C   UNL     1       7.197   5.560  22.676  0.00  0.00    +0.091 A 
ATOM     13  C   UNL     1       6.129   4.674  22.586  0.00  0.00    +0.124 A 
ATOM     14  C   UNL     1       9.955   3.153  23.618  0.00  0.00    +0.238 A 
ATOM     15  O   UNL     1      10.917   3.912  23.735  0.00  0.00    -0.283 OA
ATOM     16  C   UNL     1       6.300   3.317  22.853  0.00  0.00    +0.092 A 
ATOM     17  C   UNL     1      10.071   1.671  23.755  0.00  0.00    +0.208 A 
BRANCH  11  18
ATOM     18  O   UNL     1       9.471   5.983  23.094  0.00  0.00    -0.506 OA
ATOM     19  H   UNL     1       9.770   6.039  24.031  0.00  0.00    +0.292 HD
ENDBRANCH  11  18
BRANCH  13  20
ATOM     20  O   UNL     1       4.884   5.105  22.235  0.00  0.00    -0.507 OA
ATOM     21  H   UNL     1       4.909   5.426  21.317  0.00  0.00    +0.292 HD
ENDBRANCH  13  20
BRANCH  17  22
ATOM     22  O   UNL     1      11.344   1.160  23.898  0.00  0.00    -0.501 OA
ATOM     23  H   UNL     1      11.578   1.154  24.839  0.00  0.00    +0.292 HD
ENDBRANCH  17  22
ENDBRANCH   2   7
BRANCH   4  24
ATOM     24  O   UNL     1       8.691  -3.141  26.464  0.00  0.00    -0.503 OA
ATOM     25  H   UNL     1       8.001  -2.694  26.991  0.00  0.00    +0.292 HD
ENDBRANCH   4  24
BRANCH   5  26
ATOM     26  O   UNL     1       7.915  -4.648  24.284  0.00  0.00    -0.457 OA
BRANCH  26  27
ATOM     27  C   UNL     1       6.543  -4.755  24.705  0.00  0.00    +0.340 C 
ATOM     28  O   UNL     1       5.970  -6.025  24.376  0.00  0.00    -0.322 OA
ATOM     29  C   UNL     1       5.393  -6.160  23.087  0.00  0.00    +0.261 C 
ATOM     30  C   UNL     1       4.214  -5.186  22.986  0.00  0.00    +0.185 C 
ATOM     31  C   UNL     1       4.713  -3.738  23.130  0.00  0.00    +0.180 C 
ATOM     32  C   UNL     1       5.604  -3.560  24.374  0.00  0.00    +0.214 C 
BRANCH  29  33
ATOM     33  C   UNL     1       6.268  -6.014  21.828  0.00  0.00    +0.337 C 
ATOM     34  O   UNL     1       5.836  -5.733  20.719  0.00  0.00    -0.248 OA
BRANCH  33  35
ATOM     35  O   UNL     1       7.568  -6.350  22.020  0.00  0.00    -0.479 OA
ATOM     36  H   UNL     1       7.841  -6.495  22.946  0.00  0.00    +0.295 HD
ENDBRANCH  33  35
ENDBRANCH  29  33
BRANCH  30  37
ATOM     37  O   UNL     1       3.293  -5.499  24.051  0.00  0.00    -0.386 OA
ATOM     38  H   UNL     1       2.398  -5.565  23.670  0.00  0.00    +0.210 HD
ENDBRANCH  30  37
BRANCH  31  39
ATOM     39  O   UNL     1       5.318  -3.267  21.930  0.00  0.00    -0.386 OA
ATOM     40  H   UNL     1       4.940  -2.401  21.667  0.00  0.00    +0.210 HD
ENDBRANCH  31  39
BRANCH  32  41
ATOM     41  O   UNL     1       4.681  -3.431  25.491  0.00  0.00    -0.383 OA
ATOM     42  H   UNL     1       4.230  -2.565  25.384  0.00  0.00    +0.210 HD
ENDBRANCH  32  41
ENDBRANCH  26  27
ENDBRANCH   5  26
TORSDOF 12
ENDMDL
MODEL 5
REMARK VINA RESULT:      -6.9      2.018      4.315
REMARK  Name = 
REMARK  12 active torsions:
REMARK  status: ('A' for Active; 'I' for Inactive)
REMARK    1  A    between atoms: C_3  and  O_22
REMARK    2  A    between atoms: C_4  and  O_21
REMARK    3  A    between atoms: C_6  and  C_7
REMARK    4  A    between atoms: C_8  and  O_20
REMARK    5  A    between atoms: C_12  and  O_19
REMARK    6  A    between atoms: C_14  and  O_18
REMARK    7  A    between atoms: O_22  and  C_23
REMARK    8  A    between atoms: C_25  and  O_39
REMARK    9  A    between atoms: C_27  and  O_38
REMARK   10  A    between atoms: C_29  and  O_37
REMARK   11  A    between atoms: C_31  and  C_34
REMARK   12  A    between atoms: C_34  and  O_36
REMARK                            x       y       z     vdW  Elec       q    Type
REMARK                         _______ _______ _______ _____ _____    ______ ____
ROOT
ATOM      1  C   UNL     1       6.390  -1.864  22.616  0.00  0.00    +0.015 A 
ATOM      2  C   UNL     1       7.680  -1.723  23.144  0.00  0.00    +0.025 A 
ATOM      3  C   UNL     1       8.280  -2.871  23.690  0.00  0.00    +0.060 A 
ATOM      4  C   UNL     1       7.579  -4.085  23.759  0.00  0.00    +0.159 A 
ATOM      5  C   UNL     1       6.258  -4.193  23.324  0.00  0.00    +0.165 A 
ATOM      6  C   UNL     1       5.700  -3.074  22.692  0.00  0.00    +0.050 A 
ENDROOT
BRANCH   2   7
ATOM      7  C   UNL     1       8.272  -0.357  23.180  0.00  0.00    +0.181 A 
ATOM      8  O   UNL     1       7.799   0.383  24.268  0.00  0.00    -0.451 OA
ATOM      9  C   UNL     1       8.179   1.689  24.421  0.00  0.00    +0.147 A 
ATOM     10  C   UNL     1       9.127   2.288  23.606  0.00  0.00    +0.109 A 
ATOM     11  C   UNL     1       9.494   3.624  23.827  0.00  0.00    +0.135 A 
ATOM     12  C   UNL     1       8.899   4.361  24.852  0.00  0.00    +0.091 A 
ATOM     13  C   UNL     1       7.939   3.750  25.651  0.00  0.00    +0.124 A 
ATOM     14  C   UNL     1       9.704   1.502  22.513  0.00  0.00    +0.238 A 
ATOM     15  O   UNL     1      10.578   2.001  21.805  0.00  0.00    -0.283 OA
ATOM     16  C   UNL     1       7.577   2.421  25.447  0.00  0.00    +0.092 A 
ATOM     17  C   UNL     1       9.160   0.131  22.286  0.00  0.00    +0.208 A 
BRANCH  11  18
ATOM     18  O   UNL     1      10.426   4.276  23.067  0.00  0.00    -0.506 OA
ATOM     19  H   UNL     1      10.689   3.678  22.329  0.00  0.00    +0.292 HD
ENDBRANCH  11  18
BRANCH  13  20
ATOM     20  O   UNL     1       7.322   4.433  26.658  0.00  0.00    -0.507 OA
ATOM     21  H   UNL     1       7.464   5.386  26.524  0.00  0.00    +0.292 HD
ENDBRANCH  13  20
BRANCH  17  22
ATOM     22  O   UNL     1       9.592  -0.526  21.153  0.00  0.00    -0.501 OA
ATOM     23  H   UNL     1      10.083   0.096  20.594  0.00  0.00    +0.292 HD
ENDBRANCH  17  22
ENDBRANCH   2   7
BRANCH   4  24
ATOM     24  O   UNL     1       8.227  -5.157  24.310  0.00  0.00    -0.503 OA
ATOM     25  H   UNL     1       9.127  -5.153  23.933  0.00  0.00    +0.292 HD
ENDBRANCH   4  24
BRANCH   5  26
ATOM     26  O   UNL     1       5.567  -5.367  23.596  0.00  0.00    -0.457 OA
BRANCH  26  27
ATOM     27  C   UNL     1       4.174  -5.151  23.887  0.00  0.00    +0.340 C 
ATOM     28  O   UNL     1       3.974  -4.541  25.166  0.00  0.00    -0.322 OA
ATOM     29  C   UNL     1       3.886  -5.405  26.288  0.00  0.00    +0.261 C 
ATOM     30  C   UNL     1       2.655  -6.299  26.110  0.00  0.00    +0.185 C 
ATOM     31  C   UNL     1       2.815  -7.172  24.853  0.00  0.00    +0.180 C 
ATOM     32  C   UNL     1       3.202  -6.336  23.619  0.00  0.00    +0.214 C 
BRANCH  29  33
ATOM     33  C   UNL     1       5.087  -6.285  26.684  0.00  0.00    +0.337 C 
ATOM     34  O   UNL     1       5.003  -7.295  27.368  0.00  0.00    -0.248 OA
BRANCH  33  35
ATOM     35  O   UNL     1       6.287  -5.777  26.311  0.00  0.00    -0.479 OA
ATOM     36  H   UNL     1       6.407  -4.817  26.445  0.00  0.00    +0.295 HD
ENDBRANCH  33  35
ENDBRANCH  29  33
BRANCH  30  37
ATOM     37  O   UNL     1       1.505  -5.440  25.969  0.00  0.00    -0.386 OA
ATOM     38  H   UNL     1       1.598  -4.702  26.600  0.00  0.00    +0.210 HD
ENDBRANCH  30  37
BRANCH  31  39
ATOM     39  O   UNL     1       3.688  -8.273  25.086  0.00  0.00    -0.386 OA
ATOM     40  H   UNL     1       4.388  -8.032  25.729  0.00  0.00    +0.210 HD
ENDBRANCH  31  39
BRANCH  32  41
ATOM     41  O   UNL     1       1.955  -5.755  23.145  0.00  0.00    -0.383 OA
ATOM     42  H   UNL     1       2.140  -4.810  22.952  0.00  0.00    +0.210 HD
ENDBRANCH  32  41
ENDBRANCH  26  27
ENDBRANCH   5  26
TORSDOF 12
ENDMDL
MODEL 6
REMARK VINA RESULT:      -6.9      2.051      3.632
REMARK  Name = 
REMARK  12 active torsions:
REMARK  status: ('A' for Active; 'I' for Inactive)
REMARK    1  A    between atoms: C_3  and  O_22
REMARK    2  A    between atoms: C_4  and  O_21
REMARK    3  A    between atoms: C_6  and  C_7
REMARK    4  A    between atoms: C_8  and  O_20
REMARK    5  A    between atoms: C_12  and  O_19
REMARK    6  A    between atoms: C_14  and  O_18
REMARK    7  A    between atoms: O_22  and  C_23
REMARK    8  A    between atoms: C_25  and  O_39
REMARK    9  A    between atoms: C_27  and  O_38
REMARK   10  A    between atoms: C_29  and  O_37
REMARK   11  A    between atoms: C_31  and  C_34
REMARK   12  A    between atoms: C_34  and  O_36
REMARK                            x       y       z     vdW  Elec       q    Type
REMARK                         _______ _______ _______ _____ _____    ______ ____
ROOT
ATOM      1  C   UNL     1       6.709  -1.868  23.423  0.00  0.00    +0.015 A 
ATOM      2  C   UNL     1       8.076  -1.631  23.615  0.00  0.00    +0.025 A 
ATOM      3  C   UNL     1       8.877  -2.733  23.963  0.00  0.00    +0.060 A 
ATOM      4  C   UNL     1       8.306  -3.999  24.171  0.00  0.00    +0.159 A 
ATOM      5  C   UNL     1       6.930  -4.205  24.077  0.00  0.00    +0.165 A 
ATOM      6  C   UNL     1       6.151  -3.129  23.635  0.00  0.00    +0.050 A 
ENDROOT
BRANCH   2   7
ATOM      7  C   UNL     1       8.556  -0.223  23.539  0.00  0.00    +0.181 A 
ATOM      8  O   UNL     1       8.056   0.551  24.591  0.00  0.00    -0.451 OA
ATOM      9  C   UNL     1       8.333   1.890  24.644  0.00  0.00    +0.147 A 
ATOM     10  C   UNL     1       9.205   2.503  23.758  0.00  0.00    +0.109 A 
ATOM     11  C   UNL     1       9.469   3.877  23.876  0.00  0.00    +0.135 A 
ATOM     12  C   UNL     1       8.846   4.634  24.869  0.00  0.00    +0.091 A 
ATOM     13  C   UNL     1       7.962   4.006  25.740  0.00  0.00    +0.124 A 
ATOM     14  C   UNL     1       9.813   1.692  22.701  0.00  0.00    +0.238 A 
ATOM     15  O   UNL     1      10.623   2.208  21.931  0.00  0.00    -0.283 OA
ATOM     16  C   UNL     1       7.704   2.641  25.638  0.00  0.00    +0.092 A 
ATOM     17  C   UNL     1       9.376   0.269  22.585  0.00  0.00    +0.208 A 
BRANCH  11  18
ATOM     18  O   UNL     1      10.323   4.545  23.043  0.00  0.00    -0.506 OA
ATOM     19  H   UNL     1       9.848   5.332  22.688  0.00  0.00    +0.292 HD
ENDBRANCH  11  18
BRANCH  13  20
ATOM     20  O   UNL     1       7.322   4.707  26.719  0.00  0.00    -0.507 OA
ATOM     21  H   UNL     1       7.773   5.559  26.843  0.00  0.00    +0.292 HD
ENDBRANCH  13  20
BRANCH  17  22
ATOM     22  O   UNL     1       9.827  -0.428  21.484  0.00  0.00    -0.501 OA
ATOM     23  H   UNL     1       9.086  -0.919  21.096  0.00  0.00    +0.292 HD
ENDBRANCH  17  22
ENDBRANCH   2   7
BRANCH   4  24
ATOM     24  O   UNL     1       9.148  -5.021  24.514  0.00  0.00    -0.503 OA
ATOM     25  H   UNL     1       9.142  -5.643  23.761  0.00  0.00    +0.292 HD
ENDBRANCH   4  24
BRANCH   5  26
ATOM     26  O   UNL     1       6.417  -5.432  24.481  0.00  0.00    -0.457 OA
BRANCH  26  27
ATOM     27  C   UNL     1       6.057  -5.466  25.874  0.00  0.00    +0.340 C 
ATOM     28  O   UNL     1       5.598  -6.758  26.286  0.00  0.00    -0.322 OA
ATOM     29  C   UNL     1       4.219  -7.042  26.110  0.00  0.00    +0.261 C 
ATOM     30  C   UNL     1       3.415  -6.071  26.981  0.00  0.00    +0.185 C 
ATOM     31  C   UNL     1       3.662  -4.624  26.522  0.00  0.00    +0.180 C 
ATOM     32  C   UNL     1       5.165  -4.307  26.404  0.00  0.00    +0.214 C 
BRANCH  29  33
ATOM     33  C   UNL     1       3.607  -7.065  24.697  0.00  0.00    +0.337 C 
ATOM     34  O   UNL     1       2.422  -6.885  24.458  0.00  0.00    -0.248 OA
BRANCH  33  35
ATOM     35  O   UNL     1       4.480  -7.431  23.726  0.00  0.00    -0.479 OA
ATOM     36  H   UNL     1       5.070  -6.727  23.392  0.00  0.00    +0.295 HD
ENDBRANCH  33  35
ENDBRANCH  29  33
BRANCH  30  37
ATOM     37  O   UNL     1       3.856  -6.238  28.345  0.00  0.00    -0.386 OA
ATOM     38  H   UNL     1       3.105  -6.573  28.868  0.00  0.00    +0.210 HD
ENDBRANCH  30  37
BRANCH  31  39
ATOM     39  O   UNL     1       2.924  -4.313  25.344  0.00  0.00    -0.386 OA
ATOM     40  H   UNL     1       2.149  -3.752  25.557  0.00  0.00    +0.210 HD
ENDBRANCH  31  39
BRANCH  32  41
ATOM     41  O   UNL     1       5.604  -4.028  27.763  0.00  0.00    -0.383 OA
ATOM     42  H   UNL     1       5.672  -4.894  28.220  0.00  0.00    +0.210 HD
ENDBRANCH  32  41
ENDBRANCH  26  27
ENDBRANCH   5  26
TORSDOF 12
ENDMDL
MODEL 7
REMARK VINA RESULT:      -6.9      2.695      4.756
REMARK  Name = 
REMARK  12 active torsions:
REMARK  status: ('A' for Active; 'I' for Inactive)
REMARK    1  A    between atoms: C_3  and  O_22
REMARK    2  A    between atoms: C_4  and  O_21
REMARK    3  A    between atoms: C_6  and  C_7
REMARK    4  A    between atoms: C_8  and  O_20
REMARK    5  A    between atoms: C_12  and  O_19
REMARK    6  A    between atoms: C_14  and  O_18
REMARK    7  A    between atoms: O_22  and  C_23
REMARK    8  A    between atoms: C_25  and  O_39
REMARK    9  A    between atoms: C_27  and  O_38
REMARK   10  A    between atoms: C_29  and  O_37
REMARK   11  A    between atoms: C_31  and  C_34
REMARK   12  A    between atoms: C_34  and  O_36
REMARK                            x       y       z     vdW  Elec       q    Type
REMARK                         _______ _______ _______ _____ _____    ______ ____
ROOT
ATOM      1  C   UNL     1       7.369  -3.875  24.354  0.00  0.00    +0.015 A 
ATOM      2  C   UNL     1       6.728  -2.819  23.693  0.00  0.00    +0.025 A 
ATOM      3  C   UNL     1       5.418  -3.046  23.236  0.00  0.00    +0.060 A 
ATOM      4  C   UNL     1       4.814  -4.305  23.384  0.00  0.00    +0.159 A 
ATOM      5  C   UNL     1       5.495  -5.381  23.952  0.00  0.00    +0.165 A 
ATOM      6  C   UNL     1       6.761  -5.123  24.493  0.00  0.00    +0.050 A 
ENDROOT
BRANCH   2   7
ATOM      7  C   UNL     1       7.515  -1.581  23.434  0.00  0.00    +0.181 A 
ATOM      8  O   UNL     1       6.683  -0.475  23.224  0.00  0.00    -0.451 OA
ATOM      9  C   UNL     1       7.230   0.736  22.899  0.00  0.00    +0.147 A 
ATOM     10  C   UNL     1       8.599   0.956  22.892  0.00  0.00    +0.109 A 
ATOM     11  C   UNL     1       9.100   2.228  22.574  0.00  0.00    +0.135 A 
ATOM     12  C   UNL     1       8.231   3.270  22.248  0.00  0.00    +0.091 A 
ATOM     13  C   UNL     1       6.861   3.029  22.245  0.00  0.00    +0.124 A 
ATOM     14  C   UNL     1       9.488  -0.167  23.198  0.00  0.00    +0.238 A 
ATOM     15  O   UNL     1      10.704   0.018  23.239  0.00  0.00    -0.283 OA
ATOM     16  C   UNL     1       6.354   1.773  22.572  0.00  0.00    +0.092 A 
ATOM     17  C   UNL     1       8.863  -1.506  23.404  0.00  0.00    +0.208 A 
BRANCH  11  18
ATOM     18  O   UNL     1      10.436   2.518  22.554  0.00  0.00    -0.506 OA
ATOM     19  H   UNL     1      10.860   1.955  21.865  0.00  0.00    +0.292 HD
ENDBRANCH  11  18
BRANCH  13  20
ATOM     20  O   UNL     1       5.974   4.013  21.923  0.00  0.00    -0.507 OA
ATOM     21  H   UNL     1       5.548   3.787  21.078  0.00  0.00    +0.292 HD
ENDBRANCH  13  20
BRANCH  17  22
ATOM     22  O   UNL     1       9.723  -2.578  23.521  0.00  0.00    -0.501 OA
ATOM     23  H   UNL     1      10.288  -2.618  22.734  0.00  0.00    +0.292 HD
ENDBRANCH  17  22
ENDBRANCH   2   7
BRANCH   4  24
ATOM     24  O   UNL     1       3.539  -4.451  22.909  0.00  0.00    -0.503 OA
ATOM     25  H   UNL     1       3.395  -5.411  22.807  0.00  0.00    +0.292 HD
ENDBRANCH   4  24
BRANCH   5  26
ATOM     26  O   UNL     1       4.908  -6.639  23.892  0.00  0.00    -0.457 OA
BRANCH  26  27
ATOM     27  C   UNL     1       4.413  -7.096  25.164  0.00  0.00    +0.340 C 
ATOM     28  O   UNL     1       3.520  -8.207  25.033  0.00  0.00    -0.322 OA
ATOM     29  C   UNL     1       2.150  -7.914  24.811  0.00  0.00    +0.261 C 
ATOM     30  C   UNL     1       1.618  -7.156  26.032  0.00  0.00    +0.185 C 
ATOM     31  C   UNL     1       2.367  -5.822  26.191  0.00  0.00    +0.180 C 
ATOM     32  C   UNL     1       3.895  -6.013  26.154  0.00  0.00    +0.214 C 
BRANCH  29  33
ATOM     33  C   UNL     1       1.714  -7.169  23.535  0.00  0.00    +0.337 C 
ATOM     34  O   UNL     1       0.630  -6.623  23.395  0.00  0.00    -0.248 OA
BRANCH  33  35
ATOM     35  O   UNL     1       2.596  -7.273  22.510  0.00  0.00    -0.479 OA
ATOM     36  H   UNL     1       3.327  -7.908  22.636  0.00  0.00    +0.295 HD
ENDBRANCH  33  35
ENDBRANCH  29  33
BRANCH  30  37
ATOM     37  O   UNL     1       1.836  -7.985  27.192  0.00  0.00    -0.386 OA
ATOM     38  H   UNL     1       2.758  -8.302  27.171  0.00  0.00    +0.210 HD
ENDBRANCH  30  37
BRANCH  31  39
ATOM     39  O   UNL     1       1.897  -4.842  25.270  0.00  0.00    -0.386 OA
ATOM     40  H   UNL     1       2.625  -4.246  24.996  0.00  0.00    +0.210 HD
ENDBRANCH  31  39
BRANCH  32  41
ATOM     41  O   UNL     1       4.257  -6.460  27.490  0.00  0.00    -0.383 OA
ATOM     42  H   UNL     1       3.829  -5.839  28.119  0.00  0.00    +0.210 HD
ENDBRANCH  32  41
ENDBRANCH  26  27
ENDBRANCH   5  26
TORSDOF 12
ENDMDL
MODEL 8
REMARK VINA RESULT:      -6.9      1.935      3.399
REMARK  Name = 
REMARK  12 active torsions:
REMARK  status: ('A' for Active; 'I' for Inactive)
REMARK    1  A    between atoms: C_3  and  O_22
REMARK    2  A    between atoms: C_4  and  O_21
REMARK    3  A    between atoms: C_6  and  C_7
REMARK    4  A    between atoms: C_8  and  O_20
REMARK    5  A    between atoms: C_12  and  O_19
REMARK    6  A    between atoms: C_14  and  O_18
REMARK    7  A    between atoms: O_22  and  C_23
REMARK    8  A    between atoms: C_25  and  O_39
REMARK    9  A    between atoms: C_27  and  O_38
REMARK   10  A    between atoms: C_29  and  O_37
REMARK   11  A    between atoms: C_31  and  C_34
REMARK   12  A    between atoms: C_34  and  O_36
REMARK                            x       y       z     vdW  Elec       q    Type
REMARK                         _______ _______ _______ _____ _____    ______ ____
ROOT
ATOM      1  C   UNL     1       8.420  -2.019  24.554  0.00  0.00    +0.015 A 
ATOM      2  C   UNL     1       7.594  -0.888  24.552  0.00  0.00    +0.025 A 
ATOM      3  C   UNL     1       6.215  -1.099  24.723  0.00  0.00    +0.060 A 
ATOM      4  C   UNL     1       5.693  -2.399  24.823  0.00  0.00    +0.159 A 
ATOM      5  C   UNL     1       6.511  -3.524  24.722  0.00  0.00    +0.165 A 
ATOM      6  C   UNL     1       7.892  -3.307  24.651  0.00  0.00    +0.050 A 
ENDROOT
BRANCH   2   7
ATOM      7  C   UNL     1       8.222   0.433  24.268  0.00  0.00    +0.181 A 
ATOM      8  O   UNL     1       7.831   1.401  25.198  0.00  0.00    -0.451 OA
ATOM      9  C   UNL     1       8.253   2.695  25.053  0.00  0.00    +0.147 A 
ATOM     10  C   UNL     1       9.167   3.074  24.082  0.00  0.00    +0.109 A 
ATOM     11  C   UNL     1       9.581   4.412  23.997  0.00  0.00    +0.135 A 
ATOM     12  C   UNL     1       9.065   5.369  24.872  0.00  0.00    +0.091 A 
ATOM     13  C   UNL     1       8.137   4.976  25.831  0.00  0.00    +0.124 A 
ATOM     14  C   UNL     1       9.660   2.056  23.152  0.00  0.00    +0.238 A 
ATOM     15  O   UNL     1      10.504   2.363  22.310  0.00  0.00    -0.283 OA
ATOM     16  C   UNL     1       7.730   3.647  25.930  0.00  0.00    +0.092 A 
ATOM     17  C   UNL     1       9.069   0.689  23.247  0.00  0.00    +0.208 A 
BRANCH  11  18
ATOM     18  O   UNL     1      10.483   4.855  23.070  0.00  0.00    -0.506 OA
ATOM     19  H   UNL     1      11.093   5.488  23.517  0.00  0.00    +0.292 HD
ENDBRANCH  11  18
BRANCH  13  20
ATOM     20  O   UNL     1       7.598   5.876  26.700  0.00  0.00    -0.507 OA
ATOM     21  H   UNL     1       7.244   5.397  27.470  0.00  0.00    +0.292 HD
ENDBRANCH  13  20
BRANCH  17  22
ATOM     22  O   UNL     1       9.418  -0.207  22.258  0.00  0.00    -0.501 OA
ATOM     23  H   UNL     1      10.380  -0.188  22.140  0.00  0.00    +0.292 HD
ENDBRANCH  17  22
ENDBRANCH   2   7
BRANCH   4  24
ATOM     24  O   UNL     1       4.340  -2.524  24.982  0.00  0.00    -0.503 OA
ATOM     25  H   UNL     1       4.005  -1.628  25.177  0.00  0.00    +0.292 HD
ENDBRANCH   4  24
BRANCH   5  26
ATOM     26  O   UNL     1       5.907  -4.773  24.638  0.00  0.00    -0.457 OA
BRANCH  26  27
ATOM     27  C   UNL     1       6.321  -5.675  25.680  0.00  0.00    +0.340 C 
ATOM     28  O   UNL     1       5.449  -6.805  25.800  0.00  0.00    -0.322 OA
ATOM     29  C   UNL     1       4.310  -6.657  26.632  0.00  0.00    +0.261 C 
ATOM     30  C   UNL     1       4.791  -6.410  28.065  0.00  0.00    +0.185 C 
ATOM     31  C   UNL     1       5.597  -5.101  28.132  0.00  0.00    +0.180 C 
ATOM     32  C   UNL     1       6.696  -5.048  27.053  0.00  0.00    +0.214 C 
BRANCH  29  33
ATOM     33  C   UNL     1       3.227  -5.617  26.285  0.00  0.00    +0.337 C 
ATOM     34  O   UNL     1       2.401  -5.194  27.080  0.00  0.00    -0.248 OA
BRANCH  33  35
ATOM     35  O   UNL     1       3.179  -5.292  24.969  0.00  0.00    -0.479 OA
ATOM     36  H   UNL     1       3.328  -6.024  24.340  0.00  0.00    +0.295 HD
ENDBRANCH  33  35
ENDBRANCH  29  33
BRANCH  30  37
ATOM     37  O   UNL     1       5.626  -7.523  28.446  0.00  0.00    -0.386 OA
ATOM     38  H   UNL     1       5.228  -7.949  29.227  0.00  0.00    +0.210 HD
ENDBRANCH  30  37
BRANCH  31  39
ATOM     39  O   UNL     1       4.747  -3.959  28.129  0.00  0.00    -0.386 OA
ATOM     40  H   UNL     1       4.976  -3.357  27.390  0.00  0.00    +0.210 HD
ENDBRANCH  31  39
BRANCH  32  41
ATOM     41  O   UNL     1       7.795  -5.838  27.588  0.00  0.00    -0.383 OA
ATOM     42  H   UNL     1       7.487  -6.770  27.609  0.00  0.00    +0.210 HD
ENDBRANCH  32  41
ENDBRANCH  26  27
ENDBRANCH   5  26
TORSDOF 12
ENDMDL
MODEL 9
REMARK VINA RESULT:      -6.8      1.207      2.578
REMARK  Name = 
REMARK  12 active torsions:
REMARK  status: ('A' for Active; 'I' for Inactive)
REMARK    1  A    between atoms: C_3  and  O_22
REMARK    2  A    between atoms: C_4  and  O_21
REMARK    3  A    between atoms: C_6  and  C_7
REMARK    4  A    between atoms: C_8  and  O_20
REMARK    5  A    between atoms: C_12  and  O_19
REMARK    6  A    between atoms: C_14  and  O_18
REMARK    7  A    between atoms: O_22  and  C_23
REMARK    8  A    between atoms: C_25  and  O_39
REMARK    9  A    between atoms: C_27  and  O_38
REMARK   10  A    between atoms: C_29  and  O_37
REMARK   11  A    between atoms: C_31  and  C_34
REMARK   12  A    between atoms: C_34  and  O_36
REMARK                            x       y       z     vdW  Elec       q    Type
REMARK                         _______ _______ _______ _____ _____    ______ ____
ROOT
ATOM      1  C   UNL     1       9.573  -0.210  24.563  0.00  0.00    +0.015 A 
ATOM      2  C   UNL     1       8.620   0.724  24.139  0.00  0.00    +0.025 A 
ATOM      3  C   UNL     1       7.461   0.225  23.519  0.00  0.00    +0.060 A 
ATOM      4  C   UNL     1       7.309  -1.150  23.281  0.00  0.00    +0.159 A 
ATOM      5  C   UNL     1       8.307  -2.065  23.614  0.00  0.00    +0.165 A 
ATOM      6  C   UNL     1       9.414  -1.575  24.319  0.00  0.00    +0.050 A 
ENDROOT
BRANCH   2   7
ATOM      7  C   UNL     1       8.951   2.170  24.282  0.00  0.00    +0.181 A 
ATOM      8  O   UNL     1       8.235   2.762  25.327  0.00  0.00    -0.451 OA
ATOM      9  C   UNL     1       8.356   4.105  25.561  0.00  0.00    +0.147 A 
ATOM     10  C   UNL     1       9.266   4.899  24.880  0.00  0.00    +0.109 A 
ATOM     11  C   UNL     1       9.362   6.266  25.180  0.00  0.00    +0.135 A 
ATOM     12  C   UNL     1       8.535   6.837  26.148  0.00  0.00    +0.091 A 
ATOM     13  C   UNL     1       7.616   6.031  26.812  0.00  0.00    +0.124 A 
ATOM     14  C   UNL     1      10.092   4.280  23.841  0.00  0.00    +0.238 A 
ATOM     15  O   UNL     1      10.936   4.957  23.254  0.00  0.00    -0.283 OA
ATOM     16  C   UNL     1       7.523   4.670  26.529  0.00  0.00    +0.092 A 
ATOM     17  C   UNL     1       9.831   2.847  23.513  0.00  0.00    +0.208 A 
BRANCH  11  18
ATOM     18  O   UNL     1      10.240   7.106  24.554  0.00  0.00    -0.506 OA
ATOM     19  H   UNL     1      11.114   6.653  24.505  0.00  0.00    +0.292 HD
ENDBRANCH  11  18
BRANCH  13  20
ATOM     20  O   UNL     1       6.781   6.546  27.757  0.00  0.00    -0.507 OA
ATOM     21  H   UNL     1       7.212   6.482  28.627  0.00  0.00    +0.292 HD
ENDBRANCH  13  20
BRANCH  17  22
ATOM     22  O   UNL     1      10.496   2.331  22.420  0.00  0.00    -0.501 OA
ATOM     23  H   UNL     1      10.695   1.397  22.584  0.00  0.00    +0.292 HD
ENDBRANCH  17  22
ENDBRANCH   2   7
BRANCH   4  24
ATOM     24  O   UNL     1       6.157  -1.559  22.667  0.00  0.00    -0.503 OA
ATOM     25  H   UNL     1       6.416  -2.262  22.041  0.00  0.00    +0.292 HD
ENDBRANCH   4  24
BRANCH   5  26
ATOM     26  O   UNL     1       8.172  -3.377  23.179  0.00  0.00    -0.457 OA
BRANCH  26  27
ATOM     27  C   UNL     1       7.924  -4.308  24.248  0.00  0.00    +0.340 C 
ATOM     28  O   UNL     1       7.410  -5.557  23.774  0.00  0.00    -0.322 OA
ATOM     29  C   UNL     1       6.004  -5.656  23.607  0.00  0.00    +0.261 C 
ATOM     30  C   UNL     1       5.344  -5.484  24.978  0.00  0.00    +0.185 C 
ATOM     31  C   UNL     1       5.655  -4.085  25.540  0.00  0.00    +0.180 C 
ATOM     32  C   UNL     1       7.163  -3.771  25.493  0.00  0.00    +0.214 C 
BRANCH  29  33
ATOM     33  C   UNL     1       5.280  -4.754  22.589  0.00  0.00    +0.337 C 
ATOM     34  O   UNL     1       4.090  -4.477  22.641  0.00  0.00    -0.248 OA
BRANCH  33  35
ATOM     35  O   UNL     1       6.051  -4.382  21.538  0.00  0.00    -0.479 OA
ATOM     36  H   UNL     1       6.911  -4.837  21.453  0.00  0.00    +0.295 HD
ENDBRANCH  33  35
ENDBRANCH  29  33
BRANCH  30  37
ATOM     37  O   UNL     1       5.880  -6.497  25.854  0.00  0.00    -0.386 OA
ATOM     38  H   UNL     1       5.135  -7.002  26.228  0.00  0.00    +0.210 HD
ENDBRANCH  30  37
BRANCH  31  39
ATOM     39  O   UNL     1       4.849  -3.082  24.930  0.00  0.00    -0.386 OA
ATOM     40  H   UNL     1       4.317  -2.608  25.603  0.00  0.00    +0.210 HD
ENDBRANCH  31  39
BRANCH  32  41
ATOM     41  O   UNL     1       7.729  -4.443  26.653  0.00  0.00    -0.383 OA
ATOM     42  H   UNL     1       8.633  -4.730  26.397  0.00  0.00    +0.210 HD
ENDBRANCH  32  41
ENDBRANCH  26  27
ENDBRANCH   5  26
TORSDOF 12
ENDMDL
