MODEL 1
REMARK VINA RESULT:      -7.7      0.000      0.000
REMARK  Name = 
REMARK  18 active torsions:
REMARK  status: ('A' for Active; 'I' for Inactive)
REMARK    1  A    between atoms: C_1  and  O_2
REMARK    2  A    between atoms: O_2  and  C_3
REMARK    3  A    between atoms: C_4  and  O_51
REMARK    4  A    between atoms: C_7  and  C_9
REMARK    5  A    between atoms: C_10  and  C_11
REMARK    6  A    between atoms: C_11  and  O_13
REMARK    7  A    between atoms: O_13  and  C_14
REMARK    8  A    between atoms: C_14  and  C_15
REMARK    9  A    between atoms: C_17  and  O_50
REMARK   10  A    between atoms: C_19  and  O_49
REMARK   11  A    between atoms: C_21  and  O_48
REMARK   12  A    between atoms: C_23  and  O_26
REMARK   13  A    between atoms: O_26  and  C_27
REMARK   14  A    between atoms: C_28  and  C_40
REMARK   15  A    between atoms: C_32  and  O_39
REMARK   16  A    between atoms: C_34  and  O_38
REMARK   17  A    between atoms: C_42  and  O_47
REMARK   18  A    between atoms: C_43  and  O_46
REMARK                            x       y       z     vdW  Elec       q    Type
REMARK                         _______ _______ _______ _____ _____    ______ ____
ROOT
ATOM      1  C   UNL     1       9.835  -1.609  24.431  0.00  0.00    +0.191 C 
ATOM      2  O   UNL     1       8.586  -1.356  25.102  0.00  0.00    -0.330 OA
ATOM      3  C   UNL     1       8.417  -2.214  26.241  0.00  0.00    +0.340 C 
ATOM      4  C   UNL     1       8.333  -3.694  25.807  0.00  0.00    +0.214 C 
ATOM      5  C   UNL     1       9.588  -4.048  24.995  0.00  0.00    +0.180 C 
ATOM      6  C   UNL     1       9.806  -3.034  23.850  0.00  0.00    +0.178 C 
ENDROOT
BRANCH   6   7
ATOM      7  O   UNL     1       8.758  -3.157  22.879  0.00  0.00    -0.386 OA
ATOM      8  H   UNL     1       8.026  -3.664  23.280  0.00  0.00    +0.210 HD
ENDBRANCH   6   7
BRANCH   5   9
ATOM      9  O   UNL     1       9.481  -5.387  24.500  0.00  0.00    -0.386 OA
ATOM     10  H   UNL     1       9.721  -5.388  23.558  0.00  0.00    +0.210 HD
ENDBRANCH   5   9
BRANCH   4  11
ATOM     11  O   UNL     1       8.175  -4.571  26.935  0.00  0.00    -0.383 OA
ATOM     12  H   UNL     1       8.361  -5.482  26.649  0.00  0.00    +0.210 HD
ENDBRANCH   4  11
BRANCH   3  13
ATOM     13  O   UNL     1       7.180  -1.918  26.887  0.00  0.00    -0.453 OA
BRANCH  13  14
ATOM     14  C   UNL     1       6.511  -0.748  26.595  0.00  0.00    +0.214 A 
ATOM     15  C   UNL     1       6.750   0.497  27.387  0.00  0.00    +0.238 A 
ATOM     16  O   UNL     1       7.381   0.465  28.440  0.00  0.00    -0.283 OA
ATOM     17  C   UNL     1       6.118   1.734  26.899  0.00  0.00    +0.109 A 
ATOM     18  C   UNL     1       5.140   1.614  25.913  0.00  0.00    +0.147 A 
ATOM     19  C   UNL     1       4.447   2.746  25.469  0.00  0.00    +0.092 A 
ATOM     20  C   UNL     1       4.745   3.990  26.020  0.00  0.00    +0.124 A 
ATOM     21  C   UNL     1       5.731   4.128  26.988  0.00  0.00    +0.091 A 
ATOM     22  O   UNL     1       4.787   0.410  25.350  0.00  0.00    -0.451 OA
ATOM     23  C   UNL     1       6.423   2.999  27.425  0.00  0.00    +0.135 A 
ATOM     24  C   UNL     1       5.502  -0.733  25.694  0.00  0.00    +0.181 A 
BRANCH  24  25
ATOM     25  C   UNL     1       5.043  -1.965  24.977  0.00  0.00    +0.025 A 
ATOM     26  C   UNL     1       4.063  -2.806  25.540  0.00  0.00    +0.015 A 
ATOM     27  C   UNL     1       3.609  -3.950  24.865  0.00  0.00    +0.050 A 
ATOM     28  C   UNL     1       4.122  -4.255  23.616  0.00  0.00    +0.158 A 
ATOM     29  C   UNL     1       5.108  -3.459  23.049  0.00  0.00    +0.159 A 
ATOM     30  C   UNL     1       5.589  -2.345  23.732  0.00  0.00    +0.060 A 
BRANCH  29  31
ATOM     31  O   UNL     1       5.572  -3.800  21.809  0.00  0.00    -0.503 OA
ATOM     32  H   UNL     1       4.924  -4.398  21.395  0.00  0.00    +0.292 HD
ENDBRANCH  29  31
BRANCH  28  33
ATOM     33  O   UNL     1       3.655  -5.343  22.937  0.00  0.00    -0.503 OA
ATOM     34  H   UNL     1       2.682  -5.226  22.927  0.00  0.00    +0.292 HD
ENDBRANCH  28  33
ENDBRANCH  24  25
BRANCH  23  35
ATOM     35  O   UNL     1       7.409   3.154  28.357  0.00  0.00    -0.506 OA
ATOM     36  H   UNL     1       7.099   2.857  29.228  0.00  0.00    +0.292 HD
ENDBRANCH  23  35
BRANCH  20  37
ATOM     37  O   UNL     1       4.090   5.123  25.635  0.00  0.00    -0.507 OA
ATOM     38  H   UNL     1       3.384   4.891  25.009  0.00  0.00    +0.292 HD
ENDBRANCH  20  37
ENDBRANCH  13  14
ENDBRANCH   3  13
BRANCH   1  39
ATOM     39  C   UNL     1      10.026  -0.538  23.347  0.00  0.00    +0.266 C 
BRANCH  39  40
ATOM     40  O   UNL     1       8.883  -0.426  22.483  0.00  0.00    -0.459 OA
BRANCH  40  41
ATOM     41  C   UNL     1       8.234   0.762  22.531  0.00  0.00    +0.332 C 
ATOM     42  O   UNL     1       7.035   0.936  22.438  0.00  0.00    -0.246 OA
BRANCH  41  44
ATOM     43  C   UNL     1       8.896   2.945  23.416  0.00  0.00    +0.015 C 
ATOM     44  C   UNL     1       9.239   1.822  22.762  0.00  0.00    +0.092 C 
BRANCH  43  47
ATOM     45  C   UNL     1      12.042   5.053  23.645  0.00  0.00    +0.162 A 
ATOM     46  C   UNL     1      11.168   4.018  23.303  0.00  0.00    +0.057 A 
ATOM     47  C   UNL     1       9.835   4.029  23.741  0.00  0.00    -0.021 A 
ATOM     48  C   UNL     1       9.378   5.123  24.493  0.00  0.00    +0.012 A 
ATOM     49  C   UNL     1      10.250   6.153  24.854  0.00  0.00    +0.050 A 
ATOM     50  C   UNL     1      11.574   6.099  24.444  0.00  0.00    +0.158 A 
BRANCH  50  51
ATOM     51  O   UNL     1      12.413   7.108  24.829  0.00  0.00    -0.503 OA
ATOM     52  H   UNL     1      13.199   7.020  24.255  0.00  0.00    +0.292 HD
ENDBRANCH  50  51
BRANCH  45  54
ATOM     53  C   UNL     1      13.597   5.594  21.955  0.00  0.00    +0.277 C 
ATOM     54  O   UNL     1      13.363   5.120  23.280  0.00  0.00    -0.491 OA
ENDBRANCH  45  54
ENDBRANCH  43  47
ENDBRANCH  41  44
ENDBRANCH  40  41
ENDBRANCH  39  40
ENDBRANCH   1  39
TORSDOF 17
ENDMDL
MODEL 2
REMARK VINA RESULT:      -7.5      2.542      4.975
REMARK  Name = 
REMARK  18 active torsions:
REMARK  status: ('A' for Active; 'I' for Inactive)
REMARK    1  A    between atoms: C_1  and  O_2
REMARK    2  A    between atoms: O_2  and  C_3
REMARK    3  A    between atoms: C_4  and  O_51
REMARK    4  A    between atoms: C_7  and  C_9
REMARK    5  A    between atoms: C_10  and  C_11
REMARK    6  A    between atoms: C_11  and  O_13
REMARK    7  A    between atoms: O_13  and  C_14
REMARK    8  A    between atoms: C_14  and  C_15
REMARK    9  A    between atoms: C_17  and  O_50
REMARK   10  A    between atoms: C_19  and  O_49
REMARK   11  A    between atoms: C_21  and  O_48
REMARK   12  A    between atoms: C_23  and  O_26
REMARK   13  A    between atoms: O_26  and  C_27
REMARK   14  A    between atoms: C_28  and  C_40
REMARK   15  A    between atoms: C_32  and  O_39
REMARK   16  A    between atoms: C_34  and  O_38
REMARK   17  A    between atoms: C_42  and  O_47
REMARK   18  A    between atoms: C_43  and  O_46
REMARK                            x       y       z     vdW  Elec       q    Type
REMARK                         _______ _______ _______ _____ _____    ______ ____
ROOT
ATOM      1  C   UNL     1       4.479  -2.887  27.909  0.00  0.00    +0.191 C 
ATOM      2  O   UNL     1       5.847  -2.740  27.485  0.00  0.00    -0.330 OA
ATOM      3  C   UNL     1       6.231  -3.781  26.573  0.00  0.00    +0.340 C 
ATOM      4  C   UNL     1       6.185  -5.161  27.265  0.00  0.00    +0.214 C 
ATOM      5  C   UNL     1       4.778  -5.384  27.840  0.00  0.00    +0.180 C 
ATOM      6  C   UNL     1       4.348  -4.190  28.719  0.00  0.00    +0.178 C 
ENDROOT
BRANCH   6   7
ATOM      7  O   UNL     1       5.164  -4.128  29.898  0.00  0.00    -0.386 OA
ATOM      8  H   UNL     1       4.736  -4.661  30.595  0.00  0.00    +0.210 HD
ENDBRANCH   6   7
BRANCH   5   9
ATOM      9  O   UNL     1       4.745  -6.615  28.570  0.00  0.00    -0.386 OA
ATOM     10  H   UNL     1       3.816  -6.860  28.719  0.00  0.00    +0.210 HD
ENDBRANCH   5   9
BRANCH   4  11
ATOM     11  O   UNL     1       6.556  -6.219  26.365  0.00  0.00    -0.383 OA
ATOM     12  H   UNL     1       7.447  -6.531  26.602  0.00  0.00    +0.210 HD
ENDBRANCH   4  11
BRANCH   3  13
ATOM     13  O   UNL     1       7.584  -3.586  26.164  0.00  0.00    -0.453 OA
BRANCH  13  14
ATOM     14  C   UNL     1       7.889  -2.629  25.218  0.00  0.00    +0.214 A 
ATOM     15  C   UNL     1       8.730  -1.442  25.565  0.00  0.00    +0.238 A 
ATOM     16  O   UNL     1       8.996  -1.175  26.733  0.00  0.00    -0.283 OA
ATOM     17  C   UNL     1       9.141  -0.565  24.456  0.00  0.00    +0.109 A 
ATOM     18  C   UNL     1       8.506  -0.738  23.227  0.00  0.00    +0.147 A 
ATOM     19  C   UNL     1       8.796   0.120  22.159  0.00  0.00    +0.092 A 
ATOM     20  C   UNL     1       9.723   1.144  22.337  0.00  0.00    +0.124 A 
ATOM     21  C   UNL     1      10.377   1.316  23.550  0.00  0.00    +0.091 A 
ATOM     22  O   UNL     1       7.567  -1.716  22.999  0.00  0.00    -0.451 OA
ATOM     23  C   UNL     1      10.090   0.457  24.610  0.00  0.00    +0.135 A 
ATOM     24  C   UNL     1       7.305  -2.648  23.999  0.00  0.00    +0.181 A 
BRANCH  24  25
ATOM     25  C   UNL     1       6.294  -3.681  23.605  0.00  0.00    +0.025 A 
ATOM     26  C   UNL     1       4.916  -3.449  23.784  0.00  0.00    +0.015 A 
ATOM     27  C   UNL     1       3.961  -4.402  23.397  0.00  0.00    +0.050 A 
ATOM     28  C   UNL     1       4.376  -5.588  22.814  0.00  0.00    +0.158 A 
ATOM     29  C   UNL     1       5.728  -5.854  22.651  0.00  0.00    +0.159 A 
ATOM     30  C   UNL     1       6.681  -4.928  23.069  0.00  0.00    +0.060 A 
BRANCH  29  31
ATOM     31  O   UNL     1       6.082  -7.035  22.060  0.00  0.00    -0.503 OA
ATOM     32  H   UNL     1       6.624  -6.832  21.276  0.00  0.00    +0.292 HD
ENDBRANCH  29  31
BRANCH  28  33
ATOM     33  O   UNL     1       3.449  -6.500  22.398  0.00  0.00    -0.503 OA
ATOM     34  H   UNL     1       2.749  -6.468  23.082  0.00  0.00    +0.292 HD
ENDBRANCH  28  33
ENDBRANCH  24  25
BRANCH  23  35
ATOM     35  O   UNL     1      10.762   0.621  25.788  0.00  0.00    -0.506 OA
ATOM     36  H   UNL     1      10.869  -0.233  26.235  0.00  0.00    +0.292 HD
ENDBRANCH  23  35
BRANCH  20  37
ATOM     37  O   UNL     1      10.030   2.018  21.336  0.00  0.00    -0.507 OA
ATOM     38  H   UNL     1      10.985   2.197  21.346  0.00  0.00    +0.292 HD
ENDBRANCH  20  37
ENDBRANCH  13  14
ENDBRANCH   3  13
BRANCH   1  39
ATOM     39  C   UNL     1       4.090  -1.646  28.725  0.00  0.00    +0.266 C 
BRANCH  39  40
ATOM     40  O   UNL     1       4.561  -0.429  28.126  0.00  0.00    -0.459 OA
BRANCH  40  41
ATOM     41  C   UNL     1       3.811   0.039  27.099  0.00  0.00    +0.332 C 
ATOM     42  O   UNL     1       2.698  -0.334  26.788  0.00  0.00    -0.246 OA
BRANCH  41  44
ATOM     43  C   UNL     1       5.411   0.843  25.433  0.00  0.00    +0.015 C 
ATOM     44  C   UNL     1       4.567   1.125  26.440  0.00  0.00    +0.092 C 
BRANCH  43  47
ATOM     45  C   UNL     1       7.881   3.580  24.531  0.00  0.00    +0.162 A 
ATOM     46  C   UNL     1       7.196   2.608  25.267  0.00  0.00    +0.057 A 
ATOM     47  C   UNL     1       6.166   1.858  24.680  0.00  0.00    -0.021 A 
ATOM     48  C   UNL     1       5.861   2.067  23.326  0.00  0.00    +0.012 A 
ATOM     49  C   UNL     1       6.529   3.048  22.589  0.00  0.00    +0.050 A 
ATOM     50  C   UNL     1       7.516   3.805  23.203  0.00  0.00    +0.158 A 
BRANCH  50  51
ATOM     51  O   UNL     1       8.140   4.775  22.467  0.00  0.00    -0.503 OA
ATOM     52  H   UNL     1       8.318   5.499  23.097  0.00  0.00    +0.292 HD
ENDBRANCH  50  51
BRANCH  45  54
ATOM     53  C   UNL     1       8.452   5.463  25.833  0.00  0.00    +0.277 C 
ATOM     54  O   UNL     1       8.887   4.373  25.022  0.00  0.00    -0.491 OA
ENDBRANCH  45  54
ENDBRANCH  43  47
ENDBRANCH  41  44
ENDBRANCH  40  41
ENDBRANCH  39  40
ENDBRANCH   1  39
TORSDOF 17
ENDMDL
MODEL 3
REMARK VINA RESULT:      -7.5      2.477      4.967
REMARK  Name = 
REMARK  18 active torsions:
REMARK  status: ('A' for Active; 'I' for Inactive)
REMARK    1  A    between atoms: C_1  and  O_2
REMARK    2  A    between atoms: O_2  and  C_3
REMARK    3  A    between atoms: C_4  and  O_51
REMARK    4  A    between atoms: C_7  and  C_9
REMARK    5  A    between atoms: C_10  and  C_11
REMARK    6  A    between atoms: C_11  and  O_13
REMARK    7  A    between atoms: O_13  and  C_14
REMARK    8  A    between atoms: C_14  and  C_15
REMARK    9  A    between atoms: C_17  and  O_50
REMARK   10  A    between atoms: C_19  and  O_49
REMARK   11  A    between atoms: C_21  and  O_48
REMARK   12  A    between atoms: C_23  and  O_26
REMARK   13  A    between atoms: O_26  and  C_27
REMARK   14  A    between atoms: C_28  and  C_40
REMARK   15  A    between atoms: C_32  and  O_39
REMARK   16  A    between atoms: C_34  and  O_38
REMARK   17  A    between atoms: C_42  and  O_47
REMARK   18  A    between atoms: C_43  and  O_46
REMARK                            x       y       z     vdW  Elec       q    Type
REMARK                         _______ _______ _______ _____ _____    ______ ____
ROOT
ATOM      1  C   UNL     1       7.329  -5.756  23.827  0.00  0.00    +0.191 C 
ATOM      2  O   UNL     1       6.429  -4.762  24.350  0.00  0.00    -0.330 OA
ATOM      3  C   UNL     1       5.059  -5.174  24.227  0.00  0.00    +0.340 C 
ATOM      4  C   UNL     1       4.660  -5.316  22.742  0.00  0.00    +0.214 C 
ATOM      5  C   UNL     1       5.624  -6.296  22.057  0.00  0.00    +0.180 C 
ATOM      6  C   UNL     1       7.092  -5.890  22.311  0.00  0.00    +0.178 C 
ENDROOT
BRANCH   6   7
ATOM      7  O   UNL     1       7.381  -4.650  21.649  0.00  0.00    -0.386 OA
ATOM      8  H   UNL     1       6.834  -3.951  22.057  0.00  0.00    +0.210 HD
ENDBRANCH   6   7
BRANCH   5   9
ATOM      9  O   UNL     1       5.330  -6.364  20.658  0.00  0.00    -0.386 OA
ATOM     10  H   UNL     1       5.033  -5.487  20.362  0.00  0.00    +0.210 HD
ENDBRANCH   5   9
BRANCH   4  11
ATOM     11  O   UNL     1       3.294  -5.739  22.597  0.00  0.00    -0.383 OA
ATOM     12  H   UNL     1       2.735  -4.952  22.475  0.00  0.00    +0.210 HD
ENDBRANCH   4  11
BRANCH   3  13
ATOM     13  O   UNL     1       4.204  -4.172  24.775  0.00  0.00    -0.453 OA
BRANCH  13  14
ATOM     14  C   UNL     1       4.742  -3.112  25.475  0.00  0.00    +0.214 A 
ATOM     15  C   UNL     1       5.332  -1.937  24.763  0.00  0.00    +0.238 A 
ATOM     16  O   UNL     1       5.547  -1.972  23.555  0.00  0.00    -0.283 OA
ATOM     17  C   UNL     1       5.730  -0.784  25.588  0.00  0.00    +0.109 A 
ATOM     18  C   UNL     1       5.783  -0.966  26.969  0.00  0.00    +0.147 A 
ATOM     19  C   UNL     1       6.232   0.069  27.798  0.00  0.00    +0.092 A 
ATOM     20  C   UNL     1       6.622   1.280  27.229  0.00  0.00    +0.124 A 
ATOM     21  C   UNL     1       6.555   1.482  25.857  0.00  0.00    +0.091 A 
ATOM     22  O   UNL     1       5.433  -2.145  27.584  0.00  0.00    -0.451 OA
ATOM     23  C   UNL     1       6.103   0.450  25.035  0.00  0.00    +0.135 A 
ATOM     24  C   UNL     1       4.901  -3.176  26.816  0.00  0.00    +0.181 A 
BRANCH  24  25
ATOM     25  C   UNL     1       4.523  -4.385  27.616  0.00  0.00    +0.025 A 
ATOM     26  C   UNL     1       3.262  -4.475  28.238  0.00  0.00    +0.015 A 
ATOM     27  C   UNL     1       2.892  -5.614  28.971  0.00  0.00    +0.050 A 
ATOM     28  C   UNL     1       3.773  -6.676  29.076  0.00  0.00    +0.158 A 
ATOM     29  C   UNL     1       5.032  -6.602  28.496  0.00  0.00    +0.159 A 
ATOM     30  C   UNL     1       5.420  -5.459  27.801  0.00  0.00    +0.060 A 
BRANCH  29  31
ATOM     31  O   UNL     1       5.860  -7.684  28.621  0.00  0.00    -0.503 OA
ATOM     32  H   UNL     1       5.943  -8.106  27.747  0.00  0.00    +0.292 HD
ENDBRANCH  29  31
BRANCH  28  33
ATOM     33  O   UNL     1       3.402  -7.802  29.752  0.00  0.00    -0.503 OA
ATOM     34  H   UNL     1       4.011  -7.841  30.518  0.00  0.00    +0.292 HD
ENDBRANCH  28  33
ENDBRANCH  24  25
BRANCH  23  35
ATOM     35  O   UNL     1       6.016   0.674  23.690  0.00  0.00    -0.506 OA
ATOM     36  H   UNL     1       5.657  -0.108  23.242  0.00  0.00    +0.292 HD
ENDBRANCH  23  35
BRANCH  20  37
ATOM     37  O   UNL     1       7.082   2.316  27.988  0.00  0.00    -0.507 OA
ATOM     38  H   UNL     1       7.659   1.971  28.690  0.00  0.00    +0.292 HD
ENDBRANCH  20  37
ENDBRANCH  13  14
ENDBRANCH   3  13
BRANCH   1  39
ATOM     39  C   UNL     1       8.766  -5.330  24.160  0.00  0.00    +0.266 C 
BRANCH  39  40
ATOM     40  O   UNL     1       8.980  -5.194  25.574  0.00  0.00    -0.459 OA
BRANCH  40  41
ATOM     41  C   UNL     1       8.770  -3.953  26.075  0.00  0.00    +0.332 C 
ATOM     42  O   UNL     1       8.449  -3.678  27.214  0.00  0.00    -0.246 OA
BRANCH  41  44
ATOM     43  C   UNL     1       9.149  -1.667  25.291  0.00  0.00    +0.015 C 
ATOM     44  C   UNL     1       9.041  -2.975  25.001  0.00  0.00    +0.092 C 
BRANCH  43  47
ATOM     45  C   UNL     1      10.070   1.659  23.715  0.00  0.00    +0.162 A 
ATOM     46  C   UNL     1       9.790   0.688  24.679  0.00  0.00    +0.057 A 
ATOM     47  C   UNL     1       9.470  -0.626  24.303  0.00  0.00    -0.021 A 
ATOM     48  C   UNL     1       9.480  -0.962  22.940  0.00  0.00    +0.012 A 
ATOM     49  C   UNL     1       9.742   0.008  21.969  0.00  0.00    +0.050 A 
ATOM     50  C   UNL     1      10.015   1.309  22.365  0.00  0.00    +0.158 A 
BRANCH  50  51
ATOM     51  O   UNL     1      10.246   2.246  21.395  0.00  0.00    -0.503 OA
ATOM     52  H   UNL     1      10.184   1.761  20.550  0.00  0.00    +0.292 HD
ENDBRANCH  50  51
BRANCH  45  54
ATOM     53  C   UNL     1       9.251   3.799  24.279  0.00  0.00    +0.277 C 
ATOM     54  O   UNL     1      10.374   2.970  23.985  0.00  0.00    -0.491 OA
ENDBRANCH  45  54
ENDBRANCH  43  47
ENDBRANCH  41  44
ENDBRANCH  40  41
ENDBRANCH  39  40
ENDBRANCH   1  39
TORSDOF 17
ENDMDL
MODEL 4
REMARK VINA RESULT:      -7.3      2.575      9.810
REMARK  Name = 
REMARK  18 active torsions:
REMARK  status: ('A' for Active; 'I' for Inactive)
REMARK    1  A    between atoms: C_1  and  O_2
REMARK    2  A    between atoms: O_2  and  C_3
REMARK    3  A    between atoms: C_4  and  O_51
REMARK    4  A    between atoms: C_7  and  C_9
REMARK    5  A    between atoms: C_10  and  C_11
REMARK    6  A    between atoms: C_11  and  O_13
REMARK    7  A    between atoms: O_13  and  C_14
REMARK    8  A    between atoms: C_14  and  C_15
REMARK    9  A    between atoms: C_17  and  O_50
REMARK   10  A    between atoms: C_19  and  O_49
REMARK   11  A    between atoms: C_21  and  O_48
REMARK   12  A    between atoms: C_23  and  O_26
REMARK   13  A    between atoms: O_26  and  C_27
REMARK   14  A    between atoms: C_28  and  C_40
REMARK   15  A    between atoms: C_32  and  O_39
REMARK   16  A    between atoms: C_34  and  O_38
REMARK   17  A    between atoms: C_42  and  O_47
REMARK   18  A    between atoms: C_43  and  O_46
REMARK                            x       y       z     vdW  Elec       q    Type
REMARK                         _______ _______ _______ _____ _____    ______ ____
ROOT
ATOM      1  C   UNL     1       5.162  -0.555  27.960  0.00  0.00    +0.191 C 
ATOM      2  O   UNL     1       6.134  -1.245  27.153  0.00  0.00    -0.330 OA
ATOM      3  C   UNL     1       7.348  -0.488  27.027  0.00  0.00    +0.340 C 
ATOM      4  C   UNL     1       7.092   0.839  26.277  0.00  0.00    +0.214 C 
ATOM      5  C   UNL     1       5.993   1.622  27.011  0.00  0.00    +0.180 C 
ATOM      6  C   UNL     1       4.746   0.740  27.236  0.00  0.00    +0.178 C 
ENDROOT
BRANCH   6   7
ATOM      7  O   UNL     1       4.127   0.432  25.979  0.00  0.00    -0.386 OA
ATOM      8  H   UNL     1       3.844  -0.503  25.998  0.00  0.00    +0.210 HD
ENDBRANCH   6   7
BRANCH   5   9
ATOM      9  O   UNL     1       5.674   2.808  26.275  0.00  0.00    -0.386 OA
ATOM     10  H   UNL     1       4.706   2.882  26.214  0.00  0.00    +0.210 HD
ENDBRANCH   5   9
BRANCH   4  11
ATOM     11  O   UNL     1       8.294   1.617  26.150  0.00  0.00    -0.383 OA
ATOM     12  H   UNL     1       8.174   2.259  25.429  0.00  0.00    +0.210 HD
ENDBRANCH   4  11
BRANCH   3  13
ATOM     13  O   UNL     1       8.288  -1.215  26.238  0.00  0.00    -0.453 OA
BRANCH  13  14
ATOM     14  C   UNL     1       7.847  -2.053  25.234  0.00  0.00    +0.214 A 
ATOM     15  C   UNL     1       7.306  -3.411  25.544  0.00  0.00    +0.238 A 
ATOM     16  O   UNL     1       7.431  -3.902  26.663  0.00  0.00    -0.283 OA
ATOM     17  C   UNL     1       6.707  -4.165  24.430  0.00  0.00    +0.109 A 
ATOM     18  C   UNL     1       6.926  -3.689  23.138  0.00  0.00    +0.147 A 
ATOM     19  C   UNL     1       6.451  -4.408  22.035  0.00  0.00    +0.092 A 
ATOM     20  C   UNL     1       5.758  -5.599  22.241  0.00  0.00    +0.124 A 
ATOM     21  C   UNL     1       5.516  -6.074  23.524  0.00  0.00    +0.091 A 
ATOM     22  O   UNL     1       7.621  -2.534  22.872  0.00  0.00    -0.451 OA
ATOM     23  C   UNL     1       5.987  -5.354  24.620  0.00  0.00    +0.135 A 
ATOM     24  C   UNL     1       8.041  -1.738  23.934  0.00  0.00    +0.181 A 
BRANCH  24  25
ATOM     25  C   UNL     1       8.749  -0.489  23.503  0.00  0.00    +0.025 A 
ATOM     26  C   UNL     1      10.066  -0.223  23.925  0.00  0.00    +0.015 A 
ATOM     27  C   UNL     1      10.745   0.933  23.507  0.00  0.00    +0.050 A 
ATOM     28  C   UNL     1      10.116   1.824  22.655  0.00  0.00    +0.158 A 
ATOM     29  C   UNL     1       8.809   1.600  22.245  0.00  0.00    +0.159 A 
ATOM     30  C   UNL     1       8.118   0.475  22.687  0.00  0.00    +0.060 A 
BRANCH  29  31
ATOM     31  O   UNL     1       8.240   2.507  21.394  0.00  0.00    -0.503 OA
ATOM     32  H   UNL     1       7.862   2.019  20.640  0.00  0.00    +0.292 HD
ENDBRANCH  29  31
BRANCH  28  33
ATOM     33  O   UNL     1      10.787   2.928  22.213  0.00  0.00    -0.503 OA
ATOM     34  H   UNL     1      10.081   3.554  21.949  0.00  0.00    +0.292 HD
ENDBRANCH  28  33
ENDBRANCH  24  25
BRANCH  23  35
ATOM     35  O   UNL     1       5.715  -5.819  25.876  0.00  0.00    -0.506 OA
ATOM     36  H   UNL     1       6.534  -6.108  26.311  0.00  0.00    +0.292 HD
ENDBRANCH  23  35
BRANCH  20  37
ATOM     37  O   UNL     1       5.288  -6.347  21.202  0.00  0.00    -0.507 OA
ATOM     38  H   UNL     1       5.706  -6.052  20.376  0.00  0.00    +0.292 HD
ENDBRANCH  20  37
ENDBRANCH  13  14
ENDBRANCH   3  13
BRANCH   1  39
ATOM     39  C   UNL     1       3.975  -1.499  28.201  0.00  0.00    +0.266 C 
BRANCH  39  40
ATOM     40  O   UNL     1       3.909  -2.551  27.226  0.00  0.00    -0.459 OA
BRANCH  40  41
ATOM     41  C   UNL     1       2.790  -2.563  26.461  0.00  0.00    +0.332 C 
ATOM     42  O   UNL     1       1.994  -1.655  26.330  0.00  0.00    -0.246 OA
BRANCH  41  44
ATOM     43  C   UNL     1       1.681  -4.156  24.972  0.00  0.00    +0.015 C 
ATOM     44  C   UNL     1       2.723  -3.868  25.770  0.00  0.00    +0.092 C 
BRANCH  43  47
ATOM     45  C   UNL     1       1.863  -7.803  23.942  0.00  0.00    +0.162 A 
ATOM     46  C   UNL     1       1.981  -6.640  24.707  0.00  0.00    +0.057 A 
ATOM     47  C   UNL     1       1.551  -5.403  24.202  0.00  0.00    -0.021 A 
ATOM     48  C   UNL     1       0.958  -5.358  22.931  0.00  0.00    +0.012 A 
ATOM     49  C   UNL     1       0.852  -6.514  22.154  0.00  0.00    +0.050 A 
ATOM     50  C   UNL     1       1.321  -7.718  22.658  0.00  0.00    +0.158 A 
BRANCH  50  51
ATOM     51  O   UNL     1       1.228  -8.832  21.869  0.00  0.00    -0.503 OA
ATOM     52  H   UNL     1       0.274  -9.040  21.832  0.00  0.00    +0.292 HD
ENDBRANCH  50  51
BRANCH  45  54
ATOM     53  C   UNL     1       1.380  -9.715  25.238  0.00  0.00    +0.277 C 
ATOM     54  O   UNL     1       2.270  -9.052  24.342  0.00  0.00    -0.491 OA
ENDBRANCH  45  54
ENDBRANCH  43  47
ENDBRANCH  41  44
ENDBRANCH  40  41
ENDBRANCH  39  40
ENDBRANCH   1  39
TORSDOF 17
ENDMDL
MODEL 5
REMARK VINA RESULT:      -7.3      1.663      2.101
REMARK  Name = 
REMARK  18 active torsions:
REMARK  status: ('A' for Active; 'I' for Inactive)
REMARK    1  A    between atoms: C_1  and  O_2
REMARK    2  A    between atoms: O_2  and  C_3
REMARK    3  A    between atoms: C_4  and  O_51
REMARK    4  A    between atoms: C_7  and  C_9
REMARK    5  A    between atoms: C_10  and  C_11
REMARK    6  A    between atoms: C_11  and  O_13
REMARK    7  A    between atoms: O_13  and  C_14
REMARK    8  A    between atoms: C_14  and  C_15
REMARK    9  A    between atoms: C_17  and  O_50
REMARK   10  A    between atoms: C_19  and  O_49
REMARK   11  A    between atoms: C_21  and  O_48
REMARK   12  A    between atoms: C_23  and  O_26
REMARK   13  A    between atoms: O_26  and  C_27
REMARK   14  A    between atoms: C_28  and  C_40
REMARK   15  A    between atoms: C_32  and  O_39
REMARK   16  A    between atoms: C_34  and  O_38
REMARK   17  A    between atoms: C_42  and  O_47
REMARK   18  A    between atoms: C_43  and  O_46
REMARK                            x       y       z     vdW  Elec       q    Type
REMARK                         _______ _______ _______ _____ _____    ______ ____
ROOT
ATOM      1  C   UNL     1       9.957  -1.641  24.637  0.00  0.00    +0.191 C 
ATOM      2  O   UNL     1       8.699  -1.306  25.251  0.00  0.00    -0.330 OA
ATOM      3  C   UNL     1       8.389  -2.194  26.336  0.00  0.00    +0.340 C 
ATOM      4  C   UNL     1       8.199  -3.640  25.824  0.00  0.00    +0.214 C 
ATOM      5  C   UNL     1       9.462  -4.070  25.065  0.00  0.00    +0.180 C 
ATOM      6  C   UNL     1       9.836  -3.031  23.985  0.00  0.00    +0.178 C 
ENDROOT
BRANCH   6   7
ATOM      7  O   UNL     1       8.839  -3.014  22.954  0.00  0.00    -0.386 OA
ATOM      8  H   UNL     1       9.188  -2.502  22.199  0.00  0.00    +0.210 HD
ENDBRANCH   6   7
BRANCH   5   9
ATOM      9  O   UNL     1       9.266  -5.371  24.499  0.00  0.00    -0.386 OA
ATOM     10  H   UNL     1      10.065  -5.615  24.003  0.00  0.00    +0.210 HD
ENDBRANCH   5   9
BRANCH   4  11
ATOM     11  O   UNL     1       7.898  -4.548  26.898  0.00  0.00    -0.383 OA
ATOM     12  H   UNL     1       7.635  -5.403  26.517  0.00  0.00    +0.210 HD
ENDBRANCH   4  11
BRANCH   3  13
ATOM     13  O   UNL     1       7.147  -1.816  26.928  0.00  0.00    -0.453 OA
BRANCH  13  14
ATOM     14  C   UNL     1       6.533  -0.639  26.551  0.00  0.00    +0.214 A 
ATOM     15  C   UNL     1       6.754   0.626  27.316  0.00  0.00    +0.238 A 
ATOM     16  O   UNL     1       7.311   0.615  28.410  0.00  0.00    -0.283 OA
ATOM     17  C   UNL     1       6.192   1.861  26.745  0.00  0.00    +0.109 A 
ATOM     18  C   UNL     1       5.279   1.732  25.699  0.00  0.00    +0.147 A 
ATOM     19  C   UNL     1       4.650   2.866  25.171  0.00  0.00    +0.092 A 
ATOM     20  C   UNL     1       4.946   4.121  25.699  0.00  0.00    +0.124 A 
ATOM     21  C   UNL     1       5.869   4.266  26.727  0.00  0.00    +0.091 A 
ATOM     22  O   UNL     1       4.930   0.519  25.154  0.00  0.00    -0.451 OA
ATOM     23  C   UNL     1       6.496   3.136  27.247  0.00  0.00    +0.135 A 
ATOM     24  C   UNL     1       5.588  -0.629  25.584  0.00  0.00    +0.181 A 
BRANCH  24  25
ATOM     25  C   UNL     1       5.142  -1.874  24.879  0.00  0.00    +0.025 A 
ATOM     26  C   UNL     1       4.194  -2.736  25.465  0.00  0.00    +0.015 A 
ATOM     27  C   UNL     1       3.754  -3.892  24.801  0.00  0.00    +0.050 A 
ATOM     28  C   UNL     1       4.247  -4.188  23.542  0.00  0.00    +0.158 A 
ATOM     29  C   UNL     1       5.202  -3.370  22.953  0.00  0.00    +0.159 A 
ATOM     30  C   UNL     1       5.671  -2.243  23.624  0.00  0.00    +0.060 A 
BRANCH  29  31
ATOM     31  O   UNL     1       5.647  -3.703  21.704  0.00  0.00    -0.503 OA
ATOM     32  H   UNL     1       5.131  -4.468  21.391  0.00  0.00    +0.292 HD
ENDBRANCH  29  31
BRANCH  28  33
ATOM     33  O   UNL     1       3.791  -5.288  22.876  0.00  0.00    -0.503 OA
ATOM     34  H   UNL     1       4.434  -5.419  22.149  0.00  0.00    +0.292 HD
ENDBRANCH  28  33
ENDBRANCH  24  25
BRANCH  23  35
ATOM     35  O   UNL     1       7.422   3.298  28.239  0.00  0.00    -0.506 OA
ATOM     36  H   UNL     1       7.400   2.542  28.847  0.00  0.00    +0.292 HD
ENDBRANCH  23  35
BRANCH  20  37
ATOM     37  O   UNL     1       4.351   5.256  25.232  0.00  0.00    -0.507 OA
ATOM     38  H   UNL     1       5.005   5.792  24.756  0.00  0.00    +0.292 HD
ENDBRANCH  20  37
ENDBRANCH  13  14
ENDBRANCH   3  13
BRANCH   1  39
ATOM     39  C   UNL     1      10.305  -0.545  23.619  0.00  0.00    +0.266 C 
BRANCH  39  40
ATOM     40  O   UNL     1      10.024  -0.946  22.268  0.00  0.00    -0.459 OA
BRANCH  40  41
ATOM     41  C   UNL     1       9.461   0.007  21.487  0.00  0.00    +0.332 C 
ATOM     42  O   UNL     1       9.009  -0.149  20.369  0.00  0.00    -0.246 OA
BRANCH  41  44
ATOM     43  C   UNL     1       8.383   2.090  22.181  0.00  0.00    +0.015 C 
ATOM     44  C   UNL     1       9.448   1.274  22.248  0.00  0.00    +0.092 C 
BRANCH  43  47
ATOM     45  C   UNL     1       7.231   5.517  23.332  0.00  0.00    +0.162 A 
ATOM     46  C   UNL     1       7.314   4.329  22.602  0.00  0.00    +0.057 A 
ATOM     47  C   UNL     1       8.254   3.343  22.941  0.00  0.00    -0.021 A 
ATOM     48  C   UNL     1       9.082   3.550  24.056  0.00  0.00    +0.012 A 
ATOM     49  C   UNL     1       9.016   4.743  24.779  0.00  0.00    +0.050 A 
ATOM     50  C   UNL     1       8.106   5.720  24.400  0.00  0.00    +0.158 A 
BRANCH  50  51
ATOM     51  O   UNL     1       8.077   6.889  25.110  0.00  0.00    -0.503 OA
ATOM     52  H   UNL     1       9.013   7.143  25.224  0.00  0.00    +0.292 HD
ENDBRANCH  50  51
BRANCH  45  54
ATOM     53  C   UNL     1       6.476   7.108  21.761  0.00  0.00    +0.277 C 
ATOM     54  O   UNL     1       6.359   6.543  23.065  0.00  0.00    -0.491 OA
ENDBRANCH  45  54
ENDBRANCH  43  47
ENDBRANCH  41  44
ENDBRANCH  40  41
ENDBRANCH  39  40
ENDBRANCH   1  39
TORSDOF 17
ENDMDL
MODEL 6
REMARK VINA RESULT:      -7.3      1.885      8.328
REMARK  Name = 
REMARK  18 active torsions:
REMARK  status: ('A' for Active; 'I' for Inactive)
REMARK    1  A    between atoms: C_1  and  O_2
REMARK    2  A    between atoms: O_2  and  C_3
REMARK    3  A    between atoms: C_4  and  O_51
REMARK    4  A    between atoms: C_7  and  C_9
REMARK    5  A    between atoms: C_10  and  C_11
REMARK    6  A    between atoms: C_11  and  O_13
REMARK    7  A    between atoms: O_13  and  C_14
REMARK    8  A    between atoms: C_14  and  C_15
REMARK    9  A    between atoms: C_17  and  O_50
REMARK   10  A    between atoms: C_19  and  O_49
REMARK   11  A    between atoms: C_21  and  O_48
REMARK   12  A    between atoms: C_23  and  O_26
REMARK   13  A    between atoms: O_26  and  C_27
REMARK   14  A    between atoms: C_28  and  C_40
REMARK   15  A    between atoms: C_32  and  O_39
REMARK   16  A    between atoms: C_34  and  O_38
REMARK   17  A    between atoms: C_42  and  O_47
REMARK   18  A    between atoms: C_43  and  O_46
REMARK                            x       y       z     vdW  Elec       q    Type
REMARK                         _______ _______ _______ _____ _____    ______ ____
ROOT
ATOM      1  C   UNL     1       5.127   1.704  27.286  0.00  0.00    +0.191 C 
ATOM      2  O   UNL     1       5.907   1.284  26.151  0.00  0.00    -0.330 OA
ATOM      3  C   UNL     1       5.971   2.308  25.147  0.00  0.00    +0.340 C 
ATOM      4  C   UNL     1       4.569   2.598  24.568  0.00  0.00    +0.214 C 
ATOM      5  C   UNL     1       3.622   2.972  25.718  0.00  0.00    +0.180 C 
ATOM      6  C   UNL     1       3.668   1.907  26.836  0.00  0.00    +0.178 C 
ENDROOT
BRANCH   6   7
ATOM      7  O   UNL     1       3.115   0.671  26.362  0.00  0.00    -0.386 OA
ATOM      8  H   UNL     1       2.318   0.470  26.889  0.00  0.00    +0.210 HD
ENDBRANCH   6   7
BRANCH   5   9
ATOM      9  O   UNL     1       2.294   3.147  25.212  0.00  0.00    -0.386 OA
ATOM     10  H   UNL     1       1.713   2.493  25.637  0.00  0.00    +0.210 HD
ENDBRANCH   5   9
BRANCH   4  11
ATOM     11  O   UNL     1       4.610   3.629  23.568  0.00  0.00    -0.383 OA
ATOM     12  H   UNL     1       4.364   4.475  23.982  0.00  0.00    +0.210 HD
ENDBRANCH   4  11
BRANCH   3  13
ATOM     13  O   UNL     1       6.768   1.859  24.052  0.00  0.00    -0.453 OA
BRANCH  13  14
ATOM     14  C   UNL     1       8.040   2.362  23.871  0.00  0.00    +0.214 A 
ATOM     15  C   UNL     1       8.270   3.824  23.660  0.00  0.00    +0.238 A 
ATOM     16  O   UNL     1       7.333   4.584  23.431  0.00  0.00    -0.283 OA
ATOM     17  C   UNL     1       9.666   4.288  23.643  0.00  0.00    +0.109 A 
ATOM     18  C   UNL     1      10.667   3.321  23.552  0.00  0.00    +0.147 A 
ATOM     19  C   UNL     1      12.009   3.706  23.449  0.00  0.00    +0.092 A 
ATOM     20  C   UNL     1      12.333   5.060  23.441  0.00  0.00    +0.124 A 
ATOM     21  C   UNL     1      11.349   6.034  23.551  0.00  0.00    +0.091 A 
ATOM     22  O   UNL     1      10.405   1.972  23.532  0.00  0.00    -0.451 OA
ATOM     23  C   UNL     1      10.014   5.647  23.657  0.00  0.00    +0.135 A 
ATOM     24  C   UNL     1       9.098   1.533  23.716  0.00  0.00    +0.181 A 
BRANCH  24  25
ATOM     25  C   UNL     1       8.960   0.041  23.716  0.00  0.00    +0.025 A 
ATOM     26  C   UNL     1       8.927  -0.681  22.506  0.00  0.00    +0.015 A 
ATOM     27  C   UNL     1       8.822  -2.080  22.497  0.00  0.00    +0.050 A 
ATOM     28  C   UNL     1       8.762  -2.770  23.696  0.00  0.00    +0.158 A 
ATOM     29  C   UNL     1       8.766  -2.082  24.901  0.00  0.00    +0.159 A 
ATOM     30  C   UNL     1       8.831  -0.691  24.915  0.00  0.00    +0.060 A 
BRANCH  29  31
ATOM     31  O   UNL     1       8.716  -2.812  26.056  0.00  0.00    -0.503 OA
ATOM     32  H   UNL     1       7.825  -3.197  26.135  0.00  0.00    +0.292 HD
ENDBRANCH  29  31
BRANCH  28  33
ATOM     33  O   UNL     1       8.702  -4.134  23.692  0.00  0.00    -0.503 OA
ATOM     34  H   UNL     1       8.235  -4.356  22.861  0.00  0.00    +0.292 HD
ENDBRANCH  28  33
ENDBRANCH  24  25
BRANCH  23  35
ATOM     35  O   UNL     1       9.059   6.616  23.793  0.00  0.00    -0.506 OA
ATOM     36  H   UNL     1       8.216   6.310  23.424  0.00  0.00    +0.292 HD
ENDBRANCH  23  35
BRANCH  20  37
ATOM     37  O   UNL     1      13.623   5.490  23.328  0.00  0.00    -0.507 OA
ATOM     38  H   UNL     1      14.198   4.735  23.121  0.00  0.00    +0.292 HD
ENDBRANCH  20  37
ENDBRANCH  13  14
ENDBRANCH   3  13
BRANCH   1  39
ATOM     39  C   UNL     1       5.259   0.639  28.384  0.00  0.00    +0.266 C 
BRANCH  39  40
ATOM     40  O   UNL     1       5.447  -0.679  27.846  0.00  0.00    -0.459 OA
BRANCH  40  41
ATOM     41  C   UNL     1       4.548  -1.606  28.257  0.00  0.00    +0.332 C 
ATOM     42  O   UNL     1       3.957  -1.620  29.318  0.00  0.00    -0.246 OA
BRANCH  41  44
ATOM     43  C   UNL     1       5.182  -2.555  26.093  0.00  0.00    +0.015 C 
ATOM     44  C   UNL     1       4.373  -2.588  27.166  0.00  0.00    +0.092 C 
BRANCH  43  47
ATOM     45  C   UNL     1       4.877  -5.784  24.125  0.00  0.00    +0.162 A 
ATOM     46  C   UNL     1       4.909  -4.890  25.198  0.00  0.00    +0.057 A 
ATOM     47  C   UNL     1       5.121  -3.519  24.984  0.00  0.00    -0.021 A 
ATOM     48  C   UNL     1       5.257  -3.052  23.667  0.00  0.00    +0.012 A 
ATOM     49  C   UNL     1       5.243  -3.942  22.591  0.00  0.00    +0.050 A 
ATOM     50  C   UNL     1       5.072  -5.298  22.831  0.00  0.00    +0.158 A 
BRANCH  50  51
ATOM     51  O   UNL     1       5.085  -6.152  21.762  0.00  0.00    -0.503 OA
ATOM     52  H   UNL     1       4.173  -6.494  21.698  0.00  0.00    +0.292 HD
ENDBRANCH  50  51
BRANCH  45  54
ATOM     53  C   UNL     1       3.443  -7.532  24.800  0.00  0.00    +0.277 C 
ATOM     54  O   UNL     1       4.693  -7.140  24.237  0.00  0.00    -0.491 OA
ENDBRANCH  45  54
ENDBRANCH  43  47
ENDBRANCH  41  44
ENDBRANCH  40  41
ENDBRANCH  39  40
ENDBRANCH   1  39
TORSDOF 17
ENDMDL
MODEL 7
REMARK VINA RESULT:      -7.3      2.692      9.617
REMARK  Name = 
REMARK  18 active torsions:
REMARK  status: ('A' for Active; 'I' for Inactive)
REMARK    1  A    between atoms: C_1  and  O_2
REMARK    2  A    between atoms: O_2  and  C_3
REMARK    3  A    between atoms: C_4  and  O_51
REMARK    4  A    between atoms: C_7  and  C_9
REMARK    5  A    between atoms: C_10  and  C_11
REMARK    6  A    between atoms: C_11  and  O_13
REMARK    7  A    between atoms: O_13  and  C_14
REMARK    8  A    between atoms: C_14  and  C_15
REMARK    9  A    between atoms: C_17  and  O_50
REMARK   10  A    between atoms: C_19  and  O_49
REMARK   11  A    between atoms: C_21  and  O_48
REMARK   12  A    between atoms: C_23  and  O_26
REMARK   13  A    between atoms: O_26  and  C_27
REMARK   14  A    between atoms: C_28  and  C_40
REMARK   15  A    between atoms: C_32  and  O_39
REMARK   16  A    between atoms: C_34  and  O_38
REMARK   17  A    between atoms: C_42  and  O_47
REMARK   18  A    between atoms: C_43  and  O_46
REMARK                            x       y       z     vdW  Elec       q    Type
REMARK                         _______ _______ _______ _____ _____    ______ ____
ROOT
ATOM      1  C   UNL     1       5.277  -0.457  28.050  0.00  0.00    +0.191 C 
ATOM      2  O   UNL     1       6.144  -0.911  26.994  0.00  0.00    -0.330 OA
ATOM      3  C   UNL     1       7.277  -0.043  26.832  0.00  0.00    +0.340 C 
ATOM      4  C   UNL     1       6.829   1.368  26.388  0.00  0.00    +0.214 C 
ATOM      5  C   UNL     1       5.819   1.915  27.408  0.00  0.00    +0.180 C 
ATOM      6  C   UNL     1       4.677   0.903  27.648  0.00  0.00    +0.178 C 
ENDROOT
BRANCH   6   7
ATOM      7  O   UNL     1       3.883   0.768  26.461  0.00  0.00    -0.386 OA
ATOM      8  H   UNL     1       4.484   0.628  25.704  0.00  0.00    +0.210 HD
ENDBRANCH   6   7
BRANCH   5   9
ATOM      9  O   UNL     1       5.318   3.179  26.961  0.00  0.00    -0.386 OA
ATOM     10  H   UNL     1       5.792   3.884  27.435  0.00  0.00    +0.210 HD
ENDBRANCH   5   9
BRANCH   4  11
ATOM     11  O   UNL     1       7.948   2.256  26.231  0.00  0.00    -0.383 OA
ATOM     12  H   UNL     1       8.469   1.967  25.462  0.00  0.00    +0.210 HD
ENDBRANCH   4  11
BRANCH   3  13
ATOM     13  O   UNL     1       8.118  -0.538  25.792  0.00  0.00    -0.453 OA
BRANCH  13  14
ATOM     14  C   UNL     1       7.628  -1.455  24.885  0.00  0.00    +0.214 A 
ATOM     15  C   UNL     1       7.597  -2.915  25.203  0.00  0.00    +0.238 A 
ATOM     16  O   UNL     1       8.192  -3.362  26.180  0.00  0.00    -0.283 OA
ATOM     17  C   UNL     1       6.907  -3.795  24.247  0.00  0.00    +0.109 A 
ATOM     18  C   UNL     1       6.575  -3.262  23.001  0.00  0.00    +0.147 A 
ATOM     19  C   UNL     1       5.992  -4.074  22.022  0.00  0.00    +0.092 A 
ATOM     20  C   UNL     1       5.745  -5.416  22.303  0.00  0.00    +0.124 A 
ATOM     21  C   UNL     1       6.052  -5.955  23.546  0.00  0.00    +0.091 A 
ATOM     22  O   UNL     1       6.816  -1.953  22.659  0.00  0.00    -0.451 OA
ATOM     23  C   UNL     1       6.629  -5.143  24.521  0.00  0.00    +0.135 A 
ATOM     24  C   UNL     1       7.315  -1.082  23.623  0.00  0.00    +0.181 A 
BRANCH  24  25
ATOM     25  C   UNL     1       7.490   0.321  23.130  0.00  0.00    +0.025 A 
ATOM     26  C   UNL     1       6.408   1.224  23.120  0.00  0.00    +0.015 A 
ATOM     27  C   UNL     1       6.567   2.547  22.681  0.00  0.00    +0.050 A 
ATOM     28  C   UNL     1       7.813   2.983  22.261  0.00  0.00    +0.158 A 
ATOM     29  C   UNL     1       8.890   2.108  22.235  0.00  0.00    +0.159 A 
ATOM     30  C   UNL     1       8.727   0.783  22.633  0.00  0.00    +0.060 A 
BRANCH  29  31
ATOM     31  O   UNL     1      10.100   2.593  21.823  0.00  0.00    -0.503 OA
ATOM     32  H   UNL     1      10.661   1.837  21.571  0.00  0.00    +0.292 HD
ENDBRANCH  29  31
BRANCH  28  33
ATOM     33  O   UNL     1       7.983   4.281  21.873  0.00  0.00    -0.503 OA
ATOM     34  H   UNL     1       7.232   4.759  22.282  0.00  0.00    +0.292 HD
ENDBRANCH  28  33
ENDBRANCH  24  25
BRANCH  23  35
ATOM     35  O   UNL     1       6.898  -5.682  25.748  0.00  0.00    -0.506 OA
ATOM     36  H   UNL     1       6.634  -5.066  26.450  0.00  0.00    +0.292 HD
ENDBRANCH  23  35
BRANCH  20  37
ATOM     37  O   UNL     1       5.193  -6.254  21.380  0.00  0.00    -0.507 OA
ATOM     38  H   UNL     1       4.360  -6.613  21.727  0.00  0.00    +0.292 HD
ENDBRANCH  20  37
ENDBRANCH  13  14
ENDBRANCH   3  13
BRANCH   1  39
ATOM     39  C   UNL     1       4.200  -1.527  28.284  0.00  0.00    +0.266 C 
BRANCH  39  40
ATOM     40  O   UNL     1       4.635  -2.835  27.881  0.00  0.00    -0.459 OA
BRANCH  40  41
ATOM     41  C   UNL     1       4.097  -3.865  28.579  0.00  0.00    +0.332 C 
ATOM     42  O   UNL     1       4.056  -3.975  29.789  0.00  0.00    -0.246 OA
BRANCH  41  44
ATOM     43  C   UNL     1       3.486  -4.518  26.303  0.00  0.00    +0.015 C 
ATOM     44  C   UNL     1       3.523  -4.822  27.611  0.00  0.00    +0.092 C 
BRANCH  43  47
ATOM     45  C   UNL     1       2.505  -7.655  24.407  0.00  0.00    +0.162 A 
ATOM     46  C   UNL     1       2.968  -6.818  25.426  0.00  0.00    +0.057 A 
ATOM     47  C   UNL     1       2.985  -5.425  25.258  0.00  0.00    -0.021 A 
ATOM     48  C   UNL     1       2.485  -4.879  24.065  0.00  0.00    +0.012 A 
ATOM     49  C   UNL     1       2.037  -5.709  23.036  0.00  0.00    +0.050 A 
ATOM     50  C   UNL     1       2.068  -7.086  23.209  0.00  0.00    +0.158 A 
BRANCH  50  51
ATOM     51  O   UNL     1       1.645  -7.878  22.177  0.00  0.00    -0.503 OA
ATOM     52  H   UNL     1       2.361  -8.528  22.043  0.00  0.00    +0.292 HD
ENDBRANCH  50  51
BRANCH  45  54
ATOM     53  C   UNL     1       1.391  -9.560  25.241  0.00  0.00    +0.277 C 
ATOM     54  O   UNL     1       2.466  -9.025  24.471  0.00  0.00    -0.491 OA
ENDBRANCH  45  54
ENDBRANCH  43  47
ENDBRANCH  41  44
ENDBRANCH  40  41
ENDBRANCH  39  40
ENDBRANCH   1  39
TORSDOF 17
ENDMDL
MODEL 8
REMARK VINA RESULT:      -7.2      2.447      4.028
REMARK  Name = 
REMARK  18 active torsions:
REMARK  status: ('A' for Active; 'I' for Inactive)
REMARK    1  A    between atoms: C_1  and  O_2
REMARK    2  A    between atoms: O_2  and  C_3
REMARK    3  A    between atoms: C_4  and  O_51
REMARK    4  A    between atoms: C_7  and  C_9
REMARK    5  A    between atoms: C_10  and  C_11
REMARK    6  A    between atoms: C_11  and  O_13
REMARK    7  A    between atoms: O_13  and  C_14
REMARK    8  A    between atoms: C_14  and  C_15
REMARK    9  A    between atoms: C_17  and  O_50
REMARK   10  A    between atoms: C_19  and  O_49
REMARK   11  A    between atoms: C_21  and  O_48
REMARK   12  A    between atoms: C_23  and  O_26
REMARK   13  A    between atoms: O_26  and  C_27
REMARK   14  A    between atoms: C_28  and  C_40
REMARK   15  A    between atoms: C_32  and  O_39
REMARK   16  A    between atoms: C_34  and  O_38
REMARK   17  A    between atoms: C_42  and  O_47
REMARK   18  A    between atoms: C_43  and  O_46
REMARK                            x       y       z     vdW  Elec       q    Type
REMARK                         _______ _______ _______ _____ _____    ______ ____
ROOT
ATOM      1  C   UNL     1       7.707  -4.800  24.071  0.00  0.00    +0.191 C 
ATOM      2  O   UNL     1       6.595  -4.087  24.644  0.00  0.00    -0.330 OA
ATOM      3  C   UNL     1       5.354  -4.773  24.414  0.00  0.00    +0.340 C 
ATOM      4  C   UNL     1       5.036  -4.841  22.904  0.00  0.00    +0.214 C 
ATOM      5  C   UNL     1       6.211  -5.509  22.175  0.00  0.00    +0.180 C 
ATOM      6  C   UNL     1       7.546  -4.821  22.539  0.00  0.00    +0.178 C 
ENDROOT
BRANCH   6   7
ATOM      7  O   UNL     1       7.569  -3.485  22.016  0.00  0.00    -0.386 OA
ATOM      8  H   UNL     1       8.219  -2.967  22.529  0.00  0.00    +0.210 HD
ENDBRANCH   6   7
BRANCH   5   9
ATOM      9  O   UNL     1       5.977  -5.491  20.763  0.00  0.00    -0.386 OA
ATOM     10  H   UNL     1       5.089  -5.849  20.594  0.00  0.00    +0.210 HD
ENDBRANCH   5   9
BRANCH   4  11
ATOM     11  O   UNL     1       3.802  -5.534  22.652  0.00  0.00    -0.383 OA
ATOM     12  H   UNL     1       3.967  -6.492  22.706  0.00  0.00    +0.210 HD
ENDBRANCH   4  11
BRANCH   3  13
ATOM     13  O   UNL     1       4.284  -4.045  25.014  0.00  0.00    -0.453 OA
BRANCH  13  14
ATOM     14  C   UNL     1       4.553  -2.951  25.811  0.00  0.00    +0.214 A 
ATOM     15  C   UNL     1       5.035  -1.665  25.220  0.00  0.00    +0.238 A 
ATOM     16  O   UNL     1       5.404  -1.606  24.051  0.00  0.00    -0.283 OA
ATOM     17  C   UNL     1       5.136  -0.508  26.125  0.00  0.00    +0.109 A 
ATOM     18  C   UNL     1       5.041  -0.750  27.495  0.00  0.00    +0.147 A 
ATOM     19  C   UNL     1       5.211   0.299  28.406  0.00  0.00    +0.092 A 
ATOM     20  C   UNL     1       5.473   1.582  27.932  0.00  0.00    +0.124 A 
ATOM     21  C   UNL     1       5.549   1.841  26.569  0.00  0.00    +0.091 A 
ATOM     22  O   UNL     1       4.808  -1.998  28.021  0.00  0.00    -0.451 OA
ATOM     23  C   UNL     1       5.375   0.795  25.664  0.00  0.00    +0.135 A 
ATOM     24  C   UNL     1       4.548  -3.058  27.159  0.00  0.00    +0.181 A 
BRANCH  24  25
ATOM     25  C   UNL     1       4.269  -4.350  27.865  0.00  0.00    +0.025 A 
ATOM     26  C   UNL     1       2.987  -4.631  28.378  0.00  0.00    +0.015 A 
ATOM     27  C   UNL     1       2.711  -5.848  29.021  0.00  0.00    +0.050 A 
ATOM     28  C   UNL     1       3.710  -6.799  29.144  0.00  0.00    +0.158 A 
ATOM     29  C   UNL     1       4.989  -6.537  28.671  0.00  0.00    +0.159 A 
ATOM     30  C   UNL     1       5.278  -5.315  28.067  0.00  0.00    +0.060 A 
BRANCH  29  31
ATOM     31  O   UNL     1       5.935  -7.515  28.808  0.00  0.00    -0.503 OA
ATOM     32  H   UNL     1       6.128  -7.876  27.924  0.00  0.00    +0.292 HD
ENDBRANCH  29  31
BRANCH  28  33
ATOM     33  O   UNL     1       3.435  -8.000  29.730  0.00  0.00    -0.503 OA
ATOM     34  H   UNL     1       2.596  -7.850  30.213  0.00  0.00    +0.292 HD
ENDBRANCH  28  33
ENDBRANCH  24  25
BRANCH  23  35
ATOM     35  O   UNL     1       5.425   1.071  24.326  0.00  0.00    -0.506 OA
ATOM     36  H   UNL     1       4.535   1.257  23.989  0.00  0.00    +0.292 HD
ENDBRANCH  23  35
BRANCH  20  37
ATOM     37  O   UNL     1       5.662   2.637  28.776  0.00  0.00    -0.507 OA
ATOM     38  H   UNL     1       5.686   2.316  29.693  0.00  0.00    +0.292 HD
ENDBRANCH  20  37
ENDBRANCH  13  14
ENDBRANCH   3  13
BRANCH   1  39
ATOM     39  C   UNL     1       9.004  -4.108  24.514  0.00  0.00    +0.266 C 
BRANCH  39  40
ATOM     40  O   UNL     1       8.844  -2.688  24.655  0.00  0.00    -0.459 OA
BRANCH  40  41
ATOM     41  C   UNL     1       9.589  -1.935  23.809  0.00  0.00    +0.332 C 
ATOM     42  O   UNL     1      10.380  -2.344  22.982  0.00  0.00    -0.246 OA
BRANCH  41  44
ATOM     43  C   UNL     1      10.180   0.437  23.902  0.00  0.00    +0.015 C 
ATOM     44  C   UNL     1       9.242  -0.516  24.035  0.00  0.00    +0.092 C 
BRANCH  43  47
ATOM     45  C   UNL     1      10.547   4.211  23.755  0.00  0.00    +0.162 A 
ATOM     46  C   UNL     1      10.813   2.851  23.578  0.00  0.00    +0.057 A 
ATOM     47  C   UNL     1       9.919   1.878  24.053  0.00  0.00    -0.021 A 
ATOM     48  C   UNL     1       8.729   2.293  24.670  0.00  0.00    +0.012 A 
ATOM     49  C   UNL     1       8.465   3.650  24.866  0.00  0.00    +0.050 A 
ATOM     50  C   UNL     1       9.383   4.593  24.424  0.00  0.00    +0.158 A 
BRANCH  50  51
ATOM     51  O   UNL     1       9.112   5.915  24.648  0.00  0.00    -0.503 OA
ATOM     52  H   UNL     1       9.767   6.404  24.114  0.00  0.00    +0.292 HD
ENDBRANCH  50  51
BRANCH  45  54
ATOM     53  C   UNL     1      12.713   4.849  23.072  0.00  0.00    +0.277 C 
ATOM     54  O   UNL     1      11.366   5.232  23.342  0.00  0.00    -0.491 OA
ENDBRANCH  45  54
ENDBRANCH  43  47
ENDBRANCH  41  44
ENDBRANCH  40  41
ENDBRANCH  39  40
ENDBRANCH   1  39
TORSDOF 17
ENDMDL
MODEL 9
REMARK VINA RESULT:      -7.1      2.276      8.019
REMARK  Name = 
REMARK  18 active torsions:
REMARK  status: ('A' for Active; 'I' for Inactive)
REMARK    1  A    between atoms: C_1  and  O_2
REMARK    2  A    between atoms: O_2  and  C_3
REMARK    3  A    between atoms: C_4  and  O_51
REMARK    4  A    between atoms: C_7  and  C_9
REMARK    5  A    between atoms: C_10  and  C_11
REMARK    6  A    between atoms: C_11  and  O_13
REMARK    7  A    between atoms: O_13  and  C_14
REMARK    8  A    between atoms: C_14  and  C_15
REMARK    9  A    between atoms: C_17  and  O_50
REMARK   10  A    between atoms: C_19  and  O_49
REMARK   11  A    between atoms: C_21  and  O_48
REMARK   12  A    between atoms: C_23  and  O_26
REMARK   13  A    between atoms: O_26  and  C_27
REMARK   14  A    between atoms: C_28  and  C_40
REMARK   15  A    between atoms: C_32  and  O_39
REMARK   16  A    between atoms: C_34  and  O_38
REMARK   17  A    between atoms: C_42  and  O_47
REMARK   18  A    between atoms: C_43  and  O_46
REMARK                            x       y       z     vdW  Elec       q    Type
REMARK                         _______ _______ _______ _____ _____    ______ ____
ROOT
ATOM      1  C   UNL     1       8.403   1.461  22.668  0.00  0.00    +0.191 C 
ATOM      2  O   UNL     1       8.649   0.774  23.909  0.00  0.00    -0.330 OA
ATOM      3  C   UNL     1       7.863   1.321  24.979  0.00  0.00    +0.340 C 
ATOM      4  C   UNL     1       8.263   2.787  25.260  0.00  0.00    +0.214 C 
ATOM      5  C   UNL     1       8.124   3.599  23.964  0.00  0.00    +0.180 C 
ATOM      6  C   UNL     1       8.883   2.918  22.804  0.00  0.00    +0.178 C 
ENDROOT
BRANCH   6   7
ATOM      7  O   UNL     1      10.296   2.957  23.051  0.00  0.00    -0.386 OA
ATOM      8  H   UNL     1      10.617   2.039  23.139  0.00  0.00    +0.210 HD
ENDBRANCH   6   7
BRANCH   5   9
ATOM      9  O   UNL     1       8.585   4.937  24.182  0.00  0.00    -0.386 OA
ATOM     10  H   UNL     1       8.527   5.132  25.133  0.00  0.00    +0.210 HD
ENDBRANCH   5   9
BRANCH   4  11
ATOM     11  O   UNL     1       7.479   3.357  26.322  0.00  0.00    -0.383 OA
ATOM     12  H   UNL     1       7.830   3.041  27.172  0.00  0.00    +0.210 HD
ENDBRANCH   4  11
BRANCH   3  13
ATOM     13  O   UNL     1       8.121   0.601  26.183  0.00  0.00    -0.453 OA
BRANCH  13  14
ATOM     14  C   UNL     1       7.541  -0.634  26.387  0.00  0.00    +0.214 A 
ATOM     15  C   UNL     1       8.249  -1.893  26.002  0.00  0.00    +0.238 A 
ATOM     16  O   UNL     1       9.262  -1.862  25.308  0.00  0.00    -0.283 OA
ATOM     17  C   UNL     1       7.627  -3.164  26.408  0.00  0.00    +0.109 A 
ATOM     18  C   UNL     1       6.313  -3.120  26.873  0.00  0.00    +0.147 A 
ATOM     19  C   UNL     1       5.642  -4.305  27.197  0.00  0.00    +0.092 A 
ATOM     20  C   UNL     1       6.299  -5.524  27.052  0.00  0.00    +0.124 A 
ATOM     21  C   UNL     1       7.614  -5.582  26.609  0.00  0.00    +0.091 A 
ATOM     22  O   UNL     1       5.607  -1.949  27.015  0.00  0.00    -0.451 OA
ATOM     23  C   UNL     1       8.281  -4.400  26.291  0.00  0.00    +0.135 A 
ATOM     24  C   UNL     1       6.254  -0.738  26.788  0.00  0.00    +0.181 A 
BRANCH  24  25
ATOM     25  C   UNL     1       5.382   0.459  27.020  0.00  0.00    +0.025 A 
ATOM     26  C   UNL     1       5.400   1.138  28.254  0.00  0.00    +0.015 A 
ATOM     27  C   UNL     1       4.605   2.274  28.472  0.00  0.00    +0.050 A 
ATOM     28  C   UNL     1       3.794   2.747  27.453  0.00  0.00    +0.158 A 
ATOM     29  C   UNL     1       3.737   2.081  26.237  0.00  0.00    +0.159 A 
ATOM     30  C   UNL     1       4.495   0.931  26.029  0.00  0.00    +0.060 A 
BRANCH  29  31
ATOM     31  O   UNL     1       2.929   2.597  25.261  0.00  0.00    -0.503 OA
ATOM     32  H   UNL     1       2.058   2.164  25.328  0.00  0.00    +0.292 HD
ENDBRANCH  29  31
BRANCH  28  33
ATOM     33  O   UNL     1       3.050   3.875  27.646  0.00  0.00    -0.503 OA
ATOM     34  H   UNL     1       3.556   4.582  27.196  0.00  0.00    +0.292 HD
ENDBRANCH  28  33
ENDBRANCH  24  25
BRANCH  23  35
ATOM     35  O   UNL     1       9.584  -4.471  25.884  0.00  0.00    -0.506 OA
ATOM     36  H   UNL     1      10.123  -3.829  26.373  0.00  0.00    +0.292 HD
ENDBRANCH  23  35
BRANCH  20  37
ATOM     37  O   UNL     1       5.687  -6.709  27.338  0.00  0.00    -0.507 OA
ATOM     38  H   UNL     1       5.031  -6.573  28.041  0.00  0.00    +0.292 HD
ENDBRANCH  20  37
ENDBRANCH  13  14
ENDBRANCH   3  13
BRANCH   1  39
ATOM     39  C   UNL     1       9.131   0.707  21.546  0.00  0.00    +0.266 C 
BRANCH  39  40
ATOM     40  O   UNL     1       8.653  -0.639  21.394  0.00  0.00    -0.459 OA
BRANCH  40  41
ATOM     41  C   UNL     1       9.455  -1.601  21.910  0.00  0.00    +0.332 C 
ATOM     42  O   UNL     1      10.650  -1.514  22.112  0.00  0.00    -0.246 OA
BRANCH  41  44
ATOM     43  C   UNL     1       7.324  -2.606  22.567  0.00  0.00    +0.015 C 
ATOM     44  C   UNL     1       8.615  -2.773  22.232  0.00  0.00    +0.092 C 
BRANCH  43  47
ATOM     45  C   UNL     1       4.214  -4.558  23.523  0.00  0.00    +0.162 A 
ATOM     46  C   UNL     1       5.066  -3.487  23.240  0.00  0.00    +0.057 A 
ATOM     47  C   UNL     1       6.395  -3.711  22.851  0.00  0.00    -0.021 A 
ATOM     48  C   UNL     1       6.846  -5.033  22.705  0.00  0.00    +0.012 A 
ATOM     49  C   UNL     1       6.005  -6.108  23.003  0.00  0.00    +0.050 A 
ATOM     50  C   UNL     1       4.707  -5.861  23.425  0.00  0.00    +0.158 A 
BRANCH  50  51
ATOM     51  O   UNL     1       3.910  -6.930  23.732  0.00  0.00    -0.503 OA
ATOM     52  H   UNL     1       3.902  -7.482  22.927  0.00  0.00    +0.292 HD
ENDBRANCH  50  51
BRANCH  45  54
ATOM     53  C   UNL     1       2.722  -3.755  25.164  0.00  0.00    +0.277 C 
ATOM     54  O   UNL     1       2.907  -4.438  23.926  0.00  0.00    -0.491 OA
ENDBRANCH  45  54
ENDBRANCH  43  47
ENDBRANCH  41  44
ENDBRANCH  40  41
ENDBRANCH  39  40
ENDBRANCH   1  39
TORSDOF 17
ENDMDL
