MODEL 1
REMARK VINA RESULT:      -6.9      0.000      0.000
REMARK  Name = 
REMARK  15 active torsions:
REMARK  status: ('A' for Active; 'I' for Inactive)
REMARK    1  A    between atoms: C_4  and  O_11
REMARK    2  A    between atoms: C_6  and  C_7
REMARK    3  A    between atoms: C_6  and  O_10
REMARK    4  A    between atoms: C_7  and  C_8
REMARK    5  A    between atoms: C_8  and  O_9
REMARK    6  A    between atoms: C_14  and  O_31
REMARK    7  A    between atoms: C_15  and  C_17
REMARK    8  A    between atoms: C_19  and  C_27
REMARK    9  A    between atoms: C_19  and  O_30
REMARK   10  A    between atoms: C_20  and  C_23
REMARK   11  A    between atoms: C_20  and  O_26
REMARK   12  A    between atoms: C_23  and  C_24
REMARK   13  A    between atoms: C_24  and  O_25
REMARK   14  A    between atoms: C_27  and  C_28
REMARK   15  A    between atoms: C_28  and  O_29
REMARK                            x       y       z     vdW  Elec       q    Type
REMARK                         _______ _______ _______ _____ _____    ______ ____
ROOT
ATOM      1  C   UNL     1       7.400   2.570  25.429  0.00  0.00    +0.114 C 
ATOM      2  C   UNL     1       7.644   4.111  25.408  0.00  0.00    +0.097 C 
ATOM      3  C   UNL     1       8.838   4.514  24.582  0.00  0.00    +0.054 C 
ATOM      4  C   UNL     1       9.452   3.690  23.723  0.00  0.00    +0.130 C 
ATOM      5  C   UNL     1       9.021   2.317  23.553  0.00  0.00    +0.105 A 
ATOM      6  C   UNL     1       9.641   1.432  22.549  0.00  0.00    +0.238 A 
ATOM      7  C   UNL     1       9.215   0.017  22.500  0.00  0.00    +0.208 A 
ATOM      8  C   UNL     1       8.210  -0.387  23.303  0.00  0.00    +0.180 A 
ATOM      9  O   UNL     1       7.615   0.474  24.219  0.00  0.00    -0.455 OA
ATOM     10  O   UNL     1      10.513   1.826  21.771  0.00  0.00    -0.283 OA
ATOM     11  C   UNL     1       8.067   1.781  24.332  0.00  0.00    +0.123 A 
ENDROOT
BRANCH   8  12
ATOM     12  C   UNL     1       7.677  -1.768  23.350  0.00  0.00    +0.020 C 
ATOM     13  C   UNL     1       6.383  -2.148  22.784  0.00  0.00    +0.010 C 
ATOM     14  C   UNL     1       5.956  -3.420  22.718  0.00  0.00    +0.011 C 
ATOM     15  C   UNL     1       6.731  -4.611  23.262  0.00  0.00    +0.119 C 
ATOM     16  C   UNL     1       7.883  -4.141  24.265  0.00  0.00    +0.119 C 
ATOM     17  C   UNL     1       8.389  -2.751  23.942  0.00  0.00    +0.022 C 
BRANCH  15  18
ATOM     18  O   UNL     1       5.733  -5.414  23.901  0.00  0.00    -0.381 OA
ATOM     19  H   UNL     1       5.121  -4.816  24.366  0.00  0.00    +0.211 HD
ENDBRANCH  15  18
BRANCH  16  20
ATOM     20  O   UNL     1       9.051  -4.965  24.207  0.00  0.00    -0.381 OA
ATOM     21  H   UNL     1       8.825  -5.833  24.593  0.00  0.00    +0.211 HD
ENDBRANCH  16  20
BRANCH  15  22
ATOM     22  C   UNL     1       7.236  -5.451  22.063  0.00  0.00    +0.070 C 
BRANCH  22  23
ATOM     23  C   UNL     1       6.256  -5.617  20.897  0.00  0.00    +0.159 C 
BRANCH  23  24
ATOM     24  O   UNL     1       5.148  -6.402  21.333  0.00  0.00    -0.395 OA
ATOM     25  H   UNL     1       4.599  -5.827  21.893  0.00  0.00    +0.209 HD
ENDBRANCH  23  24
ENDBRANCH  22  23
ENDBRANCH  15  22
BRANCH  16  26
ATOM     26  C   UNL     1       7.477  -4.086  25.762  0.00  0.00    +0.070 C 
BRANCH  26  27
ATOM     27  C   UNL     1       8.025  -5.189  26.665  0.00  0.00    +0.159 C 
BRANCH  27  28
ATOM     28  O   UNL     1       9.342  -4.827  27.089  0.00  0.00    -0.395 OA
ATOM     29  H   UNL     1       9.242  -4.245  27.861  0.00  0.00    +0.209 HD
ENDBRANCH  27  28
ENDBRANCH  26  27
ENDBRANCH  16  26
ENDBRANCH   8  12
BRANCH   2  30
ATOM     30  O   UNL     1       7.912   4.537  26.747  0.00  0.00    -0.384 OA
ATOM     31  H   UNL     1       7.064   4.815  27.144  0.00  0.00    +0.211 HD
ENDBRANCH   2  30
BRANCH   4  32
ATOM     32  O   UNL     1      10.498   4.165  22.960  0.00  0.00    -0.506 OA
ATOM     33  H   UNL     1      10.897   4.948  23.401  0.00  0.00    +0.292 HD
ENDBRANCH   4  32
BRANCH   7  34
ATOM     34  O   UNL     1       9.906  -0.796  21.619  0.00  0.00    -0.501 OA
ATOM     35  H   UNL     1      10.153  -0.218  20.864  0.00  0.00    +0.292 HD
ENDBRANCH   7  34
BRANCH   2  36
ATOM     36  C   UNL     1       6.431   4.911  24.896  0.00  0.00    +0.067 C 
BRANCH  36  37
ATOM     37  C   UNL     1       5.594   4.201  23.835  0.00  0.00    +0.159 C 
BRANCH  37  38
ATOM     38  O   UNL     1       6.014   4.616  22.539  0.00  0.00    -0.395 OA
ATOM     39  H   UNL     1       6.471   5.471  22.641  0.00  0.00    +0.209 HD
ENDBRANCH  37  38
ENDBRANCH  36  37
ENDBRANCH   2  36
TORSDOF 15
ENDMDL
MODEL 2
REMARK VINA RESULT:      -6.8      1.776      8.371
REMARK  Name = 
REMARK  15 active torsions:
REMARK  status: ('A' for Active; 'I' for Inactive)
REMARK    1  A    between atoms: C_4  and  O_11
REMARK    2  A    between atoms: C_6  and  C_7
REMARK    3  A    between atoms: C_6  and  O_10
REMARK    4  A    between atoms: C_7  and  C_8
REMARK    5  A    between atoms: C_8  and  O_9
REMARK    6  A    between atoms: C_14  and  O_31
REMARK    7  A    between atoms: C_15  and  C_17
REMARK    8  A    between atoms: C_19  and  C_27
REMARK    9  A    between atoms: C_19  and  O_30
REMARK   10  A    between atoms: C_20  and  C_23
REMARK   11  A    between atoms: C_20  and  O_26
REMARK   12  A    between atoms: C_23  and  C_24
REMARK   13  A    between atoms: C_24  and  O_25
REMARK   14  A    between atoms: C_27  and  C_28
REMARK   15  A    between atoms: C_28  and  O_29
REMARK                            x       y       z     vdW  Elec       q    Type
REMARK                         _______ _______ _______ _____ _____    ______ ____
ROOT
ATOM      1  C   UNL     1       5.512  -3.382  22.825  0.00  0.00    +0.114 C 
ATOM      2  C   UNL     1       5.366  -4.896  23.174  0.00  0.00    +0.097 C 
ATOM      3  C   UNL     1       6.686  -5.582  23.415  0.00  0.00    +0.054 C 
ATOM      4  C   UNL     1       7.837  -4.921  23.601  0.00  0.00    +0.130 C 
ATOM      5  C   UNL     1       7.895  -3.475  23.549  0.00  0.00    +0.105 A 
ATOM      6  C   UNL     1       9.142  -2.741  23.836  0.00  0.00    +0.238 A 
ATOM      7  C   UNL     1       9.149  -1.272  23.668  0.00  0.00    +0.208 A 
ATOM      8  C   UNL     1       7.996  -0.649  23.355  0.00  0.00    +0.180 A 
ATOM      9  O   UNL     1       6.822  -1.357  23.123  0.00  0.00    -0.455 OA
ATOM     10  O   UNL     1      10.178  -3.313  24.186  0.00  0.00    -0.283 OA
ATOM     11  C   UNL     1       6.826  -2.743  23.195  0.00  0.00    +0.123 A 
ENDROOT
BRANCH   8  12
ATOM     12  C   UNL     1       7.856   0.814  23.168  0.00  0.00    +0.020 C 
ATOM     13  C   UNL     1       7.067   1.413  22.092  0.00  0.00    +0.010 C 
ATOM     14  C   UNL     1       6.840   2.733  21.996  0.00  0.00    +0.011 C 
ATOM     15  C   UNL     1       7.410   3.770  22.952  0.00  0.00    +0.119 C 
ATOM     16  C   UNL     1       8.615   3.163  23.810  0.00  0.00    +0.119 C 
ATOM     17  C   UNL     1       8.479   1.669  24.007  0.00  0.00    +0.022 C 
BRANCH  15  18
ATOM     18  O   UNL     1       7.824   4.843  22.098  0.00  0.00    -0.381 OA
ATOM     19  H   UNL     1       8.090   5.589  22.665  0.00  0.00    +0.211 HD
ENDBRANCH  15  18
BRANCH  16  20
ATOM     20  O   UNL     1       8.682   3.691  25.139  0.00  0.00    -0.381 OA
ATOM     21  H   UNL     1       8.281   4.581  25.128  0.00  0.00    +0.211 HD
ENDBRANCH  16  20
BRANCH  15  22
ATOM     22  C   UNL     1       6.248   4.339  23.802  0.00  0.00    +0.070 C 
BRANCH  22  23
ATOM     23  C   UNL     1       6.202   5.864  23.944  0.00  0.00    +0.159 C 
BRANCH  23  24
ATOM     24  O   UNL     1       7.457   6.319  24.446  0.00  0.00    -0.395 OA
ATOM     25  H   UNL     1       7.901   6.783  23.716  0.00  0.00    +0.209 HD
ENDBRANCH  23  24
ENDBRANCH  22  23
ENDBRANCH  15  22
BRANCH  16  26
ATOM     26  C   UNL     1      10.029   3.365  23.204  0.00  0.00    +0.070 C 
BRANCH  26  27
ATOM     27  C   UNL     1      10.833   4.559  23.712  0.00  0.00    +0.159 C 
BRANCH  27  28
ATOM     28  O   UNL     1      10.193   5.764  23.282  0.00  0.00    -0.395 OA
ATOM     29  H   UNL     1       9.449   5.921  23.889  0.00  0.00    +0.209 HD
ENDBRANCH  27  28
ENDBRANCH  26  27
ENDBRANCH  16  26
ENDBRANCH   8  12
BRANCH   2  30
ATOM     30  O   UNL     1       4.763  -5.554  22.055  0.00  0.00    -0.384 OA
ATOM     31  H   UNL     1       5.474  -5.766  21.420  0.00  0.00    +0.211 HD
ENDBRANCH   2  30
BRANCH   4  32
ATOM     32  O   UNL     1       8.986  -5.630  23.881  0.00  0.00    -0.506 OA
ATOM     33  H   UNL     1       9.389  -5.946  23.041  0.00  0.00    +0.292 HD
ENDBRANCH   4  32
BRANCH   7  34
ATOM     34  O   UNL     1      10.372  -0.646  23.839  0.00  0.00    -0.501 OA
ATOM     35  H   UNL     1      10.371   0.110  23.213  0.00  0.00    +0.292 HD
ENDBRANCH   7  34
BRANCH   2  36
ATOM     36  C   UNL     1       4.475  -5.152  24.404  0.00  0.00    +0.067 C 
BRANCH  36  37
ATOM     37  C   UNL     1       4.585  -6.556  24.995  0.00  0.00    +0.159 C 
BRANCH  37  38
ATOM     38  O   UNL     1       4.051  -7.503  24.075  0.00  0.00    -0.395 OA
ATOM     39  H   UNL     1       3.403  -7.035  23.518  0.00  0.00    +0.209 HD
ENDBRANCH  37  38
ENDBRANCH  36  37
ENDBRANCH   2  36
TORSDOF 15
ENDMDL
MODEL 3
REMARK VINA RESULT:      -6.8      1.961      8.434
REMARK  Name = 
REMARK  15 active torsions:
REMARK  status: ('A' for Active; 'I' for Inactive)
REMARK    1  A    between atoms: C_4  and  O_11
REMARK    2  A    between atoms: C_6  and  C_7
REMARK    3  A    between atoms: C_6  and  O_10
REMARK    4  A    between atoms: C_7  and  C_8
REMARK    5  A    between atoms: C_8  and  O_9
REMARK    6  A    between atoms: C_14  and  O_31
REMARK    7  A    between atoms: C_15  and  C_17
REMARK    8  A    between atoms: C_19  and  C_27
REMARK    9  A    between atoms: C_19  and  O_30
REMARK   10  A    between atoms: C_20  and  C_23
REMARK   11  A    between atoms: C_20  and  O_26
REMARK   12  A    between atoms: C_23  and  C_24
REMARK   13  A    between atoms: C_24  and  O_25
REMARK   14  A    between atoms: C_27  and  C_28
REMARK   15  A    between atoms: C_28  and  O_29
REMARK                            x       y       z     vdW  Elec       q    Type
REMARK                         _______ _______ _______ _____ _____    ______ ____
ROOT
ATOM      1  C   UNL     1       5.282  -3.295  23.294  0.00  0.00    +0.114 C 
ATOM      2  C   UNL     1       5.189  -4.845  23.446  0.00  0.00    +0.097 C 
ATOM      3  C   UNL     1       6.534  -5.524  23.467  0.00  0.00    +0.054 C 
ATOM      4  C   UNL     1       7.689  -4.866  23.633  0.00  0.00    +0.130 C 
ATOM      5  C   UNL     1       7.724  -3.425  23.774  0.00  0.00    +0.105 A 
ATOM      6  C   UNL     1       8.984  -2.706  24.040  0.00  0.00    +0.238 A 
ATOM      7  C   UNL     1       8.957  -1.228  24.074  0.00  0.00    +0.208 A 
ATOM      8  C   UNL     1       7.772  -0.597  23.959  0.00  0.00    +0.180 A 
ATOM      9  O   UNL     1       6.589  -1.296  23.743  0.00  0.00    -0.455 OA
ATOM     10  O   UNL     1      10.055  -3.293  24.211  0.00  0.00    -0.283 OA
ATOM     11  C   UNL     1       6.617  -2.679  23.624  0.00  0.00    +0.123 A 
ENDROOT
BRANCH   8  12
ATOM     12  C   UNL     1       7.597   0.874  23.986  0.00  0.00    +0.020 C 
ATOM     13  C   UNL     1       8.015   1.710  25.110  0.00  0.00    +0.010 C 
ATOM     14  C   UNL     1       7.969   3.053  25.083  0.00  0.00    +0.011 C 
ATOM     15  C   UNL     1       7.437   3.866  23.913  0.00  0.00    +0.119 C 
ATOM     16  C   UNL     1       6.576   2.955  22.921  0.00  0.00    +0.119 C 
ATOM     17  C   UNL     1       7.022   1.509  22.942  0.00  0.00    +0.022 C 
BRANCH  15  18
ATOM     18  O   UNL     1       6.661   4.899  24.530  0.00  0.00    -0.381 OA
ATOM     19  H   UNL     1       7.091   5.751  24.336  0.00  0.00    +0.211 HD
ENDBRANCH  15  18
BRANCH  16  20
ATOM     20  O   UNL     1       6.700   3.344  21.549  0.00  0.00    -0.381 OA
ATOM     21  H   UNL     1       7.512   3.877  21.460  0.00  0.00    +0.211 HD
ENDBRANCH  16  20
BRANCH  15  22
ATOM     22  C   UNL     1       8.630   4.588  23.239  0.00  0.00    +0.070 C 
BRANCH  22  23
ATOM     23  C   UNL     1       8.396   6.049  22.845  0.00  0.00    +0.159 C 
BRANCH  23  24
ATOM     24  O   UNL     1       7.640   6.087  21.636  0.00  0.00    -0.395 OA
ATOM     25  H   UNL     1       6.926   5.433  21.730  0.00  0.00    +0.209 HD
ENDBRANCH  23  24
ENDBRANCH  22  23
ENDBRANCH  15  22
BRANCH  16  26
ATOM     26  C   UNL     1       5.052   2.913  23.213  0.00  0.00    +0.070 C 
BRANCH  26  27
ATOM     27  C   UNL     1       4.157   3.776  22.327  0.00  0.00    +0.159 C 
BRANCH  27  28
ATOM     28  O   UNL     1       4.690   5.102  22.284  0.00  0.00    -0.395 OA
ATOM     29  H   UNL     1       5.403   5.143  22.944  0.00  0.00    +0.209 HD
ENDBRANCH  27  28
ENDBRANCH  26  27
ENDBRANCH  16  26
ENDBRANCH   8  12
BRANCH   2  30
ATOM     30  O   UNL     1       4.489  -5.362  22.309  0.00  0.00    -0.384 OA
ATOM     31  H   UNL     1       3.666  -4.847  22.210  0.00  0.00    +0.211 HD
ENDBRANCH   2  30
BRANCH   4  32
ATOM     32  O   UNL     1       8.868  -5.577  23.705  0.00  0.00    -0.506 OA
ATOM     33  H   UNL     1       9.465  -5.157  24.364  0.00  0.00    +0.292 HD
ENDBRANCH   4  32
BRANCH   7  34
ATOM     34  O   UNL     1      10.183  -0.600  24.214  0.00  0.00    -0.501 OA
ATOM     35  H   UNL     1      10.473  -0.791  25.133  0.00  0.00    +0.292 HD
ENDBRANCH   7  34
BRANCH   2  36
ATOM     36  C   UNL     1       4.423  -5.287  24.707  0.00  0.00    +0.067 C 
BRANCH  36  37
ATOM     37  C   UNL     1       4.637  -6.744  25.110  0.00  0.00    +0.159 C 
BRANCH  37  38
ATOM     38  O   UNL     1       3.945  -7.597  24.203  0.00  0.00    -0.395 OA
ATOM     39  H   UNL     1       2.991  -7.459  24.345  0.00  0.00    +0.209 HD
ENDBRANCH  37  38
ENDBRANCH  36  37
ENDBRANCH   2  36
TORSDOF 15
ENDMDL
MODEL 4
REMARK VINA RESULT:      -6.7      2.410      8.360
REMARK  Name = 
REMARK  15 active torsions:
REMARK  status: ('A' for Active; 'I' for Inactive)
REMARK    1  A    between atoms: C_4  and  O_11
REMARK    2  A    between atoms: C_6  and  C_7
REMARK    3  A    between atoms: C_6  and  O_10
REMARK    4  A    between atoms: C_7  and  C_8
REMARK    5  A    between atoms: C_8  and  O_9
REMARK    6  A    between atoms: C_14  and  O_31
REMARK    7  A    between atoms: C_15  and  C_17
REMARK    8  A    between atoms: C_19  and  C_27
REMARK    9  A    between atoms: C_19  and  O_30
REMARK   10  A    between atoms: C_20  and  C_23
REMARK   11  A    between atoms: C_20  and  O_26
REMARK   12  A    between atoms: C_23  and  C_24
REMARK   13  A    between atoms: C_24  and  O_25
REMARK   14  A    between atoms: C_27  and  C_28
REMARK   15  A    between atoms: C_28  and  O_29
REMARK                            x       y       z     vdW  Elec       q    Type
REMARK                         _______ _______ _______ _____ _____    ______ ____
ROOT
ATOM      1  C   UNL     1       4.902  -4.717  26.961  0.00  0.00    +0.114 C 
ATOM      2  C   UNL     1       4.206  -6.074  27.290  0.00  0.00    +0.097 C 
ATOM      3  C   UNL     1       3.991  -6.943  26.078  0.00  0.00    +0.054 C 
ATOM      4  C   UNL     1       4.585  -6.722  24.898  0.00  0.00    +0.130 C 
ATOM      5  C   UNL     1       5.466  -5.588  24.696  0.00  0.00    +0.105 A 
ATOM      6  C   UNL     1       6.186  -5.388  23.424  0.00  0.00    +0.238 A 
ATOM      7  C   UNL     1       6.989  -4.158  23.257  0.00  0.00    +0.208 A 
ATOM      8  C   UNL     1       7.114  -3.316  24.303  0.00  0.00    +0.180 A 
ATOM      9  O   UNL     1       6.454  -3.543  25.506  0.00  0.00    -0.455 OA
ATOM     10  O   UNL     1       6.121  -6.195  22.495  0.00  0.00    -0.283 OA
ATOM     11  C   UNL     1       5.629  -4.650  25.643  0.00  0.00    +0.123 A 
ENDROOT
BRANCH   8  12
ATOM     12  C   UNL     1       7.894  -2.057  24.280  0.00  0.00    +0.020 C 
ATOM     13  C   UNL     1       9.356  -2.020  24.295  0.00  0.00    +0.010 C 
ATOM     14  C   UNL     1      10.063  -0.887  24.150  0.00  0.00    +0.011 C 
ATOM     15  C   UNL     1       9.442   0.494  24.002  0.00  0.00    +0.119 C 
ATOM     16  C   UNL     1       7.907   0.488  24.448  0.00  0.00    +0.119 C 
ATOM     17  C   UNL     1       7.260  -0.866  24.248  0.00  0.00    +0.022 C 
BRANCH  15  18
ATOM     18  O   UNL     1      10.255   1.333  24.829  0.00  0.00    -0.381 OA
ATOM     19  H   UNL     1      10.643   2.025  24.264  0.00  0.00    +0.211 HD
ENDBRANCH  15  18
BRANCH  16  20
ATOM     20  O   UNL     1       7.094   1.385  23.684  0.00  0.00    -0.381 OA
ATOM     21  H   UNL     1       7.389   2.295  23.878  0.00  0.00    +0.211 HD
ENDBRANCH  16  20
BRANCH  15  22
ATOM     22  C   UNL     1       9.680   0.983  22.552  0.00  0.00    +0.070 C 
BRANCH  22  23
ATOM     23  C   UNL     1      10.211   2.412  22.403  0.00  0.00    +0.159 C 
BRANCH  23  24
ATOM     24  O   UNL     1       9.247   3.320  22.931  0.00  0.00    -0.395 OA
ATOM     25  H   UNL     1       9.420   4.184  22.519  0.00  0.00    +0.209 HD
ENDBRANCH  23  24
ENDBRANCH  22  23
ENDBRANCH  15  22
BRANCH  16  26
ATOM     26  C   UNL     1       7.647   0.845  25.936  0.00  0.00    +0.070 C 
BRANCH  26  27
ATOM     27  C   UNL     1       7.207   2.276  26.234  0.00  0.00    +0.159 C 
BRANCH  27  28
ATOM     28  O   UNL     1       8.226   3.175  25.787  0.00  0.00    -0.395 OA
ATOM     29  H   UNL     1       7.845   4.069  25.809  0.00  0.00    +0.209 HD
ENDBRANCH  27  28
ENDBRANCH  26  27
ENDBRANCH  16  26
ENDBRANCH   8  12
BRANCH   2  30
ATOM     30  O   UNL     1       2.908  -5.791  27.823  0.00  0.00    -0.384 OA
ATOM     31  H   UNL     1       2.463  -5.180  27.205  0.00  0.00    +0.211 HD
ENDBRANCH   2  30
BRANCH   4  32
ATOM     32  O   UNL     1       4.381  -7.607  23.861  0.00  0.00    -0.506 OA
ATOM     33  H   UNL     1       4.844  -8.453  24.056  0.00  0.00    +0.292 HD
ENDBRANCH   4  32
BRANCH   7  34
ATOM     34  O   UNL     1       7.552  -3.964  22.008  0.00  0.00    -0.501 OA
ATOM     35  H   UNL     1       7.248  -3.076  21.717  0.00  0.00    +0.292 HD
ENDBRANCH   7  34
BRANCH   2  36
ATOM     36  C   UNL     1       4.969  -6.911  28.335  0.00  0.00    +0.067 C 
BRANCH  36  37
ATOM     37  C   UNL     1       6.135  -6.191  29.007  0.00  0.00    +0.159 C 
BRANCH  37  38
ATOM     38  O   UNL     1       7.344  -6.496  28.320  0.00  0.00    -0.395 OA
ATOM     39  H   UNL     1       7.769  -7.235  28.792  0.00  0.00    +0.209 HD
ENDBRANCH  37  38
ENDBRANCH  36  37
ENDBRANCH   2  36
TORSDOF 15
ENDMDL
MODEL 5
REMARK VINA RESULT:      -6.6      2.382      8.044
REMARK  Name = 
REMARK  15 active torsions:
REMARK  status: ('A' for Active; 'I' for Inactive)
REMARK    1  A    between atoms: C_4  and  O_11
REMARK    2  A    between atoms: C_6  and  C_7
REMARK    3  A    between atoms: C_6  and  O_10
REMARK    4  A    between atoms: C_7  and  C_8
REMARK    5  A    between atoms: C_8  and  O_9
REMARK    6  A    between atoms: C_14  and  O_31
REMARK    7  A    between atoms: C_15  and  C_17
REMARK    8  A    between atoms: C_19  and  C_27
REMARK    9  A    between atoms: C_19  and  O_30
REMARK   10  A    between atoms: C_20  and  C_23
REMARK   11  A    between atoms: C_20  and  O_26
REMARK   12  A    between atoms: C_23  and  C_24
REMARK   13  A    between atoms: C_24  and  O_25
REMARK   14  A    between atoms: C_27  and  C_28
REMARK   15  A    between atoms: C_28  and  O_29
REMARK                            x       y       z     vdW  Elec       q    Type
REMARK                         _______ _______ _______ _____ _____    ______ ____
ROOT
ATOM      1  C   UNL     1       4.779  -4.408  26.721  0.00  0.00    +0.114 C 
ATOM      2  C   UNL     1       4.300  -5.850  27.075  0.00  0.00    +0.097 C 
ATOM      3  C   UNL     1       4.267  -6.776  25.887  0.00  0.00    +0.054 C 
ATOM      4  C   UNL     1       4.855  -6.495  24.717  0.00  0.00    +0.130 C 
ATOM      5  C   UNL     1       5.548  -5.241  24.502  0.00  0.00    +0.105 A 
ATOM      6  C   UNL     1       6.268  -4.963  23.244  0.00  0.00    +0.238 A 
ATOM      7  C   UNL     1       6.868  -3.625  23.059  0.00  0.00    +0.208 A 
ATOM      8  C   UNL     1       6.822  -2.745  24.079  0.00  0.00    +0.180 A 
ATOM      9  O   UNL     1       6.169  -3.040  25.271  0.00  0.00    -0.455 OA
ATOM     10  O   UNL     1       6.363  -5.796  22.340  0.00  0.00    -0.283 OA
ATOM     11  C   UNL     1       5.528  -4.262  25.421  0.00  0.00    +0.123 A 
ENDROOT
BRANCH   8  12
ATOM     12  C   UNL     1       7.391  -1.377  24.036  0.00  0.00    +0.020 C 
ATOM     13  C   UNL     1       6.715  -0.248  23.399  0.00  0.00    +0.010 C 
ATOM     14  C   UNL     1       7.172   1.013  23.466  0.00  0.00    +0.011 C 
ATOM     15  C   UNL     1       8.462   1.419  24.163  0.00  0.00    +0.119 C 
ATOM     16  C   UNL     1       9.395   0.149  24.434  0.00  0.00    +0.119 C 
ATOM     17  C   UNL     1       8.594  -1.124  24.595  0.00  0.00    +0.022 C 
BRANCH  15  18
ATOM     18  O   UNL     1       9.060   2.364  23.269  0.00  0.00    -0.381 OA
ATOM     19  H   UNL     1      10.026   2.244  23.309  0.00  0.00    +0.211 HD
ENDBRANCH  15  18
BRANCH  16  20
ATOM     20  O   UNL     1      10.146   0.251  25.648  0.00  0.00    -0.381 OA
ATOM     21  H   UNL     1      10.303  -0.653  25.981  0.00  0.00    +0.211 HD
ENDBRANCH  16  20
BRANCH  15  22
ATOM     22  C   UNL     1       8.097   2.222  25.435  0.00  0.00    +0.070 C 
BRANCH  22  23
ATOM     23  C   UNL     1       7.043   1.591  26.350  0.00  0.00    +0.159 C 
BRANCH  23  24
ATOM     24  O   UNL     1       7.704   0.891  27.402  0.00  0.00    -0.395 OA
ATOM     25  H   UNL     1       8.615   0.730  27.104  0.00  0.00    +0.209 HD
ENDBRANCH  23  24
ENDBRANCH  22  23
ENDBRANCH  15  22
BRANCH  16  26
ATOM     26  C   UNL     1      10.431  -0.162  23.321  0.00  0.00    +0.070 C 
BRANCH  26  27
ATOM     27  C   UNL     1      10.420  -1.576  22.745  0.00  0.00    +0.159 C 
BRANCH  27  28
ATOM     28  O   UNL     1       9.875  -1.533  21.424  0.00  0.00    -0.395 OA
ATOM     29  H   UNL     1      10.627  -1.553  20.806  0.00  0.00    +0.209 HD
ENDBRANCH  27  28
ENDBRANCH  26  27
ENDBRANCH  16  26
ENDBRANCH   8  12
BRANCH   2  30
ATOM     30  O   UNL     1       2.957  -5.765  27.563  0.00  0.00    -0.384 OA
ATOM     31  H   UNL     1       3.001  -5.692  28.536  0.00  0.00    +0.211 HD
ENDBRANCH   2  30
BRANCH   4  32
ATOM     32  O   UNL     1       4.829  -7.431  23.704  0.00  0.00    -0.506 OA
ATOM     33  H   UNL     1       4.973  -8.327  24.083  0.00  0.00    +0.292 HD
ENDBRANCH   4  32
BRANCH   7  34
ATOM     34  O   UNL     1       7.433  -3.377  21.819  0.00  0.00    -0.501 OA
ATOM     35  H   UNL     1       7.330  -4.211  21.312  0.00  0.00    +0.292 HD
ENDBRANCH   7  34
BRANCH   2  36
ATOM     36  C   UNL     1       5.153  -6.523  28.168  0.00  0.00    +0.067 C 
BRANCH  36  37
ATOM     37  C   UNL     1       6.398  -5.743  28.582  0.00  0.00    +0.159 C 
BRANCH  37  38
ATOM     38  O   UNL     1       7.519  -6.200  27.832  0.00  0.00    -0.395 OA
ATOM     39  H   UNL     1       8.084  -6.713  28.438  0.00  0.00    +0.209 HD
ENDBRANCH  37  38
ENDBRANCH  36  37
ENDBRANCH   2  36
TORSDOF 15
ENDMDL
MODEL 6
REMARK VINA RESULT:      -6.5      2.566      8.217
REMARK  Name = 
REMARK  15 active torsions:
REMARK  status: ('A' for Active; 'I' for Inactive)
REMARK    1  A    between atoms: C_4  and  O_11
REMARK    2  A    between atoms: C_6  and  C_7
REMARK    3  A    between atoms: C_6  and  O_10
REMARK    4  A    between atoms: C_7  and  C_8
REMARK    5  A    between atoms: C_8  and  O_9
REMARK    6  A    between atoms: C_14  and  O_31
REMARK    7  A    between atoms: C_15  and  C_17
REMARK    8  A    between atoms: C_19  and  C_27
REMARK    9  A    between atoms: C_19  and  O_30
REMARK   10  A    between atoms: C_20  and  C_23
REMARK   11  A    between atoms: C_20  and  O_26
REMARK   12  A    between atoms: C_23  and  C_24
REMARK   13  A    between atoms: C_24  and  O_25
REMARK   14  A    between atoms: C_27  and  C_28
REMARK   15  A    between atoms: C_28  and  O_29
REMARK                            x       y       z     vdW  Elec       q    Type
REMARK                         _______ _______ _______ _____ _____    ______ ____
ROOT
ATOM      1  C   UNL     1       4.398  -5.331  23.919  0.00  0.00    +0.114 C 
ATOM      2  C   UNL     1       3.315  -6.301  24.489  0.00  0.00    +0.097 C 
ATOM      3  C   UNL     1       3.782  -7.070  25.698  0.00  0.00    +0.054 C 
ATOM      4  C   UNL     1       4.885  -6.756  26.391  0.00  0.00    +0.130 C 
ATOM      5  C   UNL     1       5.738  -5.654  25.995  0.00  0.00    +0.105 A 
ATOM      6  C   UNL     1       6.906  -5.254  26.802  0.00  0.00    +0.238 A 
ATOM      7  C   UNL     1       7.785  -4.184  26.284  0.00  0.00    +0.208 A 
ATOM      8  C   UNL     1       7.435  -3.548  25.148  0.00  0.00    +0.180 A 
ATOM      9  O   UNL     1       6.309  -3.918  24.420  0.00  0.00    -0.455 OA
ATOM     10  O   UNL     1       7.184  -5.796  27.874  0.00  0.00    -0.283 OA
ATOM     11  C   UNL     1       5.526  -4.978  24.854  0.00  0.00    +0.123 A 
ENDROOT
BRANCH   8  12
ATOM     12  C   UNL     1       8.215  -2.453  24.523  0.00  0.00    +0.020 C 
ATOM     13  C   UNL     1       9.598  -2.609  24.075  0.00  0.00    +0.010 C 
ATOM     14  C   UNL     1      10.262  -1.657  23.399  0.00  0.00    +0.011 C 
ATOM     15  C   UNL     1       9.685  -0.290  23.061  0.00  0.00    +0.119 C 
ATOM     16  C   UNL     1       8.388   0.024  23.941  0.00  0.00    +0.119 C 
ATOM     17  C   UNL     1       7.656  -1.236  24.349  0.00  0.00    +0.022 C 
BRANCH  15  18
ATOM     18  O   UNL     1      10.762   0.617  23.318  0.00  0.00    -0.381 OA
ATOM     19  H   UNL     1      10.450   1.275  23.965  0.00  0.00    +0.211 HD
ENDBRANCH  15  18
BRANCH  16  20
ATOM     20  O   UNL     1       7.405   0.794  23.241  0.00  0.00    -0.381 OA
ATOM     21  H   UNL     1       7.109   0.273  22.470  0.00  0.00    +0.211 HD
ENDBRANCH  16  20
BRANCH  15  22
ATOM     22  C   UNL     1       9.445  -0.228  21.532  0.00  0.00    +0.070 C 
BRANCH  22  23
ATOM     23  C   UNL     1       8.812   1.062  21.002  0.00  0.00    +0.159 C 
BRANCH  23  24
ATOM     24  O   UNL     1       9.582   2.174  21.454  0.00  0.00    -0.395 OA
ATOM     25  H   UNL     1      10.514   1.897  21.434  0.00  0.00    +0.209 HD
ENDBRANCH  23  24
ENDBRANCH  22  23
ENDBRANCH  15  22
BRANCH  16  26
ATOM     26  C   UNL     1       8.655   0.784  25.268  0.00  0.00    +0.070 C 
BRANCH  26  27
ATOM     27  C   UNL     1       8.350   2.280  25.278  0.00  0.00    +0.159 C 
BRANCH  27  28
ATOM     28  O   UNL     1       9.204   2.932  24.334  0.00  0.00    -0.395 OA
ATOM     29  H   UNL     1       9.833   2.264  24.012  0.00  0.00    +0.209 HD
ENDBRANCH  27  28
ENDBRANCH  26  27
ENDBRANCH  16  26
ENDBRANCH   8  12
BRANCH   2  30
ATOM     30  O   UNL     1       3.012  -7.271  23.481  0.00  0.00    -0.384 OA
ATOM     31  H   UNL     1       2.133  -7.643  23.686  0.00  0.00    +0.211 HD
ENDBRANCH   2  30
BRANCH   4  32
ATOM     32  O   UNL     1       5.200  -7.476  27.524  0.00  0.00    -0.506 OA
ATOM     33  H   UNL     1       6.010  -7.101  27.936  0.00  0.00    +0.292 HD
ENDBRANCH   4  32
BRANCH   7  34
ATOM     34  O   UNL     1       8.928  -3.925  27.021  0.00  0.00    -0.501 OA
ATOM     35  H   UNL     1       8.992  -2.946  27.073  0.00  0.00    +0.292 HD
ENDBRANCH   7  34
BRANCH   2  36
ATOM     36  C   UNL     1       2.001  -5.590  24.866  0.00  0.00    +0.067 C 
BRANCH  36  37
ATOM     37  C   UNL     1       2.156  -4.437  25.854  0.00  0.00    +0.159 C 
BRANCH  37  38
ATOM     38  O   UNL     1       1.947  -3.200  25.180  0.00  0.00    -0.395 OA
ATOM     39  H   UNL     1       1.462  -2.615  25.789  0.00  0.00    +0.209 HD
ENDBRANCH  37  38
ENDBRANCH  36  37
ENDBRANCH   2  36
TORSDOF 15
ENDMDL
MODEL 7
REMARK VINA RESULT:      -6.4      2.099      4.176
REMARK  Name = 
REMARK  15 active torsions:
REMARK  status: ('A' for Active; 'I' for Inactive)
REMARK    1  A    between atoms: C_4  and  O_11
REMARK    2  A    between atoms: C_6  and  C_7
REMARK    3  A    between atoms: C_6  and  O_10
REMARK    4  A    between atoms: C_7  and  C_8
REMARK    5  A    between atoms: C_8  and  O_9
REMARK    6  A    between atoms: C_14  and  O_31
REMARK    7  A    between atoms: C_15  and  C_17
REMARK    8  A    between atoms: C_19  and  C_27
REMARK    9  A    between atoms: C_19  and  O_30
REMARK   10  A    between atoms: C_20  and  C_23
REMARK   11  A    between atoms: C_20  and  O_26
REMARK   12  A    between atoms: C_23  and  C_24
REMARK   13  A    between atoms: C_24  and  O_25
REMARK   14  A    between atoms: C_27  and  C_28
REMARK   15  A    between atoms: C_28  and  O_29
REMARK                            x       y       z     vdW  Elec       q    Type
REMARK                         _______ _______ _______ _____ _____    ______ ____
ROOT
ATOM      1  C   UNL     1       9.356   0.733  23.156  0.00  0.00    +0.114 C 
ATOM      2  C   UNL     1       9.643   2.219  22.773  0.00  0.00    +0.097 C 
ATOM      3  C   UNL     1       8.405   3.077  22.748  0.00  0.00    +0.054 C 
ATOM      4  C   UNL     1       7.234   2.698  23.276  0.00  0.00    +0.130 C 
ATOM      5  C   UNL     1       7.068   1.395  23.888  0.00  0.00    +0.105 A 
ATOM      6  C   UNL     1       5.805   1.005  24.544  0.00  0.00    +0.238 A 
ATOM      7  C   UNL     1       5.677  -0.374  25.060  0.00  0.00    +0.208 A 
ATOM      8  C   UNL     1       6.748  -1.192  25.002  0.00  0.00    +0.180 A 
ATOM      9  O   UNL     1       7.941  -0.792  24.411  0.00  0.00    -0.455 OA
ATOM     10  O   UNL     1       4.852   1.780  24.652  0.00  0.00    -0.283 OA
ATOM     11  C   UNL     1       8.043   0.472  23.847  0.00  0.00    +0.123 A 
ENDROOT
BRANCH   8  12
ATOM     12  C   UNL     1       6.763  -2.590  25.490  0.00  0.00    +0.020 C 
ATOM     13  C   UNL     1       6.733  -2.944  26.909  0.00  0.00    +0.010 C 
ATOM     14  C   UNL     1       6.623  -4.210  27.347  0.00  0.00    +0.011 C 
ATOM     15  C   UNL     1       6.568  -5.427  26.437  0.00  0.00    +0.119 C 
ATOM     16  C   UNL     1       7.062  -5.067  24.960  0.00  0.00    +0.119 C 
ATOM     17  C   UNL     1       6.814  -3.615  24.613  0.00  0.00    +0.022 C 
BRANCH  15  18
ATOM     18  O   UNL     1       7.410  -6.387  27.084  0.00  0.00    -0.381 OA
ATOM     19  H   UNL     1       6.861  -6.889  27.713  0.00  0.00    +0.211 HD
ENDBRANCH  15  18
BRANCH  16  20
ATOM     20  O   UNL     1       6.372  -5.798  23.940  0.00  0.00    -0.381 OA
ATOM     21  H   UNL     1       5.754  -6.413  24.379  0.00  0.00    +0.211 HD
ENDBRANCH  16  20
BRANCH  15  22
ATOM     22  C   UNL     1       5.137  -6.018  26.501  0.00  0.00    +0.070 C 
BRANCH  22  23
ATOM     23  C   UNL     1       4.625  -6.389  27.896  0.00  0.00    +0.159 C 
BRANCH  23  24
ATOM     24  O   UNL     1       5.318  -7.551  28.349  0.00  0.00    -0.395 OA
ATOM     25  H   UNL     1       4.913  -7.807  29.195  0.00  0.00    +0.209 HD
ENDBRANCH  23  24
ENDBRANCH  22  23
ENDBRANCH  15  22
BRANCH  16  26
ATOM     26  C   UNL     1       8.574  -5.295  24.693  0.00  0.00    +0.070 C 
BRANCH  26  27
ATOM     27  C   UNL     1       9.547  -4.346  25.388  0.00  0.00    +0.159 C 
BRANCH  27  28
ATOM     28  O   UNL     1       9.954  -4.929  26.629  0.00  0.00    -0.395 OA
ATOM     29  H   UNL     1       9.147  -5.243  27.072  0.00  0.00    +0.209 HD
ENDBRANCH  27  28
ENDBRANCH  26  27
ENDBRANCH  16  26
ENDBRANCH   8  12
BRANCH   2  30
ATOM     30  O   UNL     1      10.180   2.240  21.446  0.00  0.00    -0.384 OA
ATOM     31  H   UNL     1       9.820   1.467  20.970  0.00  0.00    +0.211 HD
ENDBRANCH   2  30
BRANCH   4  32
ATOM     32  O   UNL     1       6.171   3.576  23.266  0.00  0.00    -0.506 OA
ATOM     33  H   UNL     1       5.370   3.117  22.927  0.00  0.00    +0.292 HD
ENDBRANCH   4  32
BRANCH   7  34
ATOM     34  O   UNL     1       4.436  -0.723  25.563  0.00  0.00    -0.501 OA
ATOM     35  H   UNL     1       4.564  -0.833  26.530  0.00  0.00    +0.292 HD
ENDBRANCH   7  34
BRANCH   2  36
ATOM     36  C   UNL     1      10.665   2.900  23.703  0.00  0.00    +0.067 C 
BRANCH  36  37
ATOM     37  C   UNL     1      10.826   4.403  23.489  0.00  0.00    +0.159 C 
BRANCH  37  38
ATOM     38  O   UNL     1      11.868   4.643  22.549  0.00  0.00    -0.395 OA
ATOM     39  H   UNL     1      11.548   4.348  21.678  0.00  0.00    +0.209 HD
ENDBRANCH  37  38
ENDBRANCH  36  37
ENDBRANCH   2  36
TORSDOF 15
ENDMDL
MODEL 8
REMARK VINA RESULT:      -6.4      2.232      4.511
REMARK  Name = 
REMARK  15 active torsions:
REMARK  status: ('A' for Active; 'I' for Inactive)
REMARK    1  A    between atoms: C_4  and  O_11
REMARK    2  A    between atoms: C_6  and  C_7
REMARK    3  A    between atoms: C_6  and  O_10
REMARK    4  A    between atoms: C_7  and  C_8
REMARK    5  A    between atoms: C_8  and  O_9
REMARK    6  A    between atoms: C_14  and  O_31
REMARK    7  A    between atoms: C_15  and  C_17
REMARK    8  A    between atoms: C_19  and  C_27
REMARK    9  A    between atoms: C_19  and  O_30
REMARK   10  A    between atoms: C_20  and  C_23
REMARK   11  A    between atoms: C_20  and  O_26
REMARK   12  A    between atoms: C_23  and  C_24
REMARK   13  A    between atoms: C_24  and  O_25
REMARK   14  A    between atoms: C_27  and  C_28
REMARK   15  A    between atoms: C_28  and  O_29
REMARK                            x       y       z     vdW  Elec       q    Type
REMARK                         _______ _______ _______ _____ _____    ______ ____
ROOT
ATOM      1  C   UNL     1       9.317   3.978  23.676  0.00  0.00    +0.114 C 
ATOM      2  C   UNL     1       9.390   5.527  23.851  0.00  0.00    +0.097 C 
ATOM      3  C   UNL     1       8.374   6.065  24.825  0.00  0.00    +0.054 C 
ATOM      4  C   UNL     1       7.681   5.291  25.670  0.00  0.00    +0.130 C 
ATOM      5  C   UNL     1       7.842   3.851  25.681  0.00  0.00    +0.105 A 
ATOM      6  C   UNL     1       7.143   3.004  26.665  0.00  0.00    +0.238 A 
ATOM      7  C   UNL     1       7.280   1.536  26.553  0.00  0.00    +0.208 A 
ATOM      8  C   UNL     1       8.112   1.031  25.620  0.00  0.00    +0.180 A 
ATOM      9  O   UNL     1       8.789   1.850  24.723  0.00  0.00    -0.455 OA
ATOM     10  O   UNL     1       6.435   3.476  27.558  0.00  0.00    -0.283 OA
ATOM     11  C   UNL     1       8.600   3.224  24.766  0.00  0.00    +0.123 A 
ENDROOT
BRANCH   8  12
ATOM     12  C   UNL     1       8.352  -0.415  25.404  0.00  0.00    +0.020 C 
ATOM     13  C   UNL     1       8.763  -1.328  26.470  0.00  0.00    +0.010 C 
ATOM     14  C   UNL     1       8.861  -2.657  26.302  0.00  0.00    +0.011 C 
ATOM     15  C   UNL     1       8.609  -3.371  24.983  0.00  0.00    +0.119 C 
ATOM     16  C   UNL     1       8.623  -2.344  23.758  0.00  0.00    +0.119 C 
ATOM     17  C   UNL     1       8.200  -0.952  24.175  0.00  0.00    +0.022 C 
BRANCH  15  18
ATOM     18  O   UNL     1       9.659  -4.342  24.904  0.00  0.00    -0.381 OA
ATOM     19  H   UNL     1       9.620  -4.753  24.022  0.00  0.00    +0.211 HD
ENDBRANCH  15  18
BRANCH  16  20
ATOM     20  O   UNL     1       7.706  -2.696  22.716  0.00  0.00    -0.381 OA
ATOM     21  H   UNL     1       7.735  -1.992  22.041  0.00  0.00    +0.211 HD
ENDBRANCH  16  20
BRANCH  15  22
ATOM     22  C   UNL     1       7.298  -4.186  25.113  0.00  0.00    +0.070 C 
BRANCH  22  23
ATOM     23  C   UNL     1       7.046  -4.841  26.474  0.00  0.00    +0.159 C 
BRANCH  23  24
ATOM     24  O   UNL     1       7.958  -5.925  26.641  0.00  0.00    -0.395 OA
ATOM     25  H   UNL     1       8.387  -6.067  25.780  0.00  0.00    +0.209 HD
ENDBRANCH  23  24
ENDBRANCH  22  23
ENDBRANCH  15  22
BRANCH  16  26
ATOM     26  C   UNL     1       9.999  -2.159  23.064  0.00  0.00    +0.070 C 
BRANCH  26  27
ATOM     27  C   UNL     1      10.201  -0.873  22.267  0.00  0.00    +0.159 C 
BRANCH  27  28
ATOM     28  O   UNL     1       9.591  -1.025  20.982  0.00  0.00    -0.395 OA
ATOM     29  H   UNL     1       8.701  -1.388  21.132  0.00  0.00    +0.209 HD
ENDBRANCH  27  28
ENDBRANCH  26  27
ENDBRANCH  16  26
ENDBRANCH   8  12
BRANCH   2  30
ATOM     30  O   UNL     1       9.101   6.131  22.585  0.00  0.00    -0.384 OA
ATOM     31  H   UNL     1       8.627   6.967  22.759  0.00  0.00    +0.211 HD
ENDBRANCH   2  30
BRANCH   4  32
ATOM     32  O   UNL     1       6.819   5.878  26.573  0.00  0.00    -0.506 OA
ATOM     33  H   UNL     1       6.497   5.199  27.207  0.00  0.00    +0.292 HD
ENDBRANCH   4  32
BRANCH   7  34
ATOM     34  O   UNL     1       6.515   0.785  27.429  0.00  0.00    -0.501 OA
ATOM     35  H   UNL     1       6.895  -0.120  27.401  0.00  0.00    +0.292 HD
ENDBRANCH   7  34
BRANCH   2  36
ATOM     36  C   UNL     1      10.777   6.024  24.301  0.00  0.00    +0.067 C 
BRANCH  36  37
ATOM     37  C   UNL     1      11.957   5.260  23.706  0.00  0.00    +0.159 C 
BRANCH  37  38
ATOM     38  O   UNL     1      12.053   5.541  22.313  0.00  0.00    -0.395 OA
ATOM     39  H   UNL     1      11.485   6.311  22.131  0.00  0.00    +0.209 HD
ENDBRANCH  37  38
ENDBRANCH  36  37
ENDBRANCH   2  36
TORSDOF 15
ENDMDL
MODEL 9
REMARK VINA RESULT:      -6.2      1.902      8.239
REMARK  Name = 
REMARK  15 active torsions:
REMARK  status: ('A' for Active; 'I' for Inactive)
REMARK    1  A    between atoms: C_4  and  O_11
REMARK    2  A    between atoms: C_6  and  C_7
REMARK    3  A    between atoms: C_6  and  O_10
REMARK    4  A    between atoms: C_7  and  C_8
REMARK    5  A    between atoms: C_8  and  O_9
REMARK    6  A    between atoms: C_14  and  O_31
REMARK    7  A    between atoms: C_15  and  C_17
REMARK    8  A    between atoms: C_19  and  C_27
REMARK    9  A    between atoms: C_19  and  O_30
REMARK   10  A    between atoms: C_20  and  C_23
REMARK   11  A    between atoms: C_20  and  O_26
REMARK   12  A    between atoms: C_23  and  C_24
REMARK   13  A    between atoms: C_24  and  O_25
REMARK   14  A    between atoms: C_27  and  C_28
REMARK   15  A    between atoms: C_28  and  O_29
REMARK                            x       y       z     vdW  Elec       q    Type
REMARK                         _______ _______ _______ _____ _____    ______ ____
ROOT
ATOM      1  C   UNL     1       8.196  -3.420  23.576  0.00  0.00    +0.114 C 
ATOM      2  C   UNL     1       7.877  -4.943  23.694  0.00  0.00    +0.097 C 
ATOM      3  C   UNL     1       6.809  -5.251  24.712  0.00  0.00    +0.054 C 
ATOM      4  C   UNL     1       6.011  -4.318  25.247  0.00  0.00    +0.130 C 
ATOM      5  C   UNL     1       6.147  -2.917  24.902  0.00  0.00    +0.105 A 
ATOM      6  C   UNL     1       5.217  -1.899  25.425  0.00  0.00    +0.238 A 
ATOM      7  C   UNL     1       5.477  -0.479  25.107  0.00  0.00    +0.208 A 
ATOM      8  C   UNL     1       6.492  -0.175  24.273  0.00  0.00    +0.180 A 
ATOM      9  O   UNL     1       7.336  -1.155  23.762  0.00  0.00    -0.455 OA
ATOM     10  O   UNL     1       4.251  -2.191  26.134  0.00  0.00    -0.283 OA
ATOM     11  C   UNL     1       7.152  -2.482  24.124  0.00  0.00    +0.123 A 
ENDROOT
BRANCH   8  12
ATOM     12  C   UNL     1       6.857   1.200  23.862  0.00  0.00    +0.020 C 
ATOM     13  C   UNL     1       6.411   1.807  22.608  0.00  0.00    +0.010 C 
ATOM     14  C   UNL     1       6.640   3.093  22.293  0.00  0.00    +0.011 C 
ATOM     15  C   UNL     1       7.426   4.059  23.166  0.00  0.00    +0.119 C 
ATOM     16  C   UNL     1       8.280   3.278  24.269  0.00  0.00    +0.119 C 
ATOM     17  C   UNL     1       7.645   1.959  24.653  0.00  0.00    +0.022 C 
BRANCH  15  18
ATOM     18  O   UNL     1       8.246   4.780  22.239  0.00  0.00    -0.381 OA
ATOM     19  H   UNL     1       9.135   4.862  22.628  0.00  0.00    +0.211 HD
ENDBRANCH  15  18
BRANCH  16  20
ATOM     20  O   UNL     1       8.392   3.991  25.505  0.00  0.00    -0.381 OA
ATOM     21  H   UNL     1       7.547   4.455  25.660  0.00  0.00    +0.211 HD
ENDBRANCH  16  20
BRANCH  15  22
ATOM     22  C   UNL     1       6.441   5.103  23.748  0.00  0.00    +0.070 C 
BRANCH  22  23
ATOM     23  C   UNL     1       5.295   5.532  22.826  0.00  0.00    +0.159 C 
BRANCH  23  24
ATOM     24  O   UNL     1       5.815   6.386  21.810  0.00  0.00    -0.395 OA
ATOM     25  H   UNL     1       5.072   6.924  21.487  0.00  0.00    +0.209 HD
ENDBRANCH  23  24
ENDBRANCH  22  23
ENDBRANCH  15  22
BRANCH  16  26
ATOM     26  C   UNL     1       9.733   2.921  23.854  0.00  0.00    +0.070 C 
BRANCH  26  27
ATOM     27  C   UNL     1       9.907   1.745  22.897  0.00  0.00    +0.159 C 
BRANCH  27  28
ATOM     28  O   UNL     1      10.013   2.246  21.562  0.00  0.00    -0.395 OA
ATOM     29  H   UNL     1       9.366   1.759  21.024  0.00  0.00    +0.209 HD
ENDBRANCH  27  28
ENDBRANCH  26  27
ENDBRANCH  16  26
ENDBRANCH   8  12
BRANCH   2  30
ATOM     30  O   UNL     1       9.063  -5.613  24.133  0.00  0.00    -0.384 OA
ATOM     31  H   UNL     1       9.263  -5.298  25.035  0.00  0.00    +0.211 HD
ENDBRANCH   2  30
BRANCH   4  32
ATOM     32  O   UNL     1       5.016  -4.700  26.123  0.00  0.00    -0.506 OA
ATOM     33  H   UNL     1       5.210  -5.601  26.466  0.00  0.00    +0.292 HD
ENDBRANCH   4  32
BRANCH   7  34
ATOM     34  O   UNL     1       4.643   0.443  25.715  0.00  0.00    -0.501 OA
ATOM     35  H   UNL     1       4.895   1.315  25.340  0.00  0.00    +0.292 HD
ENDBRANCH   7  34
BRANCH   2  36
ATOM     36  C   UNL     1       7.446  -5.579  22.358  0.00  0.00    +0.067 C 
BRANCH  36  37
ATOM     37  C   UNL     1       5.945  -5.541  22.083  0.00  0.00    +0.159 C 
BRANCH  37  38
ATOM     38  O   UNL     1       5.623  -4.356  21.361  0.00  0.00    -0.395 OA
ATOM     39  H   UNL     1       6.447  -3.848  21.252  0.00  0.00    +0.209 HD
ENDBRANCH  37  38
ENDBRANCH  36  37
ENDBRANCH   2  36
TORSDOF 15
ENDMDL
