MODEL 1
REMARK VINA RESULT:      -6.8      0.000      0.000
REMARK  Name = 
REMARK  13 active torsions:
REMARK  status: ('A' for Active; 'I' for Inactive)
REMARK    1  A    between atoms: C_1  and  C_2
REMARK    2  A    between atoms: C_4  and  O_37
REMARK    3  A    between atoms: C_6  and  O_36
REMARK    4  A    between atoms: C_8  and  O_35
REMARK    5  A    between atoms: C_10  and  O_13
REMARK    6  A    between atoms: O_13  and  C_14
REMARK    7  A    between atoms: C_15  and  C_27
REMARK    8  A    between atoms: C_19  and  O_26
REMARK    9  A    between atoms: C_21  and  O_25
REMARK   10  A    between atoms: C_29  and  O_34
REMARK   11  A    between atoms: C_30  and  O_33
REMARK   12  A    between atoms: O_37  and  C_38
REMARK   13  A    between atoms: C_38  and  C_40
REMARK                            x       y       z     vdW  Elec       q    Type
REMARK                         _______ _______ _______ _____ _____    ______ ____
ROOT
ATOM      1  C   UNL     1       7.315  -2.649  24.644  0.00  0.00    +0.214 A 
ATOM      2  C   UNL     1       8.471  -2.395  23.724  0.00  0.00    +0.238 A 
ATOM      3  O   UNL     1       9.292  -3.276  23.476  0.00  0.00    -0.283 OA
ATOM      4  C   UNL     1       8.605  -1.051  23.155  0.00  0.00    +0.109 A 
ATOM      5  C   UNL     1       7.775  -0.051  23.653  0.00  0.00    +0.147 A 
ATOM      6  C   UNL     1       7.922   1.265  23.201  0.00  0.00    +0.092 A 
ATOM      7  C   UNL     1       8.892   1.558  22.244  0.00  0.00    +0.124 A 
ATOM      8  C   UNL     1       9.705   0.564  21.718  0.00  0.00    +0.091 A 
ATOM      9  O   UNL     1       6.803  -0.283  24.593  0.00  0.00    -0.451 OA
ATOM     10  C   UNL     1       9.557  -0.745  22.169  0.00  0.00    +0.135 A 
ATOM     11  C   UNL     1       6.571  -1.588  25.033  0.00  0.00    +0.181 A 
ENDROOT
BRANCH  11  12
ATOM     12  C   UNL     1       5.441  -1.674  26.017  0.00  0.00    +0.025 A 
ATOM     13  C   UNL     1       5.618  -1.194  27.334  0.00  0.00    +0.015 A 
ATOM     14  C   UNL     1       4.585  -1.253  28.283  0.00  0.00    +0.050 A 
ATOM     15  C   UNL     1       3.368  -1.806  27.929  0.00  0.00    +0.158 A 
ATOM     16  C   UNL     1       3.163  -2.279  26.640  0.00  0.00    +0.159 A 
ATOM     17  C   UNL     1       4.176  -2.199  25.687  0.00  0.00    +0.060 A 
BRANCH  15  18
ATOM     18  O   UNL     1       2.364  -1.873  28.853  0.00  0.00    -0.503 OA
ATOM     19  H   UNL     1       1.558  -2.048  28.325  0.00  0.00    +0.292 HD
ENDBRANCH  15  18
BRANCH  16  20
ATOM     20  O   UNL     1       1.942  -2.828  26.354  0.00  0.00    -0.503 OA
ATOM     21  H   UNL     1       2.052  -3.435  25.601  0.00  0.00    +0.292 HD
ENDBRANCH  16  20
ENDBRANCH  11  12
BRANCH   7  22
ATOM     22  O   UNL     1       9.077   2.819  21.782  0.00  0.00    -0.507 OA
ATOM     23  H   UNL     1       8.584   3.451  22.328  0.00  0.00    +0.292 HD
ENDBRANCH   7  22
BRANCH  10  24
ATOM     24  O   UNL     1      10.343  -1.720  21.624  0.00  0.00    -0.506 OA
ATOM     25  H   UNL     1      11.254  -1.400  21.519  0.00  0.00    +0.292 HD
ENDBRANCH  10  24
BRANCH   1  26
ATOM     26  O   UNL     1       7.090  -3.922  25.153  0.00  0.00    -0.453 OA
BRANCH  26  30
ATOM     27  C   UNL     1       5.924  -5.896  21.471  0.00  0.00    +0.042 C 
ATOM     28  C   UNL     1       5.029  -4.990  22.322  0.00  0.00    +0.163 C 
ATOM     29  O   UNL     1       5.803  -4.150  23.209  0.00  0.00    -0.333 OA
ATOM     30  C   UNL     1       6.397  -4.858  24.313  0.00  0.00    +0.340 C 
ATOM     31  C   UNL     1       5.307  -5.551  25.165  0.00  0.00    +0.215 C 
ATOM     32  C   UNL     1       4.481  -6.502  24.289  0.00  0.00    +0.192 C 
ATOM     33  C   UNL     1       3.916  -5.745  23.085  0.00  0.00    +0.236 C 
BRANCH  31  34
ATOM     34  O   UNL     1       5.787  -6.272  26.305  0.00  0.00    -0.383 OA
ATOM     35  H   UNL     1       6.764  -6.344  26.241  0.00  0.00    +0.210 HD
ENDBRANCH  31  34
BRANCH  32  36
ATOM     36  O   UNL     1       5.224  -7.641  23.832  0.00  0.00    -0.385 OA
ATOM     37  H   UNL     1       4.707  -8.130  23.167  0.00  0.00    +0.210 HD
ENDBRANCH  32  36
BRANCH  33  38
ATOM     38  O   UNL     1       2.961  -4.790  23.611  0.00  0.00    -0.456 OA
BRANCH  38  39
ATOM     39  C   UNL     1       1.727  -5.275  23.900  0.00  0.00    +0.304 C 
ATOM     40  C   UNL     1       1.106  -5.896  22.685  0.00  0.00    +0.136 C 
ATOM     41  O   UNL     1       1.197  -5.242  25.002  0.00  0.00    -0.251 OA
ENDBRANCH  38  39
ENDBRANCH  33  38
ENDBRANCH  26  30
ENDBRANCH   1  26
TORSDOF 11
ENDMDL
MODEL 2
REMARK VINA RESULT:      -6.7      2.198      7.497
REMARK  Name = 
REMARK  13 active torsions:
REMARK  status: ('A' for Active; 'I' for Inactive)
REMARK    1  A    between atoms: C_1  and  C_2
REMARK    2  A    between atoms: C_4  and  O_37
REMARK    3  A    between atoms: C_6  and  O_36
REMARK    4  A    between atoms: C_8  and  O_35
REMARK    5  A    between atoms: C_10  and  O_13
REMARK    6  A    between atoms: O_13  and  C_14
REMARK    7  A    between atoms: C_15  and  C_27
REMARK    8  A    between atoms: C_19  and  O_26
REMARK    9  A    between atoms: C_21  and  O_25
REMARK   10  A    between atoms: C_29  and  O_34
REMARK   11  A    between atoms: C_30  and  O_33
REMARK   12  A    between atoms: O_37  and  C_38
REMARK   13  A    between atoms: C_38  and  C_40
REMARK                            x       y       z     vdW  Elec       q    Type
REMARK                         _______ _______ _______ _____ _____    ______ ____
ROOT
ATOM      1  C   UNL     1       7.135  -3.323  25.835  0.00  0.00    +0.214 A 
ATOM      2  C   UNL     1       6.506  -4.448  26.600  0.00  0.00    +0.238 A 
ATOM      3  O   UNL     1       6.766  -4.635  27.786  0.00  0.00    -0.283 OA
ATOM      4  C   UNL     1       5.592  -5.337  25.875  0.00  0.00    +0.109 A 
ATOM      5  C   UNL     1       5.520  -5.203  24.491  0.00  0.00    +0.147 A 
ATOM      6  C   UNL     1       4.726  -6.082  23.747  0.00  0.00    +0.092 A 
ATOM      7  C   UNL     1       4.003  -7.077  24.403  0.00  0.00    +0.124 A 
ATOM      8  C   UNL     1       4.045  -7.202  25.785  0.00  0.00    +0.091 A 
ATOM      9  O   UNL     1       6.207  -4.241  23.795  0.00  0.00    -0.451 OA
ATOM     10  C   UNL     1       4.835  -6.326  26.523  0.00  0.00    +0.135 A 
ATOM     11  C   UNL     1       6.965  -3.298  24.493  0.00  0.00    +0.181 A 
ENDROOT
BRANCH  11  12
ATOM     12  C   UNL     1       7.606  -2.287  23.588  0.00  0.00    +0.025 A 
ATOM     13  C   UNL     1       6.899  -1.120  23.224  0.00  0.00    +0.015 A 
ATOM     14  C   UNL     1       7.464  -0.148  22.384  0.00  0.00    +0.050 A 
ATOM     15  C   UNL     1       8.739  -0.340  21.886  0.00  0.00    +0.158 A 
ATOM     16  C   UNL     1       9.462  -1.474  22.232  0.00  0.00    +0.159 A 
ATOM     17  C   UNL     1       8.915  -2.428  23.087  0.00  0.00    +0.060 A 
BRANCH  15  18
ATOM     18  O   UNL     1       9.290   0.599  21.061  0.00  0.00    -0.503 OA
ATOM     19  H   UNL     1      10.013   0.995  21.589  0.00  0.00    +0.292 HD
ENDBRANCH  15  18
BRANCH  16  20
ATOM     20  O   UNL     1      10.715  -1.614  21.697  0.00  0.00    -0.503 OA
ATOM     21  H   UNL     1      11.187  -0.770  21.810  0.00  0.00    +0.292 HD
ENDBRANCH  16  20
ENDBRANCH  11  12
BRANCH   7  22
ATOM     22  O   UNL     1       3.227  -7.956  23.724  0.00  0.00    -0.507 OA
ATOM     23  H   UNL     1       2.290  -7.727  23.829  0.00  0.00    +0.292 HD
ENDBRANCH   7  22
BRANCH  10  24
ATOM     24  O   UNL     1       4.845  -6.439  27.885  0.00  0.00    -0.506 OA
ATOM     25  H   UNL     1       5.686  -6.820  28.185  0.00  0.00    +0.292 HD
ENDBRANCH  10  24
BRANCH   1  26
ATOM     26  O   UNL     1       7.948  -2.402  26.483  0.00  0.00    -0.453 OA
BRANCH  26  30
ATOM     27  C   UNL     1       5.109  -0.008  28.726  0.00  0.00    +0.042 C 
ATOM     28  C   UNL     1       5.177  -0.119  27.200  0.00  0.00    +0.163 C 
ATOM     29  O   UNL     1       5.904  -1.296  26.778  0.00  0.00    -0.333 OA
ATOM     30  C   UNL     1       7.326  -1.210  26.988  0.00  0.00    +0.340 C 
ATOM     31  C   UNL     1       7.916  -0.001  26.223  0.00  0.00    +0.215 C 
ATOM     32  C   UNL     1       7.221   1.293  26.668  0.00  0.00    +0.192 C 
ATOM     33  C   UNL     1       5.706   1.154  26.501  0.00  0.00    +0.236 C 
BRANCH  31  34
ATOM     34  O   UNL     1       9.333   0.169  26.347  0.00  0.00    -0.383 OA
ATOM     35  H   UNL     1       9.570   0.134  27.299  0.00  0.00    +0.210 HD
ENDBRANCH  31  34
BRANCH  32  36
ATOM     36  O   UNL     1       7.521   1.662  28.021  0.00  0.00    -0.385 OA
ATOM     37  H   UNL     1       8.473   1.543  28.195  0.00  0.00    +0.210 HD
ENDBRANCH  32  36
BRANCH  33  38
ATOM     38  O   UNL     1       5.455   1.061  25.077  0.00  0.00    -0.456 OA
BRANCH  38  39
ATOM     39  C   UNL     1       4.860   2.136  24.501  0.00  0.00    +0.304 C 
ATOM     40  C   UNL     1       5.852   2.918  23.694  0.00  0.00    +0.136 C 
ATOM     41  O   UNL     1       3.675   2.421  24.596  0.00  0.00    -0.251 OA
ENDBRANCH  38  39
ENDBRANCH  33  38
ENDBRANCH  26  30
ENDBRANCH   1  26
TORSDOF 11
ENDMDL
MODEL 3
REMARK VINA RESULT:      -6.7      2.478      3.636
REMARK  Name = 
REMARK  13 active torsions:
REMARK  status: ('A' for Active; 'I' for Inactive)
REMARK    1  A    between atoms: C_1  and  C_2
REMARK    2  A    between atoms: C_4  and  O_37
REMARK    3  A    between atoms: C_6  and  O_36
REMARK    4  A    between atoms: C_8  and  O_35
REMARK    5  A    between atoms: C_10  and  O_13
REMARK    6  A    between atoms: O_13  and  C_14
REMARK    7  A    between atoms: C_15  and  C_27
REMARK    8  A    between atoms: C_19  and  O_26
REMARK    9  A    between atoms: C_21  and  O_25
REMARK   10  A    between atoms: C_29  and  O_34
REMARK   11  A    between atoms: C_30  and  O_33
REMARK   12  A    between atoms: O_37  and  C_38
REMARK   13  A    between atoms: C_38  and  C_40
REMARK                            x       y       z     vdW  Elec       q    Type
REMARK                         _______ _______ _______ _____ _____    ______ ____
ROOT
ATOM      1  C   UNL     1       6.932  -4.380  24.702  0.00  0.00    +0.214 A 
ATOM      2  C   UNL     1       7.701  -3.667  23.630  0.00  0.00    +0.238 A 
ATOM      3  O   UNL     1       7.762  -4.114  22.487  0.00  0.00    -0.283 OA
ATOM      4  C   UNL     1       8.402  -2.434  24.001  0.00  0.00    +0.109 A 
ATOM      5  C   UNL     1       8.474  -2.112  25.353  0.00  0.00    +0.147 A 
ATOM      6  C   UNL     1       9.203  -0.990  25.764  0.00  0.00    +0.092 A 
ATOM      7  C   UNL     1       9.840  -0.198  24.810  0.00  0.00    +0.124 A 
ATOM      8  C   UNL     1       9.750  -0.493  23.457  0.00  0.00    +0.091 A 
ATOM      9  O   UNL     1       7.865  -2.853  26.334  0.00  0.00    -0.451 OA
ATOM     10  C   UNL     1       9.024  -1.609  23.050  0.00  0.00    +0.135 A 
ATOM     11  C   UNL     1       7.074  -3.947  25.976  0.00  0.00    +0.181 A 
ENDROOT
BRANCH  11  12
ATOM     12  C   UNL     1       6.439  -4.614  27.161  0.00  0.00    +0.025 A 
ATOM     13  C   UNL     1       5.359  -3.991  27.824  0.00  0.00    +0.015 A 
ATOM     14  C   UNL     1       4.735  -4.584  28.933  0.00  0.00    +0.050 A 
ATOM     15  C   UNL     1       5.195  -5.801  29.400  0.00  0.00    +0.158 A 
ATOM     16  C   UNL     1       6.250  -6.441  28.764  0.00  0.00    +0.159 A 
ATOM     17  C   UNL     1       6.855  -5.869  27.647  0.00  0.00    +0.060 A 
BRANCH  15  18
ATOM     18  O   UNL     1       4.596  -6.377  30.484  0.00  0.00    -0.503 OA
ATOM     19  H   UNL     1       4.507  -7.321  30.242  0.00  0.00    +0.292 HD
ENDBRANCH  15  18
BRANCH  16  20
ATOM     20  O   UNL     1       6.669  -7.638  29.281  0.00  0.00    -0.503 OA
ATOM     21  H   UNL     1       5.880  -8.177  29.472  0.00  0.00    +0.292 HD
ENDBRANCH  16  20
ENDBRANCH  11  12
BRANCH   7  22
ATOM     22  O   UNL     1      10.563   0.893  25.160  0.00  0.00    -0.507 OA
ATOM     23  H   UNL     1      10.824   1.390  24.369  0.00  0.00    +0.292 HD
ENDBRANCH   7  22
BRANCH  10  24
ATOM     24  O   UNL     1       8.918  -1.873  21.714  0.00  0.00    -0.506 OA
ATOM     25  H   UNL     1       9.559  -2.555  21.454  0.00  0.00    +0.292 HD
ENDBRANCH  10  24
BRANCH   1  26
ATOM     26  O   UNL     1       6.185  -5.510  24.395  0.00  0.00    -0.453 OA
BRANCH  26  30
ATOM     27  C   UNL     1       2.393  -5.698  26.494  0.00  0.00    +0.042 C 
ATOM     28  C   UNL     1       2.868  -6.676  25.415  0.00  0.00    +0.163 C 
ATOM     29  O   UNL     1       4.301  -6.623  25.234  0.00  0.00    -0.333 OA
ATOM     30  C   UNL     1       4.761  -5.429  24.572  0.00  0.00    +0.340 C 
ATOM     31  C   UNL     1       4.112  -5.299  23.173  0.00  0.00    +0.215 C 
ATOM     32  C   UNL     1       2.583  -5.294  23.302  0.00  0.00    +0.192 C 
ATOM     33  C   UNL     1       2.120  -6.536  24.069  0.00  0.00    +0.236 C 
BRANCH  31  34
ATOM     34  O   UNL     1       4.516  -4.152  22.416  0.00  0.00    -0.383 OA
ATOM     35  H   UNL     1       4.941  -3.509  23.024  0.00  0.00    +0.210 HD
ENDBRANCH  31  34
BRANCH  32  36
ATOM     36  O   UNL     1       2.071  -4.118  23.943  0.00  0.00    -0.385 OA
ATOM     37  H   UNL     1       2.757  -3.724  24.512  0.00  0.00    +0.210 HD
ENDBRANCH  32  36
BRANCH  33  38
ATOM     38  O   UNL     1       2.426  -7.676  23.228  0.00  0.00    -0.456 OA
BRANCH  38  39
ATOM     39  C   UNL     1       1.366  -8.296  22.651  0.00  0.00    +0.304 C 
ATOM     40  C   UNL     1       0.564  -9.036  23.679  0.00  0.00    +0.136 C 
ATOM     41  O   UNL     1       1.078  -8.241  21.464  0.00  0.00    -0.251 OA
ENDBRANCH  38  39
ENDBRANCH  33  38
ENDBRANCH  26  30
ENDBRANCH   1  26
TORSDOF 11
ENDMDL
MODEL 4
REMARK VINA RESULT:      -6.5      3.113      7.985
REMARK  Name = 
REMARK  13 active torsions:
REMARK  status: ('A' for Active; 'I' for Inactive)
REMARK    1  A    between atoms: C_1  and  C_2
REMARK    2  A    between atoms: C_4  and  O_37
REMARK    3  A    between atoms: C_6  and  O_36
REMARK    4  A    between atoms: C_8  and  O_35
REMARK    5  A    between atoms: C_10  and  O_13
REMARK    6  A    between atoms: O_13  and  C_14
REMARK    7  A    between atoms: C_15  and  C_27
REMARK    8  A    between atoms: C_19  and  O_26
REMARK    9  A    between atoms: C_21  and  O_25
REMARK   10  A    between atoms: C_29  and  O_34
REMARK   11  A    between atoms: C_30  and  O_33
REMARK   12  A    between atoms: O_37  and  C_38
REMARK   13  A    between atoms: C_38  and  C_40
REMARK                            x       y       z     vdW  Elec       q    Type
REMARK                         _______ _______ _______ _____ _____    ______ ____
ROOT
ATOM      1  C   UNL     1       6.206  -1.015  24.692  0.00  0.00    +0.214 A 
ATOM      2  C   UNL     1       5.188  -2.112  24.767  0.00  0.00    +0.238 A 
ATOM      3  O   UNL     1       4.271  -2.074  25.584  0.00  0.00    -0.283 OA
ATOM      4  C   UNL     1       5.341  -3.247  23.852  0.00  0.00    +0.109 A 
ATOM      5  C   UNL     1       6.519  -3.331  23.116  0.00  0.00    +0.147 A 
ATOM      6  C   UNL     1       6.748  -4.438  22.292  0.00  0.00    +0.092 A 
ATOM      7  C   UNL     1       5.784  -5.442  22.206  0.00  0.00    +0.124 A 
ATOM      8  C   UNL     1       4.593  -5.354  22.913  0.00  0.00    +0.091 A 
ATOM      9  O   UNL     1       7.500  -2.373  23.159  0.00  0.00    -0.451 OA
ATOM     10  C   UNL     1       4.367  -4.252  23.732  0.00  0.00    +0.135 A 
ATOM     11  C   UNL     1       7.297  -1.217  23.917  0.00  0.00    +0.181 A 
ENDROOT
BRANCH  11  12
ATOM     12  C   UNL     1       8.440  -0.250  23.813  0.00  0.00    +0.025 A 
ATOM     13  C   UNL     1       9.364  -0.137  24.876  0.00  0.00    +0.015 A 
ATOM     14  C   UNL     1      10.448   0.753  24.817  0.00  0.00    +0.050 A 
ATOM     15  C   UNL     1      10.612   1.550  23.699  0.00  0.00    +0.158 A 
ATOM     16  C   UNL     1       9.725   1.455  22.636  0.00  0.00    +0.159 A 
ATOM     17  C   UNL     1       8.662   0.555  22.679  0.00  0.00    +0.060 A 
BRANCH  15  18
ATOM     18  O   UNL     1      11.661   2.423  23.642  0.00  0.00    -0.503 OA
ATOM     19  H   UNL     1      12.447   1.853  23.509  0.00  0.00    +0.292 HD
ENDBRANCH  15  18
BRANCH  16  20
ATOM     20  O   UNL     1       9.933   2.279  21.562  0.00  0.00    -0.503 OA
ATOM     21  H   UNL     1      10.883   2.484  21.518  0.00  0.00    +0.292 HD
ENDBRANCH  16  20
ENDBRANCH  11  12
BRANCH   7  22
ATOM     22  O   UNL     1       5.964  -6.536  21.428  0.00  0.00    -0.507 OA
ATOM     23  H   UNL     1       6.586  -7.149  21.850  0.00  0.00    +0.292 HD
ENDBRANCH   7  22
BRANCH  10  24
ATOM     24  O   UNL     1       3.178  -4.162  24.400  0.00  0.00    -0.506 OA
ATOM     25  H   UNL     1       2.658  -4.971  24.270  0.00  0.00    +0.292 HD
ENDBRANCH  10  24
BRANCH   1  26
ATOM     26  O   UNL     1       6.073   0.122  25.479  0.00  0.00    -0.453 OA
BRANCH  26  30
ATOM     27  C   UNL     1       5.208   3.282  22.636  0.00  0.00    +0.042 C 
ATOM     28  C   UNL     1       5.714   3.481  24.067  0.00  0.00    +0.163 C 
ATOM     29  O   UNL     1       6.318   2.278  24.596  0.00  0.00    -0.333 OA
ATOM     30  C   UNL     1       5.371   1.240  24.911  0.00  0.00    +0.340 C 
ATOM     31  C   UNL     1       4.343   1.740  25.955  0.00  0.00    +0.215 C 
ATOM     32  C   UNL     1       3.626   2.989  25.429  0.00  0.00    +0.192 C 
ATOM     33  C   UNL     1       4.652   4.054  25.034  0.00  0.00    +0.236 C 
BRANCH  31  34
ATOM     34  O   UNL     1       3.363   0.777  26.357  0.00  0.00    -0.383 OA
ATOM     35  H   UNL     1       3.420   0.660  27.330  0.00  0.00    +0.210 HD
ENDBRANCH  31  34
BRANCH  32  36
ATOM     36  O   UNL     1       2.764   2.721  24.314  0.00  0.00    -0.385 OA
ATOM     37  H   UNL     1       3.135   3.114  23.504  0.00  0.00    +0.210 HD
ENDBRANCH  32  36
BRANCH  33  38
ATOM     38  O   UNL     1       5.297   4.477  26.260  0.00  0.00    -0.456 OA
BRANCH  38  39
ATOM     39  C   UNL     1       6.048   5.605  26.184  0.00  0.00    +0.304 C 
ATOM     40  C   UNL     1       7.424   5.360  26.726  0.00  0.00    +0.136 C 
ATOM     41  O   UNL     1       5.675   6.670  25.714  0.00  0.00    -0.251 OA
ENDBRANCH  38  39
ENDBRANCH  33  38
ENDBRANCH  26  30
ENDBRANCH   1  26
TORSDOF 11
ENDMDL
MODEL 5
REMARK VINA RESULT:      -6.4      2.333      7.169
REMARK  Name = 
REMARK  13 active torsions:
REMARK  status: ('A' for Active; 'I' for Inactive)
REMARK    1  A    between atoms: C_1  and  C_2
REMARK    2  A    between atoms: C_4  and  O_37
REMARK    3  A    between atoms: C_6  and  O_36
REMARK    4  A    between atoms: C_8  and  O_35
REMARK    5  A    between atoms: C_10  and  O_13
REMARK    6  A    between atoms: O_13  and  C_14
REMARK    7  A    between atoms: C_15  and  C_27
REMARK    8  A    between atoms: C_19  and  O_26
REMARK    9  A    between atoms: C_21  and  O_25
REMARK   10  A    between atoms: C_29  and  O_34
REMARK   11  A    between atoms: C_30  and  O_33
REMARK   12  A    between atoms: O_37  and  C_38
REMARK   13  A    between atoms: C_38  and  C_40
REMARK                            x       y       z     vdW  Elec       q    Type
REMARK                         _______ _______ _______ _____ _____    ______ ____
ROOT
ATOM      1  C   UNL     1       7.639  -2.245  25.357  0.00  0.00    +0.214 A 
ATOM      2  C   UNL     1       6.966  -3.579  25.471  0.00  0.00    +0.238 A 
ATOM      3  O   UNL     1       6.721  -4.076  26.568  0.00  0.00    -0.283 OA
ATOM      4  C   UNL     1       6.638  -4.285  24.229  0.00  0.00    +0.109 A 
ATOM      5  C   UNL     1       7.144  -3.770  23.039  0.00  0.00    +0.147 A 
ATOM      6  C   UNL     1       6.928  -4.453  21.837  0.00  0.00    +0.092 A 
ATOM      7  C   UNL     1       6.195  -5.639  21.843  0.00  0.00    +0.124 A 
ATOM      8  C   UNL     1       5.661  -6.146  23.020  0.00  0.00    +0.091 A 
ATOM      9  O   UNL     1       7.869  -2.607  22.974  0.00  0.00    -0.451 OA
ATOM     10  C   UNL     1       5.877  -5.464  24.214  0.00  0.00    +0.135 A 
ATOM     11  C   UNL     1       8.062  -1.853  24.133  0.00  0.00    +0.181 A 
ENDROOT
BRANCH  11  12
ATOM     12  C   UNL     1       8.828  -0.587  23.879  0.00  0.00    +0.025 A 
ATOM     13  C   UNL     1       9.866  -0.205  24.757  0.00  0.00    +0.015 A 
ATOM     14  C   UNL     1      10.608   0.969  24.552  0.00  0.00    +0.050 A 
ATOM     15  C   UNL     1      10.311   1.781  23.474  0.00  0.00    +0.158 A 
ATOM     16  C   UNL     1       9.301   1.427  22.589  0.00  0.00    +0.159 A 
ATOM     17  C   UNL     1       8.579   0.250  22.773  0.00  0.00    +0.060 A 
BRANCH  15  18
ATOM     18  O   UNL     1      11.026   2.928  23.277  0.00  0.00    -0.503 OA
ATOM     19  H   UNL     1      10.662   3.559  23.931  0.00  0.00    +0.292 HD
ENDBRANCH  15  18
BRANCH  16  20
ATOM     20  O   UNL     1       9.045   2.278  21.547  0.00  0.00    -0.503 OA
ATOM     21  H   UNL     1       9.081   1.764  20.722  0.00  0.00    +0.292 HD
ENDBRANCH  16  20
ENDBRANCH  11  12
BRANCH   7  22
ATOM     22  O   UNL     1       5.966  -6.339  20.706  0.00  0.00    -0.507 OA
ATOM     23  H   UNL     1       6.780  -6.400  20.181  0.00  0.00    +0.292 HD
ENDBRANCH   7  22
BRANCH  10  24
ATOM     24  O   UNL     1       5.321  -5.957  25.361  0.00  0.00    -0.506 OA
ATOM     25  H   UNL     1       5.921  -5.819  26.112  0.00  0.00    +0.292 HD
ENDBRANCH  10  24
BRANCH   1  26
ATOM     26  O   UNL     1       7.906  -1.493  26.495  0.00  0.00    -0.453 OA
BRANCH  26  30
ATOM     27  C   UNL     1       3.807  -0.306  27.271  0.00  0.00    +0.042 C 
ATOM     28  C   UNL     1       4.806   0.453  26.393  0.00  0.00    +0.163 C 
ATOM     29  O   UNL     1       5.904  -0.391  25.976  0.00  0.00    -0.333 OA
ATOM     30  C   UNL     1       6.833  -0.703  27.032  0.00  0.00    +0.340 C 
ATOM     31  C   UNL     1       7.441   0.593  27.621  0.00  0.00    +0.215 C 
ATOM     32  C   UNL     1       6.325   1.512  28.133  0.00  0.00    +0.192 C 
ATOM     33  C   UNL     1       5.312   1.774  27.016  0.00  0.00    +0.236 C 
BRANCH  31  34
ATOM     34  O   UNL     1       8.398   0.398  28.669  0.00  0.00    -0.383 OA
ATOM     35  H   UNL     1       8.442  -0.561  28.878  0.00  0.00    +0.210 HD
ENDBRANCH  31  34
BRANCH  32  36
ATOM     36  O   UNL     1       5.644   0.991  29.283  0.00  0.00    -0.385 OA
ATOM     37  H   UNL     1       5.744   1.603  30.034  0.00  0.00    +0.210 HD
ENDBRANCH  32  36
BRANCH  33  38
ATOM     38  O   UNL     1       6.005   2.548  26.006  0.00  0.00    -0.456 OA
BRANCH  38  39
ATOM     39  C   UNL     1       5.240   3.038  24.997  0.00  0.00    +0.304 C 
ATOM     40  C   UNL     1       5.812   2.652  23.666  0.00  0.00    +0.136 C 
ATOM     41  O   UNL     1       4.211   3.682  25.141  0.00  0.00    -0.251 OA
ENDBRANCH  38  39
ENDBRANCH  33  38
ENDBRANCH  26  30
ENDBRANCH   1  26
TORSDOF 11
ENDMDL
MODEL 6
REMARK VINA RESULT:      -6.4      2.749      7.781
REMARK  Name = 
REMARK  13 active torsions:
REMARK  status: ('A' for Active; 'I' for Inactive)
REMARK    1  A    between atoms: C_1  and  C_2
REMARK    2  A    between atoms: C_4  and  O_37
REMARK    3  A    between atoms: C_6  and  O_36
REMARK    4  A    between atoms: C_8  and  O_35
REMARK    5  A    between atoms: C_10  and  O_13
REMARK    6  A    between atoms: O_13  and  C_14
REMARK    7  A    between atoms: C_15  and  C_27
REMARK    8  A    between atoms: C_19  and  O_26
REMARK    9  A    between atoms: C_21  and  O_25
REMARK   10  A    between atoms: C_29  and  O_34
REMARK   11  A    between atoms: C_30  and  O_33
REMARK   12  A    between atoms: O_37  and  C_38
REMARK   13  A    between atoms: C_38  and  C_40
REMARK                            x       y       z     vdW  Elec       q    Type
REMARK                         _______ _______ _______ _____ _____    ______ ____
ROOT
ATOM      1  C   UNL     1       6.317  -0.499  24.876  0.00  0.00    +0.214 A 
ATOM      2  C   UNL     1       6.304  -1.733  24.025  0.00  0.00    +0.238 A 
ATOM      3  O   UNL     1       6.334  -1.661  22.799  0.00  0.00    -0.283 OA
ATOM      4  C   UNL     1       6.222  -3.029  24.707  0.00  0.00    +0.109 A 
ATOM      5  C   UNL     1       5.964  -3.025  26.075  0.00  0.00    +0.147 A 
ATOM      6  C   UNL     1       5.795  -4.236  26.754  0.00  0.00    +0.092 A 
ATOM      7  C   UNL     1       5.899  -5.437  26.054  0.00  0.00    +0.124 A 
ATOM      8  C   UNL     1       6.185  -5.453  24.696  0.00  0.00    +0.091 A 
ATOM      9  O   UNL     1       5.855  -1.875  26.814  0.00  0.00    -0.451 OA
ATOM     10  C   UNL     1       6.353  -4.247  24.022  0.00  0.00    +0.135 A 
ATOM     11  C   UNL     1       6.076  -0.640  26.200  0.00  0.00    +0.181 A 
ENDROOT
BRANCH  11  12
ATOM     12  C   UNL     1       5.971   0.510  27.158  0.00  0.00    +0.025 A 
ATOM     13  C   UNL     1       4.758   1.225  27.267  0.00  0.00    +0.015 A 
ATOM     14  C   UNL     1       4.617   2.305  28.153  0.00  0.00    +0.050 A 
ATOM     15  C   UNL     1       5.693   2.689  28.932  0.00  0.00    +0.158 A 
ATOM     16  C   UNL     1       6.895   2.000  28.852  0.00  0.00    +0.159 A 
ATOM     17  C   UNL     1       7.032   0.912  27.993  0.00  0.00    +0.060 A 
BRANCH  15  18
ATOM     18  O   UNL     1       5.562   3.744  29.789  0.00  0.00    -0.503 OA
ATOM     19  H   UNL     1       6.206   4.405  29.464  0.00  0.00    +0.292 HD
ENDBRANCH  15  18
BRANCH  16  20
ATOM     20  O   UNL     1       7.928   2.436  29.639  0.00  0.00    -0.503 OA
ATOM     21  H   UNL     1       8.526   2.968  29.084  0.00  0.00    +0.292 HD
ENDBRANCH  16  20
ENDBRANCH  11  12
BRANCH   7  22
ATOM     22  O   UNL     1       5.736  -6.635  26.667  0.00  0.00    -0.507 OA
ATOM     23  H   UNL     1       5.336  -6.511  27.542  0.00  0.00    +0.292 HD
ENDBRANCH   7  22
BRANCH  10  24
ATOM     24  O   UNL     1       6.663  -4.276  22.691  0.00  0.00    -0.506 OA
ATOM     25  H   UNL     1       5.918  -3.942  22.165  0.00  0.00    +0.292 HD
ENDBRANCH  10  24
BRANCH   1  26
ATOM     26  O   UNL     1       6.471   0.753  24.294  0.00  0.00    -0.453 OA
BRANCH  26  30
ATOM     27  C   UNL     1      10.785   0.572  23.880  0.00  0.00    +0.042 C 
ATOM     28  C   UNL     1       9.992   1.741  24.472  0.00  0.00    +0.163 C 
ATOM     29  O   UNL     1       8.663   1.339  24.877  0.00  0.00    -0.333 OA
ATOM     30  C   UNL     1       7.769   1.088  23.777  0.00  0.00    +0.340 C 
ATOM     31  C   UNL     1       7.623   2.352  22.896  0.00  0.00    +0.215 C 
ATOM     32  C   UNL     1       8.998   2.801  22.388  0.00  0.00    +0.192 C 
ATOM     33  C   UNL     1       9.954   2.994  23.568  0.00  0.00    +0.236 C 
BRANCH  31  34
ATOM     34  O   UNL     1       6.736   2.220  21.779  0.00  0.00    -0.383 OA
ATOM     35  H   UNL     1       6.853   3.000  21.193  0.00  0.00    +0.210 HD
ENDBRANCH  31  34
BRANCH  32  36
ATOM     36  O   UNL     1       9.581   1.888  21.447  0.00  0.00    -0.385 OA
ATOM     37  H   UNL     1       9.716   1.019  21.866  0.00  0.00    +0.210 HD
ENDBRANCH  32  36
BRANCH  33  38
ATOM     38  O   UNL     1       9.446   4.119  24.328  0.00  0.00    -0.456 OA
BRANCH  38  39
ATOM     39  C   UNL     1       9.714   5.351  23.826  0.00  0.00    +0.304 C 
ATOM     40  C   UNL     1      11.194   5.563  23.712  0.00  0.00    +0.136 C 
ATOM     41  O   UNL     1       8.875   6.171  23.483  0.00  0.00    -0.251 OA
ENDBRANCH  38  39
ENDBRANCH  33  38
ENDBRANCH  26  30
ENDBRANCH   1  26
TORSDOF 11
ENDMDL
MODEL 7
REMARK VINA RESULT:      -6.2      2.363      3.049
REMARK  Name = 
REMARK  13 active torsions:
REMARK  status: ('A' for Active; 'I' for Inactive)
REMARK    1  A    between atoms: C_1  and  C_2
REMARK    2  A    between atoms: C_4  and  O_37
REMARK    3  A    between atoms: C_6  and  O_36
REMARK    4  A    between atoms: C_8  and  O_35
REMARK    5  A    between atoms: C_10  and  O_13
REMARK    6  A    between atoms: O_13  and  C_14
REMARK    7  A    between atoms: C_15  and  C_27
REMARK    8  A    between atoms: C_19  and  O_26
REMARK    9  A    between atoms: C_21  and  O_25
REMARK   10  A    between atoms: C_29  and  O_34
REMARK   11  A    between atoms: C_30  and  O_33
REMARK   12  A    between atoms: O_37  and  C_38
REMARK   13  A    between atoms: C_38  and  C_40
REMARK                            x       y       z     vdW  Elec       q    Type
REMARK                         _______ _______ _______ _____ _____    ______ ____
ROOT
ATOM      1  C   UNL     1       8.067  -0.279  25.989  0.00  0.00    +0.214 A 
ATOM      2  C   UNL     1       9.282   0.191  25.249  0.00  0.00    +0.238 A 
ATOM      3  O   UNL     1      10.272  -0.527  25.130  0.00  0.00    -0.283 OA
ATOM      4  C   UNL     1       9.259   1.549  24.697  0.00  0.00    +0.109 A 
ATOM      5  C   UNL     1       8.203   2.379  25.061  0.00  0.00    +0.147 A 
ATOM      6  C   UNL     1       8.180   3.708  24.627  0.00  0.00    +0.092 A 
ATOM      7  C   UNL     1       9.213   4.186  23.821  0.00  0.00    +0.124 A 
ATOM      8  C   UNL     1      10.256   3.360  23.428  0.00  0.00    +0.091 A 
ATOM      9  O   UNL     1       7.159   1.962  25.848  0.00  0.00    -0.451 OA
ATOM     10  C   UNL     1      10.277   2.037  23.861  0.00  0.00    +0.135 A 
ATOM     11  C   UNL     1       7.099   0.628  26.257  0.00  0.00    +0.181 A 
ENDROOT
BRANCH  11  12
ATOM     12  C   UNL     1       5.870   0.325  27.064  0.00  0.00    +0.025 A 
ATOM     13  C   UNL     1       5.853   0.601  28.449  0.00  0.00    +0.015 A 
ATOM     14  C   UNL     1       4.723   0.337  29.239  0.00  0.00    +0.050 A 
ATOM     15  C   UNL     1       3.601  -0.219  28.653  0.00  0.00    +0.158 A 
ATOM     16  C   UNL     1       3.585  -0.494  27.292  0.00  0.00    +0.159 A 
ATOM     17  C   UNL     1       4.695  -0.209  26.500  0.00  0.00    +0.060 A 
BRANCH  15  18
ATOM     18  O   UNL     1       2.502  -0.486  29.420  0.00  0.00    -0.503 OA
ATOM     19  H   UNL     1       2.578  -1.438  29.633  0.00  0.00    +0.292 HD
ENDBRANCH  15  18
BRANCH  16  20
ATOM     20  O   UNL     1       2.450  -1.056  26.773  0.00  0.00    -0.503 OA
ATOM     21  H   UNL     1       2.551  -1.102  25.806  0.00  0.00    +0.292 HD
ENDBRANCH  16  20
ENDBRANCH  11  12
BRANCH   7  22
ATOM     22  O   UNL     1       9.238   5.468  23.383  0.00  0.00    -0.507 OA
ATOM     23  H   UNL     1      10.136   5.711  23.109  0.00  0.00    +0.292 HD
ENDBRANCH   7  22
BRANCH  10  24
ATOM     24  O   UNL     1      11.294   1.225  23.444  0.00  0.00    -0.506 OA
ATOM     25  H   UNL     1      11.400   1.286  22.481  0.00  0.00    +0.292 HD
ENDBRANCH  10  24
BRANCH   1  26
ATOM     26  O   UNL     1       7.997  -1.581  26.468  0.00  0.00    -0.453 OA
BRANCH  26  30
ATOM     27  C   UNL     1       7.354  -3.422  22.593  0.00  0.00    +0.042 C 
ATOM     28  C   UNL     1       6.451  -3.581  23.820  0.00  0.00    +0.163 C 
ATOM     29  O   UNL     1       6.667  -2.529  24.788  0.00  0.00    -0.333 OA
ATOM     30  C   UNL     1       7.914  -2.639  25.500  0.00  0.00    +0.340 C 
ATOM     31  C   UNL     1       7.990  -3.988  26.256  0.00  0.00    +0.215 C 
ATOM     32  C   UNL     1       7.821  -5.152  25.272  0.00  0.00    +0.192 C 
ATOM     33  C   UNL     1       6.525  -4.979  24.476  0.00  0.00    +0.236 C 
BRANCH  31  34
ATOM     34  O   UNL     1       9.185  -4.195  27.018  0.00  0.00    -0.383 OA
ATOM     35  H   UNL     1       8.936  -4.354  27.954  0.00  0.00    +0.210 HD
ENDBRANCH  31  34
BRANCH  32  36
ATOM     36  O   UNL     1       8.923  -5.294  24.365  0.00  0.00    -0.385 OA
ATOM     37  H   UNL     1       9.076  -4.455  23.893  0.00  0.00    +0.210 HD
ENDBRANCH  32  36
BRANCH  33  38
ATOM     38  O   UNL     1       5.438  -5.123  25.424  0.00  0.00    -0.456 OA
BRANCH  38  39
ATOM     39  C   UNL     1       5.080  -6.394  25.737  0.00  0.00    +0.304 C 
ATOM     40  C   UNL     1       4.368  -7.039  24.586  0.00  0.00    +0.136 C 
ATOM     41  O   UNL     1       5.325  -6.956  26.795  0.00  0.00    -0.251 OA
ENDBRANCH  38  39
ENDBRANCH  33  38
ENDBRANCH  26  30
ENDBRANCH   1  26
TORSDOF 11
ENDMDL
MODEL 8
REMARK VINA RESULT:      -6.2      4.204      8.195
REMARK  Name = 
REMARK  13 active torsions:
REMARK  status: ('A' for Active; 'I' for Inactive)
REMARK    1  A    between atoms: C_1  and  C_2
REMARK    2  A    between atoms: C_4  and  O_37
REMARK    3  A    between atoms: C_6  and  O_36
REMARK    4  A    between atoms: C_8  and  O_35
REMARK    5  A    between atoms: C_10  and  O_13
REMARK    6  A    between atoms: O_13  and  C_14
REMARK    7  A    between atoms: C_15  and  C_27
REMARK    8  A    between atoms: C_19  and  O_26
REMARK    9  A    between atoms: C_21  and  O_25
REMARK   10  A    between atoms: C_29  and  O_34
REMARK   11  A    between atoms: C_30  and  O_33
REMARK   12  A    between atoms: O_37  and  C_38
REMARK   13  A    between atoms: C_38  and  C_40
REMARK                            x       y       z     vdW  Elec       q    Type
REMARK                         _______ _______ _______ _____ _____    ______ ____
ROOT
ATOM      1  C   UNL     1       7.056   3.691  24.595  0.00  0.00    +0.214 A 
ATOM      2  C   UNL     1       5.642   3.300  24.285  0.00  0.00    +0.238 A 
ATOM      3  O   UNL     1       5.229   2.167  24.522  0.00  0.00    -0.283 OA
ATOM      4  C   UNL     1       4.778   4.307  23.661  0.00  0.00    +0.109 A 
ATOM      5  C   UNL     1       5.373   5.485  23.219  0.00  0.00    +0.147 A 
ATOM      6  C   UNL     1       4.606   6.440  22.544  0.00  0.00    +0.092 A 
ATOM      7  C   UNL     1       3.248   6.207  22.332  0.00  0.00    +0.124 A 
ATOM      8  C   UNL     1       2.639   5.049  22.794  0.00  0.00    +0.091 A 
ATOM      9  O   UNL     1       6.702   5.769  23.402  0.00  0.00    -0.451 OA
ATOM     10  C   UNL     1       3.404   4.099  23.466  0.00  0.00    +0.135 A 
ATOM     11  C   UNL     1       7.501   4.879  24.124  0.00  0.00    +0.181 A 
ENDROOT
BRANCH  11  12
ATOM     12  C   UNL     1       8.913   5.363  24.279  0.00  0.00    +0.025 A 
ATOM     13  C   UNL     1       9.240   6.256  25.324  0.00  0.00    +0.015 A 
ATOM     14  C   UNL     1      10.549   6.729  25.505  0.00  0.00    +0.050 A 
ATOM     15  C   UNL     1      11.544   6.325  24.634  0.00  0.00    +0.158 A 
ATOM     16  C   UNL     1      11.254   5.442  23.602  0.00  0.00    +0.159 A 
ATOM     17  C   UNL     1       9.962   4.949  23.434  0.00  0.00    +0.060 A 
BRANCH  15  18
ATOM     18  O   UNL     1      12.817   6.790  24.802  0.00  0.00    -0.503 OA
ATOM     19  H   UNL     1      13.154   6.914  23.891  0.00  0.00    +0.292 HD
ENDBRANCH  15  18
BRANCH  16  20
ATOM     20  O   UNL     1      12.278   5.088  22.765  0.00  0.00    -0.503 OA
ATOM     21  H   UNL     1      12.492   5.858  22.208  0.00  0.00    +0.292 HD
ENDBRANCH  16  20
ENDBRANCH  11  12
BRANCH   7  22
ATOM     22  O   UNL     1       2.467   7.099  21.676  0.00  0.00    -0.507 OA
ATOM     23  H   UNL     1       1.833   7.504  22.290  0.00  0.00    +0.292 HD
ENDBRANCH   7  22
BRANCH  10  24
ATOM     24  O   UNL     1       2.787   2.977  23.943  0.00  0.00    -0.506 OA
ATOM     25  H   UNL     1       3.446   2.301  24.168  0.00  0.00    +0.292 HD
ENDBRANCH  10  24
BRANCH   1  26
ATOM     26  O   UNL     1       7.900   2.807  25.255  0.00  0.00    -0.453 OA
BRANCH  26  30
ATOM     27  C   UNL     1      10.125   1.293  21.854  0.00  0.00    +0.042 C 
ATOM     28  C   UNL     1       8.693   0.903  22.231  0.00  0.00    +0.163 C 
ATOM     29  O   UNL     1       8.086   1.873  23.115  0.00  0.00    -0.333 OA
ATOM     30  C   UNL     1       8.610   1.848  24.456  0.00  0.00    +0.340 C 
ATOM     31  C   UNL     1       8.409   0.451  25.092  0.00  0.00    +0.215 C 
ATOM     32  C   UNL     1       9.079  -0.622  24.226  0.00  0.00    +0.192 C 
ATOM     33  C   UNL     1       8.560  -0.533  22.788  0.00  0.00    +0.236 C 
BRANCH  31  34
ATOM     34  O   UNL     1       8.878   0.319  26.439  0.00  0.00    -0.383 OA
ATOM     35  H   UNL     1       9.804   0.641  26.481  0.00  0.00    +0.210 HD
ENDBRANCH  31  34
BRANCH  32  36
ATOM     36  O   UNL     1      10.511  -0.536  24.223  0.00  0.00    -0.385 OA
ATOM     37  H   UNL     1      10.874  -1.042  23.473  0.00  0.00    +0.210 HD
ENDBRANCH  32  36
BRANCH  33  38
ATOM     38  O   UNL     1       7.160  -0.904  22.833  0.00  0.00    -0.456 OA
BRANCH  38  39
ATOM     39  C   UNL     1       6.894  -2.232  22.917  0.00  0.00    +0.304 C 
ATOM     40  C   UNL     1       5.725  -2.479  23.822  0.00  0.00    +0.136 C 
ATOM     41  O   UNL     1       7.498  -3.111  22.318  0.00  0.00    -0.251 OA
ENDBRANCH  38  39
ENDBRANCH  33  38
ENDBRANCH  26  30
ENDBRANCH   1  26
TORSDOF 11
ENDMDL
MODEL 9
REMARK VINA RESULT:      -6.1      2.110      3.202
REMARK  Name = 
REMARK  13 active torsions:
REMARK  status: ('A' for Active; 'I' for Inactive)
REMARK    1  A    between atoms: C_1  and  C_2
REMARK    2  A    between atoms: C_4  and  O_37
REMARK    3  A    between atoms: C_6  and  O_36
REMARK    4  A    between atoms: C_8  and  O_35
REMARK    5  A    between atoms: C_10  and  O_13
REMARK    6  A    between atoms: O_13  and  C_14
REMARK    7  A    between atoms: C_15  and  C_27
REMARK    8  A    between atoms: C_19  and  O_26
REMARK    9  A    between atoms: C_21  and  O_25
REMARK   10  A    between atoms: C_29  and  O_34
REMARK   11  A    between atoms: C_30  and  O_33
REMARK   12  A    between atoms: O_37  and  C_38
REMARK   13  A    between atoms: C_38  and  C_40
REMARK                            x       y       z     vdW  Elec       q    Type
REMARK                         _______ _______ _______ _____ _____    ______ ____
ROOT
ATOM      1  C   UNL     1       7.710  -1.859  25.844  0.00  0.00    +0.214 A 
ATOM      2  C   UNL     1       8.809  -2.010  24.836  0.00  0.00    +0.238 A 
ATOM      3  O   UNL     1       9.534  -3.002  24.829  0.00  0.00    -0.283 OA
ATOM      4  C   UNL     1       9.007  -0.918  23.877  0.00  0.00    +0.109 A 
ATOM      5  C   UNL     1       8.301   0.263  24.086  0.00  0.00    +0.147 A 
ATOM      6  C   UNL     1       8.518   1.361  23.247  0.00  0.00    +0.092 A 
ATOM      7  C   UNL     1       9.432   1.255  22.199  0.00  0.00    +0.124 A 
ATOM      8  C   UNL     1      10.120   0.073  21.964  0.00  0.00    +0.091 A 
ATOM      9  O   UNL     1       7.388   0.422  25.097  0.00  0.00    -0.451 OA
ATOM     10  C   UNL     1       9.902  -1.019  22.800  0.00  0.00    +0.135 A 
ATOM     11  C   UNL     1       7.087  -0.661  25.926  0.00  0.00    +0.181 A 
ENDROOT
BRANCH  11  12
ATOM     12  C   UNL     1       6.033  -0.335  26.944  0.00  0.00    +0.025 A 
ATOM     13  C   UNL     1       6.388   0.343  28.131  0.00  0.00    +0.015 A 
ATOM     14  C   UNL     1       5.432   0.670  29.106  0.00  0.00    +0.050 A 
ATOM     15  C   UNL     1       4.112   0.310  28.910  0.00  0.00    +0.158 A 
ATOM     16  C   UNL     1       3.732  -0.350  27.748  0.00  0.00    +0.159 A 
ATOM     17  C   UNL     1       4.672  -0.653  26.767  0.00  0.00    +0.060 A 
BRANCH  15  18
ATOM     18  O   UNL     1       3.180   0.619  29.860  0.00  0.00    -0.503 OA
ATOM     19  H   UNL     1       2.331   0.315  29.478  0.00  0.00    +0.292 HD
ENDBRANCH  15  18
BRANCH  16  20
ATOM     20  O   UNL     1       2.412  -0.691  27.617  0.00  0.00    -0.503 OA
ATOM     21  H   UNL     1       2.319  -1.632  27.850  0.00  0.00    +0.292 HD
ENDBRANCH  16  20
ENDBRANCH  11  12
BRANCH   7  22
ATOM     22  O   UNL     1       9.681   2.294  21.366  0.00  0.00    -0.507 OA
ATOM     23  H   UNL     1      10.471   2.114  20.832  0.00  0.00    +0.292 HD
ENDBRANCH   7  22
BRANCH  10  24
ATOM     24  O   UNL     1      10.562  -2.186  22.541  0.00  0.00    -0.506 OA
ATOM     25  H   UNL     1      11.327  -2.020  21.966  0.00  0.00    +0.292 HD
ENDBRANCH  10  24
BRANCH   1  26
ATOM     26  O   UNL     1       7.423  -2.891  26.729  0.00  0.00    -0.453 OA
BRANCH  26  30
ATOM     27  C   UNL     1       3.288  -4.158  26.402  0.00  0.00    +0.042 C 
ATOM     28  C   UNL     1       4.334  -4.754  27.350  0.00  0.00    +0.163 C 
ATOM     29  O   UNL     1       5.453  -3.860  27.546  0.00  0.00    -0.333 OA
ATOM     30  C   UNL     1       6.323  -3.755  26.403  0.00  0.00    +0.340 C 
ATOM     31  C   UNL     1       6.898  -5.143  26.028  0.00  0.00    +0.215 C 
ATOM     32  C   UNL     1       5.755  -6.128  25.753  0.00  0.00    +0.192 C 
ATOM     33  C   UNL     1       4.804  -6.172  26.952  0.00  0.00    +0.236 C 
BRANCH  31  34
ATOM     34  O   UNL     1       7.796  -5.151  24.913  0.00  0.00    -0.383 OA
ATOM     35  H   UNL     1       8.481  -4.463  25.057  0.00  0.00    +0.210 HD
ENDBRANCH  31  34
BRANCH  32  36
ATOM     36  O   UNL     1       5.013  -5.819  24.566  0.00  0.00    -0.385 OA
ATOM     37  H   UNL     1       5.561  -5.985  23.778  0.00  0.00    +0.210 HD
ENDBRANCH  32  36
BRANCH  33  38
ATOM     38  O   UNL     1       5.551  -6.756  28.048  0.00  0.00    -0.456 OA
BRANCH  38  39
ATOM     39  C   UNL     1       4.898  -6.854  29.233  0.00  0.00    +0.304 C 
ATOM     40  C   UNL     1       5.665  -6.159  30.318  0.00  0.00    +0.136 C 
ATOM     41  O   UNL     1       3.818  -7.404  29.401  0.00  0.00    -0.251 OA
ENDBRANCH  38  39
ENDBRANCH  33  38
ENDBRANCH  26  30
ENDBRANCH   1  26
TORSDOF 11
ENDMDL
