MODEL 1
REMARK VINA RESULT:      -6.2      0.000      0.000
REMARK  Name = 
REMARK  18 active torsions:
REMARK  status: ('A' for Active; 'I' for Inactive)
REMARK    1  A    between atoms: C_3  and  O_50
REMARK    2  A    between atoms: C_4  and  O_49
REMARK    3  A    between atoms: C_6  and  C_7
REMARK    4  A    between atoms: C_8  and  O_20
REMARK    5  A    between atoms: C_12  and  O_19
REMARK    6  A    between atoms: C_14  and  O_18
REMARK    7  A    between atoms: O_20  and  C_21
REMARK    8  A    between atoms: C_23  and  O_48
REMARK    9  A    between atoms: C_24  and  O_33
REMARK   10  A    between atoms: C_26  and  O_32
REMARK   11  A    between atoms: C_28  and  C_30
REMARK   12  A    between atoms: C_30  and  O_31
REMARK   13  A    between atoms: O_33  and  C_34
REMARK   14  A    between atoms: C_36  and  O_47
REMARK   15  A    between atoms: C_37  and  O_46
REMARK   16  A    between atoms: C_39  and  O_45
REMARK   17  A    between atoms: C_41  and  C_43
REMARK   18  A    between atoms: C_43  and  O_44
REMARK                            x       y       z     vdW  Elec       q    Type
REMARK                         _______ _______ _______ _____ _____    ______ ____
ROOT
ATOM      1  C   UNL     1       4.866  -3.530  23.840  0.00  0.00    +0.340 C 
ATOM      2  O   UNL     1       3.572  -3.871  24.460  0.00  0.00    -0.331 OA
ATOM      3  C   UNL     1       2.938  -5.223  24.324  0.00  0.00    +0.179 C 
ATOM      4  C   UNL     1       3.885  -6.428  24.080  0.00  0.00    +0.177 C 
ATOM      5  C   UNL     1       5.288  -5.913  24.259  0.00  0.00    +0.187 C 
ATOM      6  C   UNL     1       5.363  -4.792  23.156  0.00  0.00    +0.214 C 
ENDROOT
BRANCH   6   7
ATOM      7  O   UNL     1       6.674  -4.642  22.604  0.00  0.00    -0.383 OA
ATOM      8  H   UNL     1       7.282  -5.109  23.209  0.00  0.00    +0.210 HD
ENDBRANCH   6   7
BRANCH   4   9
ATOM      9  O   UNL     1       3.557  -7.562  24.885  0.00  0.00    -0.386 OA
ATOM     10  H   UNL     1       3.355  -7.240  25.786  0.00  0.00    +0.210 HD
ENDBRANCH   4   9
BRANCH   5  11
ATOM     11  O   UNL     1       5.472  -5.370  25.604  0.00  0.00    -0.340 OA
BRANCH  11  12
ATOM     12  C   UNL     1       6.098  -6.147  26.639  0.00  0.00    +0.282 C 
ATOM     13  O   UNL     1       5.142  -7.007  27.295  0.00  0.00    -0.341 OA
ATOM     14  C   UNL     1       4.066  -6.322  27.944  0.00  0.00    +0.178 C 
ATOM     15  C   UNL     1       4.557  -5.231  28.920  0.00  0.00    +0.177 C 
ATOM     16  C   UNL     1       5.616  -4.338  28.269  0.00  0.00    +0.179 C 
ATOM     17  C   UNL     1       6.736  -5.206  27.664  0.00  0.00    +0.201 C 
BRANCH  17  18
ATOM     18  O   UNL     1       7.746  -4.375  27.075  0.00  0.00    -0.384 OA
ATOM     19  H   UNL     1       7.295  -3.880  26.360  0.00  0.00    +0.210 HD
ENDBRANCH  17  18
BRANCH  16  20
ATOM     20  O   UNL     1       5.028  -3.482  27.273  0.00  0.00    -0.386 OA
ATOM     21  H   UNL     1       4.790  -4.032  26.500  0.00  0.00    +0.210 HD
ENDBRANCH  16  20
BRANCH  15  22
ATOM     22  O   UNL     1       5.107  -5.836  30.096  0.00  0.00    -0.386 OA
ATOM     23  H   UNL     1       4.378  -5.991  30.724  0.00  0.00    +0.210 HD
ENDBRANCH  15  22
BRANCH  14  24
ATOM     24  C   UNL     1       3.158  -7.342  28.654  0.00  0.00    +0.190 C 
BRANCH  24  25
ATOM     25  O   UNL     1       2.226  -7.913  27.736  0.00  0.00    -0.392 OA
ATOM     26  H   UNL     1       1.335  -7.664  28.037  0.00  0.00    +0.210 HD
ENDBRANCH  24  25
ENDBRANCH  14  24
ENDBRANCH  11  12
ENDBRANCH   5  11
BRANCH   3  27
ATOM     27  C   UNL     1       1.753  -5.364  23.319  0.00  0.00    +0.190 C 
BRANCH  27  28
ATOM     28  O   UNL     1       1.775  -6.591  22.582  0.00  0.00    -0.392 OA
ATOM     29  H   UNL     1       2.428  -7.181  22.987  0.00  0.00    +0.210 HD
ENDBRANCH  27  28
ENDBRANCH   3  27
BRANCH   1  30
ATOM     30  O   UNL     1       6.157  -3.201  24.554  0.00  0.00    -0.453 OA
BRANCH  30  41
ATOM     31  C   UNL     1       6.548  -0.883  25.234  0.00  0.00    +0.181 A 
ATOM     32  O   UNL     1       7.289   0.295  25.014  0.00  0.00    -0.451 OA
ATOM     33  C   UNL     1       8.226   0.364  24.022  0.00  0.00    +0.147 A 
ATOM     34  C   UNL     1       8.723  -0.776  23.423  0.00  0.00    +0.109 A 
ATOM     35  C   UNL     1       9.692  -0.684  22.427  0.00  0.00    +0.135 A 
ATOM     36  C   UNL     1      10.175   0.564  22.038  0.00  0.00    +0.091 A 
ATOM     37  C   UNL     1       9.681   1.717  22.650  0.00  0.00    +0.124 A 
ATOM     38  C   UNL     1       8.195  -2.064  23.843  0.00  0.00    +0.238 A 
ATOM     39  O   UNL     1       8.812  -3.090  23.577  0.00  0.00    -0.283 OA
ATOM     40  C   UNL     1       8.710   1.623  23.652  0.00  0.00    +0.092 A 
ATOM     41  C   UNL     1       6.908  -2.056  24.605  0.00  0.00    +0.214 A 
BRANCH  31  43
ATOM     42  C   UNL     1       5.913  -0.142  27.593  0.00  0.00    +0.015 A 
ATOM     43  C   UNL     1       5.466  -0.508  26.274  0.00  0.00    +0.025 A 
ATOM     44  C   UNL     1       4.075  -0.536  26.122  0.00  0.00    +0.060 A 
ATOM     45  C   UNL     1       3.221  -0.346  27.237  0.00  0.00    +0.159 A 
ATOM     46  C   UNL     1       3.711  -0.117  28.523  0.00  0.00    +0.158 A 
ATOM     47  C   UNL     1       5.065   0.033  28.702  0.00  0.00    +0.050 A 
BRANCH  46  48
ATOM     48  O   UNL     1       2.834  -0.059  29.572  0.00  0.00    -0.503 OA
ATOM     49  H   UNL     1       3.162  -0.637  30.278  0.00  0.00    +0.292 HD
ENDBRANCH  46  48
BRANCH  45  50
ATOM     50  O   UNL     1       1.862  -0.409  27.076  0.00  0.00    -0.503 OA
ATOM     51  H   UNL     1       1.675  -1.274  26.670  0.00  0.00    +0.292 HD
ENDBRANCH  45  50
ENDBRANCH  31  43
BRANCH  37  52
ATOM     52  O   UNL     1      10.134   2.949  22.297  0.00  0.00    -0.507 OA
ATOM     53  H   UNL     1      10.345   3.444  23.105  0.00  0.00    +0.292 HD
ENDBRANCH  37  52
BRANCH  35  54
ATOM     54  O   UNL     1      10.219  -1.781  21.810  0.00  0.00    -0.506 OA
ATOM     55  H   UNL     1       9.881  -1.801  20.885  0.00  0.00    +0.292 HD
ENDBRANCH  35  54
ENDBRANCH  30  41
ENDBRANCH   1  30
TORSDOF 18
ENDMDL
MODEL 2
REMARK VINA RESULT:      -6.0      1.718      3.795
REMARK  Name = 
REMARK  18 active torsions:
REMARK  status: ('A' for Active; 'I' for Inactive)
REMARK    1  A    between atoms: C_3  and  O_50
REMARK    2  A    between atoms: C_4  and  O_49
REMARK    3  A    between atoms: C_6  and  C_7
REMARK    4  A    between atoms: C_8  and  O_20
REMARK    5  A    between atoms: C_12  and  O_19
REMARK    6  A    between atoms: C_14  and  O_18
REMARK    7  A    between atoms: O_20  and  C_21
REMARK    8  A    between atoms: C_23  and  O_48
REMARK    9  A    between atoms: C_24  and  O_33
REMARK   10  A    between atoms: C_26  and  O_32
REMARK   11  A    between atoms: C_28  and  C_30
REMARK   12  A    between atoms: C_30  and  O_31
REMARK   13  A    between atoms: O_33  and  C_34
REMARK   14  A    between atoms: C_36  and  O_47
REMARK   15  A    between atoms: C_37  and  O_46
REMARK   16  A    between atoms: C_39  and  O_45
REMARK   17  A    between atoms: C_41  and  C_43
REMARK   18  A    between atoms: C_43  and  O_44
REMARK                            x       y       z     vdW  Elec       q    Type
REMARK                         _______ _______ _______ _____ _____    ______ ____
ROOT
ATOM      1  C   UNL     1       6.437  -2.945  27.482  0.00  0.00    +0.340 C 
ATOM      2  O   UNL     1       6.676  -4.400  27.457  0.00  0.00    -0.331 OA
ATOM      3  C   UNL     1       5.636  -5.401  27.866  0.00  0.00    +0.179 C 
ATOM      4  C   UNL     1       4.150  -4.979  27.717  0.00  0.00    +0.177 C 
ATOM      5  C   UNL     1       4.148  -3.675  26.966  0.00  0.00    +0.187 C 
ATOM      6  C   UNL     1       4.996  -2.752  27.920  0.00  0.00    +0.214 C 
ENDROOT
BRANCH   6   7
ATOM      7  O   UNL     1       4.584  -1.383  27.880  0.00  0.00    -0.383 OA
ATOM      8  H   UNL     1       5.038  -0.982  27.112  0.00  0.00    +0.210 HD
ENDBRANCH   6   7
BRANCH   4   9
ATOM      9  O   UNL     1       3.339  -6.002  27.138  0.00  0.00    -0.386 OA
ATOM     10  H   UNL     1       3.912  -6.776  26.965  0.00  0.00    +0.210 HD
ENDBRANCH   4   9
BRANCH   5  11
ATOM     11  O   UNL     1       4.779  -3.831  25.656  0.00  0.00    -0.340 OA
BRANCH  11  12
ATOM     12  C   UNL     1       3.991  -3.883  24.455  0.00  0.00    +0.282 C 
ATOM     13  O   UNL     1       3.331  -5.159  24.319  0.00  0.00    -0.341 OA
ATOM     14  C   UNL     1       4.213  -6.284  24.235  0.00  0.00    +0.178 C 
ATOM     15  C   UNL     1       5.283  -6.119  23.134  0.00  0.00    +0.177 C 
ATOM     16  C   UNL     1       5.960  -4.749  23.217  0.00  0.00    +0.179 C 
ATOM     17  C   UNL     1       4.895  -3.637  23.244  0.00  0.00    +0.201 C 
BRANCH  17  18
ATOM     18  O   UNL     1       5.523  -2.348  23.295  0.00  0.00    -0.384 OA
ATOM     19  H   UNL     1       5.026  -1.788  22.664  0.00  0.00    +0.210 HD
ENDBRANCH  17  18
BRANCH  16  20
ATOM     20  O   UNL     1       6.824  -4.668  24.366  0.00  0.00    -0.386 OA
ATOM     21  H   UNL     1       7.018  -5.579  24.665  0.00  0.00    +0.210 HD
ENDBRANCH  16  20
BRANCH  15  22
ATOM     22  O   UNL     1       4.686  -6.274  21.841  0.00  0.00    -0.386 OA
ATOM     23  H   UNL     1       4.538  -5.386  21.470  0.00  0.00    +0.210 HD
ENDBRANCH  15  22
BRANCH  14  24
ATOM     24  C   UNL     1       3.392  -7.569  24.031  0.00  0.00    +0.190 C 
BRANCH  24  25
ATOM     25  O   UNL     1       3.304  -8.311  25.247  0.00  0.00    -0.392 OA
ATOM     26  H   UNL     1       3.948  -7.926  25.867  0.00  0.00    +0.210 HD
ENDBRANCH  24  25
ENDBRANCH  14  24
ENDBRANCH  11  12
ENDBRANCH   5  11
BRANCH   3  27
ATOM     27  C   UNL     1       5.784  -6.059  29.272  0.00  0.00    +0.190 C 
BRANCH  27  28
ATOM     28  O   UNL     1       6.503  -7.296  29.249  0.00  0.00    -0.392 OA
ATOM     29  H   UNL     1       6.912  -7.430  30.117  0.00  0.00    +0.210 HD
ENDBRANCH  27  28
ENDBRANCH   3  27
BRANCH   1  30
ATOM     30  O   UNL     1       6.382  -2.013  26.293  0.00  0.00    -0.453 OA
BRANCH  30  41
ATOM     31  C   UNL     1       7.211   0.282  26.117  0.00  0.00    +0.181 A 
ATOM     32  O   UNL     1       8.016   1.186  25.396  0.00  0.00    -0.451 OA
ATOM     33  C   UNL     1       8.681   0.796  24.269  0.00  0.00    +0.147 A 
ATOM     34  C   UNL     1       8.871  -0.539  23.973  0.00  0.00    +0.109 A 
ATOM     35  C   UNL     1       9.569  -0.916  22.829  0.00  0.00    +0.135 A 
ATOM     36  C   UNL     1      10.092   0.057  21.980  0.00  0.00    +0.091 A 
ATOM     37  C   UNL     1       9.910   1.408  22.282  0.00  0.00    +0.124 A 
ATOM     38  C   UNL     1       8.307  -1.533  24.873  0.00  0.00    +0.238 A 
ATOM     39  O   UNL     1       8.709  -2.691  24.827  0.00  0.00    -0.283 OA
ATOM     40  C   UNL     1       9.210   1.785  23.434  0.00  0.00    +0.092 A 
ATOM     41  C   UNL     1       7.258  -1.067  25.831  0.00  0.00    +0.214 A 
BRANCH  31  43
ATOM     42  C   UNL     1       6.979   1.096  28.525  0.00  0.00    +0.015 A 
ATOM     43  C   UNL     1       6.473   1.132  27.178  0.00  0.00    +0.025 A 
ATOM     44  C   UNL     1       5.316   1.903  27.015  0.00  0.00    +0.060 A 
ATOM     45  C   UNL     1       4.659   2.467  28.137  0.00  0.00    +0.159 A 
ATOM     46  C   UNL     1       5.125   2.296  29.440  0.00  0.00    +0.158 A 
ATOM     47  C   UNL     1       6.318   1.645  29.640  0.00  0.00    +0.050 A 
BRANCH  46  48
ATOM     48  O   UNL     1       4.377   2.769  30.485  0.00  0.00    -0.503 OA
ATOM     49  H   UNL     1       3.442   2.606  30.290  0.00  0.00    +0.292 HD
ENDBRANCH  46  48
BRANCH  45  50
ATOM     50  O   UNL     1       3.509   3.191  27.962  0.00  0.00    -0.503 OA
ATOM     51  H   UNL     1       3.277   3.112  27.020  0.00  0.00    +0.292 HD
ENDBRANCH  45  50
ENDBRANCH  31  43
BRANCH  37  52
ATOM     52  O   UNL     1      10.411   2.381  21.477  0.00  0.00    -0.507 OA
ATOM     53  H   UNL     1      11.378   2.384  21.561  0.00  0.00    +0.292 HD
ENDBRANCH  37  52
BRANCH  35  54
ATOM     54  O   UNL     1       9.789  -2.221  22.498  0.00  0.00    -0.506 OA
ATOM     55  H   UNL     1      10.729  -2.433  22.703  0.00  0.00    +0.292 HD
ENDBRANCH  35  54
ENDBRANCH  30  41
ENDBRANCH   1  30
TORSDOF 18
ENDMDL
MODEL 3
REMARK VINA RESULT:      -5.9      2.456      6.824
REMARK  Name = 
REMARK  18 active torsions:
REMARK  status: ('A' for Active; 'I' for Inactive)
REMARK    1  A    between atoms: C_3  and  O_50
REMARK    2  A    between atoms: C_4  and  O_49
REMARK    3  A    between atoms: C_6  and  C_7
REMARK    4  A    between atoms: C_8  and  O_20
REMARK    5  A    between atoms: C_12  and  O_19
REMARK    6  A    between atoms: C_14  and  O_18
REMARK    7  A    between atoms: O_20  and  C_21
REMARK    8  A    between atoms: C_23  and  O_48
REMARK    9  A    between atoms: C_24  and  O_33
REMARK   10  A    between atoms: C_26  and  O_32
REMARK   11  A    between atoms: C_28  and  C_30
REMARK   12  A    between atoms: C_30  and  O_31
REMARK   13  A    between atoms: O_33  and  C_34
REMARK   14  A    between atoms: C_36  and  O_47
REMARK   15  A    between atoms: C_37  and  O_46
REMARK   16  A    between atoms: C_39  and  O_45
REMARK   17  A    between atoms: C_41  and  C_43
REMARK   18  A    between atoms: C_43  and  O_44
REMARK                            x       y       z     vdW  Elec       q    Type
REMARK                         _______ _______ _______ _____ _____    ______ ____
ROOT
ATOM      1  C   UNL     1       7.585   0.035  24.218  0.00  0.00    +0.340 C 
ATOM      2  O   UNL     1       7.764  -0.839  23.044  0.00  0.00    -0.331 OA
ATOM      3  C   UNL     1       8.880  -1.836  22.936  0.00  0.00    +0.179 C 
ATOM      4  C   UNL     1       9.461  -2.393  24.263  0.00  0.00    +0.177 C 
ATOM      5  C   UNL     1       8.558  -1.907  25.364  0.00  0.00    +0.187 C 
ATOM      6  C   UNL     1       8.672  -0.344  25.208  0.00  0.00    +0.214 C 
ENDROOT
BRANCH   6   7
ATOM      7  O   UNL     1       8.551   0.349  26.454  0.00  0.00    -0.383 OA
ATOM      8  H   UNL     1       7.702   0.832  26.419  0.00  0.00    +0.210 HD
ENDBRANCH   6   7
BRANCH   4   9
ATOM      9  O   UNL     1       9.656  -3.808  24.231  0.00  0.00    -0.386 OA
ATOM     10  H   UNL     1       8.888  -4.226  24.668  0.00  0.00    +0.210 HD
ENDBRANCH   4   9
BRANCH   5  11
ATOM     11  O   UNL     1       7.189  -2.378  25.157  0.00  0.00    -0.340 OA
BRANCH  11  12
ATOM     12  C   UNL     1       6.807  -3.721  25.500  0.00  0.00    +0.282 C 
ATOM     13  O   UNL     1       7.112  -4.640  24.429  0.00  0.00    -0.341 OA
ATOM     14  C   UNL     1       6.440  -4.366  23.195  0.00  0.00    +0.178 C 
ATOM     15  C   UNL     1       4.911  -4.237  23.365  0.00  0.00    +0.177 C 
ATOM     16  C   UNL     1       4.558  -3.313  24.534  0.00  0.00    +0.179 C 
ATOM     17  C   UNL     1       5.307  -3.760  25.803  0.00  0.00    +0.201 C 
BRANCH  17  18
ATOM     18  O   UNL     1       4.961  -2.915  26.909  0.00  0.00    -0.384 OA
ATOM     19  H   UNL     1       5.797  -2.765  27.397  0.00  0.00    +0.210 HD
ENDBRANCH  17  18
BRANCH  16  20
ATOM     20  O   UNL     1       4.851  -1.940  24.214  0.00  0.00    -0.386 OA
ATOM     21  H   UNL     1       4.123  -1.386  24.557  0.00  0.00    +0.210 HD
ENDBRANCH  16  20
BRANCH  15  22
ATOM     22  O   UNL     1       4.332  -5.527  23.591  0.00  0.00    -0.386 OA
ATOM     23  H   UNL     1       5.002  -6.200  23.377  0.00  0.00    +0.210 HD
ENDBRANCH  15  22
BRANCH  14  24
ATOM     24  C   UNL     1       6.800  -5.447  22.160  0.00  0.00    +0.190 C 
BRANCH  24  25
ATOM     25  O   UNL     1       5.827  -5.491  21.118  0.00  0.00    -0.392 OA
ATOM     26  H   UNL     1       5.376  -6.351  21.180  0.00  0.00    +0.210 HD
ENDBRANCH  24  25
ENDBRANCH  14  24
ENDBRANCH  11  12
ENDBRANCH   5  11
BRANCH   3  27
ATOM     27  C   UNL     1      10.092  -1.463  22.028  0.00  0.00    +0.190 C 
BRANCH  27  28
ATOM     28  O   UNL     1       9.884  -0.273  21.262  0.00  0.00    -0.392 OA
ATOM     29  H   UNL     1      10.122  -0.455  20.340  0.00  0.00    +0.210 HD
ENDBRANCH  27  28
ENDBRANCH   3  27
BRANCH   1  30
ATOM     30  O   UNL     1       6.438   0.011  25.202  0.00  0.00    -0.453 OA
BRANCH  30  41
ATOM     31  C   UNL     1       5.909   2.362  25.628  0.00  0.00    +0.181 A 
ATOM     32  O   UNL     1       5.166   3.275  26.402  0.00  0.00    -0.451 OA
ATOM     33  C   UNL     1       4.347   2.846  27.408  0.00  0.00    +0.147 A 
ATOM     34  C   UNL     1       3.952   1.526  27.498  0.00  0.00    +0.109 A 
ATOM     35  C   UNL     1       3.100   1.113  28.520  0.00  0.00    +0.135 A 
ATOM     36  C   UNL     1       2.631   2.036  29.452  0.00  0.00    +0.091 A 
ATOM     37  C   UNL     1       3.021   3.374  29.356  0.00  0.00    +0.124 A 
ATOM     38  C   UNL     1       4.464   0.583  26.516  0.00  0.00    +0.238 A 
ATOM     39  O   UNL     1       3.908  -0.501  26.369  0.00  0.00    -0.283 OA
ATOM     40  C   UNL     1       3.874   3.787  28.328  0.00  0.00    +0.092 A 
ATOM     41  C   UNL     1       5.655   1.009  25.719  0.00  0.00    +0.214 A 
BRANCH  31  43
ATOM     42  C   UNL     1       8.096   3.649  25.351  0.00  0.00    +0.015 A 
ATOM     43  C   UNL     1       6.855   3.223  24.759  0.00  0.00    +0.025 A 
ATOM     44  C   UNL     1       6.636   3.705  23.463  0.00  0.00    +0.060 A 
ATOM     45  C   UNL     1       7.526   4.642  22.881  0.00  0.00    +0.159 A 
ATOM     46  C   UNL     1       8.652   5.120  23.551  0.00  0.00    +0.158 A 
ATOM     47  C   UNL     1       8.971   4.590  24.778  0.00  0.00    +0.050 A 
BRANCH  46  48
ATOM     48  O   UNL     1       9.402   6.111  22.976  0.00  0.00    -0.503 OA
ATOM     49  H   UNL     1       9.316   6.912  23.515  0.00  0.00    +0.292 HD
ENDBRANCH  46  48
BRANCH  45  50
ATOM     50  O   UNL     1       7.279   5.130  21.624  0.00  0.00    -0.503 OA
ATOM     51  H   UNL     1       7.517   6.074  21.646  0.00  0.00    +0.292 HD
ENDBRANCH  45  50
ENDBRANCH  31  43
BRANCH  37  52
ATOM     52  O   UNL     1       2.578   4.300  30.246  0.00  0.00    -0.507 OA
ATOM     53  H   UNL     1       3.170   4.296  31.016  0.00  0.00    +0.292 HD
ENDBRANCH  37  52
BRANCH  35  54
ATOM     54  O   UNL     1       2.677  -0.177  28.647  0.00  0.00    -0.506 OA
ATOM     55  H   UNL     1       2.982  -0.512  29.523  0.00  0.00    +0.292 HD
ENDBRANCH  35  54
ENDBRANCH  30  41
ENDBRANCH   1  30
TORSDOF 18
ENDMDL
MODEL 4
REMARK VINA RESULT:      -5.9      2.759      8.896
REMARK  Name = 
REMARK  18 active torsions:
REMARK  status: ('A' for Active; 'I' for Inactive)
REMARK    1  A    between atoms: C_3  and  O_50
REMARK    2  A    between atoms: C_4  and  O_49
REMARK    3  A    between atoms: C_6  and  C_7
REMARK    4  A    between atoms: C_8  and  O_20
REMARK    5  A    between atoms: C_12  and  O_19
REMARK    6  A    between atoms: C_14  and  O_18
REMARK    7  A    between atoms: O_20  and  C_21
REMARK    8  A    between atoms: C_23  and  O_48
REMARK    9  A    between atoms: C_24  and  O_33
REMARK   10  A    between atoms: C_26  and  O_32
REMARK   11  A    between atoms: C_28  and  C_30
REMARK   12  A    between atoms: C_30  and  O_31
REMARK   13  A    between atoms: O_33  and  C_34
REMARK   14  A    between atoms: C_36  and  O_47
REMARK   15  A    between atoms: C_37  and  O_46
REMARK   16  A    between atoms: C_39  and  O_45
REMARK   17  A    between atoms: C_41  and  C_43
REMARK   18  A    between atoms: C_43  and  O_44
REMARK                            x       y       z     vdW  Elec       q    Type
REMARK                         _______ _______ _______ _____ _____    ______ ____
ROOT
ATOM      1  C   UNL     1       7.688   0.051  24.411  0.00  0.00    +0.340 C 
ATOM      2  O   UNL     1       8.506   1.261  24.614  0.00  0.00    -0.331 OA
ATOM      3  C   UNL     1       8.891   2.178  23.491  0.00  0.00    +0.179 C 
ATOM      4  C   UNL     1       7.948   2.224  22.259  0.00  0.00    +0.177 C 
ATOM      5  C   UNL     1       6.719   1.440  22.632  0.00  0.00    +0.187 C 
ATOM      6  C   UNL     1       7.324   0.018  22.937  0.00  0.00    +0.214 C 
ENDROOT
BRANCH   6   7
ATOM      7  O   UNL     1       6.428  -1.049  22.613  0.00  0.00    -0.383 OA
ATOM      8  H   UNL     1       6.681  -1.359  21.721  0.00  0.00    +0.210 HD
ENDBRANCH   6   7
BRANCH   4   9
ATOM      9  O   UNL     1       7.694   3.555  21.807  0.00  0.00    -0.386 OA
ATOM     10  H   UNL     1       6.855   3.545  21.303  0.00  0.00    +0.210 HD
ENDBRANCH   4   9
BRANCH   5  11
ATOM     11  O   UNL     1       6.070   2.021  23.807  0.00  0.00    -0.340 OA
BRANCH  11  12
ATOM     12  C   UNL     1       4.842   2.758  23.687  0.00  0.00    +0.282 C 
ATOM     13  O   UNL     1       5.077   4.081  23.158  0.00  0.00    -0.341 OA
ATOM     14  C   UNL     1       5.928   4.905  23.961  0.00  0.00    +0.178 C 
ATOM     15  C   UNL     1       5.458   4.995  25.428  0.00  0.00    +0.177 C 
ATOM     16  C   UNL     1       5.144   3.609  25.999  0.00  0.00    +0.179 C 
ATOM     17  C   UNL     1       4.176   2.862  25.062  0.00  0.00    +0.201 C 
BRANCH  17  18
ATOM     18  O   UNL     1       3.857   1.573  25.602  0.00  0.00    -0.384 OA
ATOM     19  H   UNL     1       3.519   1.047  24.847  0.00  0.00    +0.210 HD
ENDBRANCH  17  18
BRANCH  16  20
ATOM     20  O   UNL     1       6.350   2.853  26.210  0.00  0.00    -0.386 OA
ATOM     21  H   UNL     1       6.122   1.903  26.178  0.00  0.00    +0.210 HD
ENDBRANCH  16  20
BRANCH  15  22
ATOM     22  O   UNL     1       4.289   5.819  25.519  0.00  0.00    -0.386 OA
ATOM     23  H   UNL     1       3.567   5.371  25.044  0.00  0.00    +0.210 HD
ENDBRANCH  15  22
BRANCH  14  24
ATOM     24  C   UNL     1       6.048   6.300  23.323  0.00  0.00    +0.190 C 
BRANCH  24  25
ATOM     25  O   UNL     1       6.315   6.195  21.926  0.00  0.00    -0.392 OA
ATOM     26  H   UNL     1       6.705   5.318  21.771  0.00  0.00    +0.210 HD
ENDBRANCH  24  25
ENDBRANCH  14  24
ENDBRANCH  11  12
ENDBRANCH   5  11
BRANCH   3  27
ATOM     27  C   UNL     1      10.349   2.075  22.946  0.00  0.00    +0.190 C 
BRANCH  27  28
ATOM     28  O   UNL     1      10.438   2.239  21.527  0.00  0.00    -0.392 OA
ATOM     29  H   UNL     1      11.177   1.702  21.202  0.00  0.00    +0.210 HD
ENDBRANCH  27  28
ENDBRANCH   3  27
BRANCH   1  30
ATOM     30  O   UNL     1       6.294  -0.202  24.939  0.00  0.00    -0.453 OA
BRANCH  30  41
ATOM     31  C   UNL     1       5.500  -2.367  25.758  0.00  0.00    +0.181 A 
ATOM     32  O   UNL     1       4.804  -3.053  26.772  0.00  0.00    -0.451 OA
ATOM     33  C   UNL     1       4.245  -2.383  27.823  0.00  0.00    +0.147 A 
ATOM     34  C   UNL     1       4.607  -1.084  28.120  0.00  0.00    +0.109 A 
ATOM     35  C   UNL     1       4.039  -0.425  29.208  0.00  0.00    +0.135 A 
ATOM     36  C   UNL     1       3.109  -1.081  30.012  0.00  0.00    +0.091 A 
ATOM     37  C   UNL     1       2.749  -2.398  29.719  0.00  0.00    +0.124 A 
ATOM     38  C   UNL     1       5.574  -0.422  27.260  0.00  0.00    +0.238 A 
ATOM     39  O   UNL     1       6.148   0.587  27.655  0.00  0.00    -0.283 OA
ATOM     40  C   UNL     1       3.322  -3.059  28.627  0.00  0.00    +0.092 A 
ATOM     41  C   UNL     1       5.825  -1.036  25.919  0.00  0.00    +0.214 A 
BRANCH  31  43
ATOM     42  C   UNL     1       4.668  -3.922  23.913  0.00  0.00    +0.015 A 
ATOM     43  C   UNL     1       5.790  -3.420  24.663  0.00  0.00    +0.025 A 
ATOM     44  C   UNL     1       7.016  -4.009  24.333  0.00  0.00    +0.060 A 
ATOM     45  C   UNL     1       7.075  -5.100  23.431  0.00  0.00    +0.159 A 
ATOM     46  C   UNL     1       5.937  -5.632  22.825  0.00  0.00    +0.158 A 
ATOM     47  C   UNL     1       4.726  -5.015  23.027  0.00  0.00    +0.050 A 
BRANCH  46  48
ATOM     48  O   UNL     1       6.053  -6.758  22.057  0.00  0.00    -0.503 OA
ATOM     49  H   UNL     1       6.259  -6.490  21.148  0.00  0.00    +0.292 HD
ENDBRANCH  46  48
BRANCH  45  50
ATOM     50  O   UNL     1       8.280  -5.686  23.145  0.00  0.00    -0.503 OA
ATOM     51  H   UNL     1       8.822  -5.001  22.713  0.00  0.00    +0.292 HD
ENDBRANCH  45  50
ENDBRANCH  31  43
BRANCH  37  52
ATOM     52  O   UNL     1       1.848  -3.067  30.485  0.00  0.00    -0.507 OA
ATOM     53  H   UNL     1       1.994  -4.021  30.372  0.00  0.00    +0.292 HD
ENDBRANCH  37  52
BRANCH  35  54
ATOM     54  O   UNL     1       4.369   0.854  29.547  0.00  0.00    -0.506 OA
ATOM     55  H   UNL     1       4.428   1.382  28.717  0.00  0.00    +0.292 HD
ENDBRANCH  35  54
ENDBRANCH  30  41
ENDBRANCH   1  30
TORSDOF 18
ENDMDL
MODEL 5
REMARK VINA RESULT:      -5.8      2.830      8.347
REMARK  Name = 
REMARK  18 active torsions:
REMARK  status: ('A' for Active; 'I' for Inactive)
REMARK    1  A    between atoms: C_3  and  O_50
REMARK    2  A    between atoms: C_4  and  O_49
REMARK    3  A    between atoms: C_6  and  C_7
REMARK    4  A    between atoms: C_8  and  O_20
REMARK    5  A    between atoms: C_12  and  O_19
REMARK    6  A    between atoms: C_14  and  O_18
REMARK    7  A    between atoms: O_20  and  C_21
REMARK    8  A    between atoms: C_23  and  O_48
REMARK    9  A    between atoms: C_24  and  O_33
REMARK   10  A    between atoms: C_26  and  O_32
REMARK   11  A    between atoms: C_28  and  C_30
REMARK   12  A    between atoms: C_30  and  O_31
REMARK   13  A    between atoms: O_33  and  C_34
REMARK   14  A    between atoms: C_36  and  O_47
REMARK   15  A    between atoms: C_37  and  O_46
REMARK   16  A    between atoms: C_39  and  O_45
REMARK   17  A    between atoms: C_41  and  C_43
REMARK   18  A    between atoms: C_43  and  O_44
REMARK                            x       y       z     vdW  Elec       q    Type
REMARK                         _______ _______ _______ _____ _____    ______ ____
ROOT
ATOM      1  C   UNL     1       8.163   0.296  24.515  0.00  0.00    +0.340 C 
ATOM      2  O   UNL     1       8.785   1.567  24.928  0.00  0.00    -0.331 OA
ATOM      3  C   UNL     1       9.290   2.581  23.944  0.00  0.00    +0.179 C 
ATOM      4  C   UNL     1       8.619   2.604  22.545  0.00  0.00    +0.177 C 
ATOM      5  C   UNL     1       7.432   1.682  22.623  0.00  0.00    +0.187 C 
ATOM      6  C   UNL     1       8.113   0.312  22.998  0.00  0.00    +0.214 C 
ENDROOT
BRANCH   6   7
ATOM      7  O   UNL     1       7.424  -0.818  22.455  0.00  0.00    -0.383 OA
ATOM      8  H   UNL     1       7.734  -0.912  21.532  0.00  0.00    +0.210 HD
ENDBRANCH   6   7
BRANCH   4   9
ATOM      9  O   UNL     1       8.319   3.927  22.097  0.00  0.00    -0.386 OA
ATOM     10  H   UNL     1       7.935   4.418  22.850  0.00  0.00    +0.210 HD
ENDBRANCH   4   9
BRANCH   5  11
ATOM     11  O   UNL     1       6.498   2.127  23.656  0.00  0.00    -0.340 OA
BRANCH  11  12
ATOM     12  C   UNL     1       5.206   2.654  23.310  0.00  0.00    +0.282 C 
ATOM     13  O   UNL     1       5.319   3.966  22.719  0.00  0.00    -0.341 OA
ATOM     14  C   UNL     1       5.910   4.957  23.566  0.00  0.00    +0.178 C 
ATOM     15  C   UNL     1       5.217   5.052  24.943  0.00  0.00    +0.177 C 
ATOM     16  C   UNL     1       5.030   3.667  25.569  0.00  0.00    +0.179 C 
ATOM     17  C   UNL     1       4.334   2.727  24.567  0.00  0.00    +0.201 C 
BRANCH  17  18
ATOM     18  O   UNL     1       4.132   1.435  25.155  0.00  0.00    -0.384 OA
ATOM     19  H   UNL     1       5.016   1.011  25.171  0.00  0.00    +0.210 HD
ENDBRANCH  17  18
BRANCH  16  20
ATOM     20  O   UNL     1       6.289   3.123  26.004  0.00  0.00    -0.386 OA
ATOM     21  H   UNL     1       6.111   2.292  26.487  0.00  0.00    +0.210 HD
ENDBRANCH  16  20
BRANCH  15  22
ATOM     22  O   UNL     1       3.939   5.685  24.806  0.00  0.00    -0.386 OA
ATOM     23  H   UNL     1       3.262   4.987  24.740  0.00  0.00    +0.210 HD
ENDBRANCH  15  22
BRANCH  14  24
ATOM     24  C   UNL     1       5.915   6.316  22.846  0.00  0.00    +0.190 C 
BRANCH  24  25
ATOM     25  O   UNL     1       6.623   6.230  21.610  0.00  0.00    -0.392 OA
ATOM     26  H   UNL     1       7.399   5.662  21.761  0.00  0.00    +0.210 HD
ENDBRANCH  24  25
ENDBRANCH  14  24
ENDBRANCH  11  12
ENDBRANCH   5  11
BRANCH   3  27
ATOM     27  C   UNL     1      10.831   2.655  23.713  0.00  0.00    +0.190 C 
BRANCH  27  28
ATOM     28  O   UNL     1      11.237   3.792  22.946  0.00  0.00    -0.392 OA
ATOM     29  H   UNL     1      10.691   3.834  22.146  0.00  0.00    +0.210 HD
ENDBRANCH  27  28
ENDBRANCH   3  27
BRANCH   1  30
ATOM     30  O   UNL     1       6.726  -0.124  24.731  0.00  0.00    -0.453 OA
BRANCH  30  41
ATOM     31  C   UNL     1       5.974  -1.057  26.864  0.00  0.00    +0.181 A 
ATOM     32  O   UNL     1       5.615  -2.220  27.574  0.00  0.00    -0.451 OA
ATOM     33  C   UNL     1       5.667  -3.451  26.985  0.00  0.00    +0.147 A 
ATOM     34  C   UNL     1       5.743  -3.588  25.613  0.00  0.00    +0.109 A 
ATOM     35  C   UNL     1       5.775  -4.853  25.031  0.00  0.00    +0.135 A 
ATOM     36  C   UNL     1       5.718  -5.990  25.834  0.00  0.00    +0.091 A 
ATOM     37  C   UNL     1       5.630  -5.854  27.221  0.00  0.00    +0.124 A 
ATOM     38  C   UNL     1       5.809  -2.384  24.801  0.00  0.00    +0.238 A 
ATOM     39  O   UNL     1       5.564  -2.446  23.601  0.00  0.00    -0.283 OA
ATOM     40  C   UNL     1       5.595  -4.583  27.804  0.00  0.00    +0.092 A 
ATOM     41  C   UNL     1       6.167  -1.111  25.499  0.00  0.00    +0.214 A 
BRANCH  31  43
ATOM     42  C   UNL     1       4.720   0.581  28.367  0.00  0.00    +0.015 A 
ATOM     43  C   UNL     1       5.991   0.083  27.909  0.00  0.00    +0.025 A 
ATOM     44  C   UNL     1       7.100   0.754  28.437  0.00  0.00    +0.060 A 
ATOM     45  C   UNL     1       6.930   1.908  29.244  0.00  0.00    +0.159 A 
ATOM     46  C   UNL     1       5.673   2.424  29.555  0.00  0.00    +0.158 A 
ATOM     47  C   UNL     1       4.553   1.735  29.156  0.00  0.00    +0.050 A 
BRANCH  46  48
ATOM     48  O   UNL     1       5.586   3.606  30.239  0.00  0.00    -0.503 OA
ATOM     49  H   UNL     1       5.989   3.485  31.113  0.00  0.00    +0.292 HD
ENDBRANCH  46  48
BRANCH  45  50
ATOM     50  O   UNL     1       8.028   2.571  29.725  0.00  0.00    -0.503 OA
ATOM     51  H   UNL     1       8.450   2.996  28.957  0.00  0.00    +0.292 HD
ENDBRANCH  45  50
ENDBRANCH  31  43
BRANCH  37  52
ATOM     52  O   UNL     1       5.568  -6.943  28.032  0.00  0.00    -0.507 OA
ATOM     53  H   UNL     1       5.862  -7.720  27.528  0.00  0.00    +0.292 HD
ENDBRANCH  37  52
BRANCH  35  54
ATOM     54  O   UNL     1       5.842  -5.040  23.682  0.00  0.00    -0.506 OA
ATOM     55  H   UNL     1       6.593  -4.502  23.338  0.00  0.00    +0.292 HD
ENDBRANCH  35  54
ENDBRANCH  30  41
ENDBRANCH   1  30
TORSDOF 18
ENDMDL
MODEL 6
REMARK VINA RESULT:      -5.8      2.198      4.300
REMARK  Name = 
REMARK  18 active torsions:
REMARK  status: ('A' for Active; 'I' for Inactive)
REMARK    1  A    between atoms: C_3  and  O_50
REMARK    2  A    between atoms: C_4  and  O_49
REMARK    3  A    between atoms: C_6  and  C_7
REMARK    4  A    between atoms: C_8  and  O_20
REMARK    5  A    between atoms: C_12  and  O_19
REMARK    6  A    between atoms: C_14  and  O_18
REMARK    7  A    between atoms: O_20  and  C_21
REMARK    8  A    between atoms: C_23  and  O_48
REMARK    9  A    between atoms: C_24  and  O_33
REMARK   10  A    between atoms: C_26  and  O_32
REMARK   11  A    between atoms: C_28  and  C_30
REMARK   12  A    between atoms: C_30  and  O_31
REMARK   13  A    between atoms: O_33  and  C_34
REMARK   14  A    between atoms: C_36  and  O_47
REMARK   15  A    between atoms: C_37  and  O_46
REMARK   16  A    between atoms: C_39  and  O_45
REMARK   17  A    between atoms: C_41  and  C_43
REMARK   18  A    between atoms: C_43  and  O_44
REMARK                            x       y       z     vdW  Elec       q    Type
REMARK                         _______ _______ _______ _____ _____    ______ ____
ROOT
ATOM      1  C   UNL     1       5.675  -1.684  27.074  0.00  0.00    +0.340 C 
ATOM      2  O   UNL     1       6.186  -3.056  27.252  0.00  0.00    -0.331 OA
ATOM      3  C   UNL     1       5.291  -4.260  27.263  0.00  0.00    +0.179 C 
ATOM      4  C   UNL     1       3.952  -4.155  26.485  0.00  0.00    +0.177 C 
ATOM      5  C   UNL     1       4.007  -2.865  25.712  0.00  0.00    +0.187 C 
ATOM      6  C   UNL     1       4.176  -1.805  26.864  0.00  0.00    +0.214 C 
ENDROOT
BRANCH   6   7
ATOM      7  O   UNL     1       3.557  -0.551  26.562  0.00  0.00    -0.383 OA
ATOM      8  H   UNL     1       2.604  -0.736  26.446  0.00  0.00    +0.210 HD
ENDBRANCH   6   7
BRANCH   4   9
ATOM      9  O   UNL     1       3.679  -5.313  25.696  0.00  0.00    -0.386 OA
ATOM     10  H   UNL     1       2.772  -5.613  25.907  0.00  0.00    +0.210 HD
ENDBRANCH   4   9
BRANCH   5  11
ATOM     11  O   UNL     1       5.145  -2.859  24.794  0.00  0.00    -0.340 OA
BRANCH  11  12
ATOM     12  C   UNL     1       4.960  -3.056  23.382  0.00  0.00    +0.282 C 
ATOM     13  O   UNL     1       4.761  -4.452  23.072  0.00  0.00    -0.341 OA
ATOM     14  C   UNL     1       5.853  -5.307  23.427  0.00  0.00    +0.178 C 
ATOM     15  C   UNL     1       7.201  -4.821  22.850  0.00  0.00    +0.177 C 
ATOM     16  C   UNL     1       7.412  -3.327  23.112  0.00  0.00    +0.179 C 
ATOM     17  C   UNL     1       6.186  -2.530  22.631  0.00  0.00    +0.201 C 
BRANCH  17  18
ATOM     18  O   UNL     1       6.387  -1.127  22.850  0.00  0.00    -0.384 OA
ATOM     19  H   UNL     1       5.604  -0.685  22.461  0.00  0.00    +0.210 HD
ENDBRANCH  17  18
BRANCH  16  20
ATOM     20  O   UNL     1       7.677  -3.080  24.505  0.00  0.00    -0.386 OA
ATOM     21  H   UNL     1       7.808  -2.119  24.624  0.00  0.00    +0.210 HD
ENDBRANCH  16  20
BRANCH  15  22
ATOM     22  O   UNL     1       7.247  -5.064  21.439  0.00  0.00    -0.386 OA
ATOM     23  H   UNL     1       6.397  -5.460  21.174  0.00  0.00    +0.210 HD
ENDBRANCH  15  22
BRANCH  14  24
ATOM     24  C   UNL     1       5.544  -6.749  22.990  0.00  0.00    +0.190 C 
BRANCH  24  25
ATOM     25  O   UNL     1       4.664  -7.380  23.919  0.00  0.00    -0.392 OA
ATOM     26  H   UNL     1       5.191  -7.615  24.703  0.00  0.00    +0.210 HD
ENDBRANCH  24  25
ENDBRANCH  14  24
ENDBRANCH  11  12
ENDBRANCH   5  11
BRANCH   3  27
ATOM     27  C   UNL     1       4.964  -4.900  28.648  0.00  0.00    +0.190 C 
BRANCH  27  28
ATOM     28  O   UNL     1       6.128  -5.286  29.385  0.00  0.00    -0.392 OA
ATOM     29  H   UNL     1       6.519  -6.064  28.959  0.00  0.00    +0.210 HD
ENDBRANCH  27  28
ENDBRANCH   3  27
BRANCH   1  30
ATOM     30  O   UNL     1       5.939  -0.760  25.907  0.00  0.00    -0.453 OA
BRANCH  30  41
ATOM     31  C   UNL     1       6.249   1.664  25.780  0.00  0.00    +0.181 A 
ATOM     32  O   UNL     1       7.108   2.718  25.410  0.00  0.00    -0.451 OA
ATOM     33  C   UNL     1       8.326   2.472  24.844  0.00  0.00    +0.147 A 
ATOM     34  C   UNL     1       8.910   1.222  24.913  0.00  0.00    +0.109 A 
ATOM     35  C   UNL     1      10.163   0.997  24.347  0.00  0.00    +0.135 A 
ATOM     36  C   UNL     1      10.840   2.039  23.717  0.00  0.00    +0.091 A 
ATOM     37  C   UNL     1      10.256   3.306  23.656  0.00  0.00    +0.124 A 
ATOM     38  C   UNL     1       8.176   0.152  25.569  0.00  0.00    +0.238 A 
ATOM     39  O   UNL     1       8.769  -0.861  25.925  0.00  0.00    -0.283 OA
ATOM     40  C   UNL     1       8.999   3.531  24.227  0.00  0.00    +0.092 A 
ATOM     41  C   UNL     1       6.712   0.364  25.787  0.00  0.00    +0.214 A 
BRANCH  31  43
ATOM     42  C   UNL     1       4.666   2.545  27.577  0.00  0.00    +0.015 A 
ATOM     43  C   UNL     1       4.912   2.331  26.174  0.00  0.00    +0.025 A 
ATOM     44  C   UNL     1       3.855   2.710  25.337  0.00  0.00    +0.060 A 
ATOM     45  C   UNL     1       2.617   3.135  25.883  0.00  0.00    +0.159 A 
ATOM     46  C   UNL     1       2.390   3.205  27.257  0.00  0.00    +0.158 A 
ATOM     47  C   UNL     1       3.432   2.954  28.117  0.00  0.00    +0.050 A 
BRANCH  46  48
ATOM     48  O   UNL     1       1.136   3.509  27.713  0.00  0.00    -0.503 OA
ATOM     49  H   UNL     1       0.503   3.353  26.995  0.00  0.00    +0.292 HD
ENDBRANCH  46  48
BRANCH  45  50
ATOM     50  O   UNL     1       1.583   3.470  25.049  0.00  0.00    -0.503 OA
ATOM     51  H   UNL     1       1.244   4.327  25.365  0.00  0.00    +0.292 HD
ENDBRANCH  45  50
ENDBRANCH  31  43
BRANCH  37  52
ATOM     52  O   UNL     1      10.892   4.344  23.053  0.00  0.00    -0.507 OA
ATOM     53  H   UNL     1      10.910   5.095  23.669  0.00  0.00    +0.292 HD
ENDBRANCH  37  52
BRANCH  35  54
ATOM     54  O   UNL     1      10.783  -0.216  24.394  0.00  0.00    -0.506 OA
ATOM     55  H   UNL     1      11.150  -0.406  23.499  0.00  0.00    +0.292 HD
ENDBRANCH  35  54
ENDBRANCH  30  41
ENDBRANCH   1  30
TORSDOF 18
ENDMDL
MODEL 7
REMARK VINA RESULT:      -5.8      4.066      8.211
REMARK  Name = 
REMARK  18 active torsions:
REMARK  status: ('A' for Active; 'I' for Inactive)
REMARK    1  A    between atoms: C_3  and  O_50
REMARK    2  A    between atoms: C_4  and  O_49
REMARK    3  A    between atoms: C_6  and  C_7
REMARK    4  A    between atoms: C_8  and  O_20
REMARK    5  A    between atoms: C_12  and  O_19
REMARK    6  A    between atoms: C_14  and  O_18
REMARK    7  A    between atoms: O_20  and  C_21
REMARK    8  A    between atoms: C_23  and  O_48
REMARK    9  A    between atoms: C_24  and  O_33
REMARK   10  A    between atoms: C_26  and  O_32
REMARK   11  A    between atoms: C_28  and  C_30
REMARK   12  A    between atoms: C_30  and  O_31
REMARK   13  A    between atoms: O_33  and  C_34
REMARK   14  A    between atoms: C_36  and  O_47
REMARK   15  A    between atoms: C_37  and  O_46
REMARK   16  A    between atoms: C_39  and  O_45
REMARK   17  A    between atoms: C_41  and  C_43
REMARK   18  A    between atoms: C_43  and  O_44
REMARK                            x       y       z     vdW  Elec       q    Type
REMARK                         _______ _______ _______ _____ _____    ______ ____
ROOT
ATOM      1  C   UNL     1       6.937   1.744  26.034  0.00  0.00    +0.340 C 
ATOM      2  O   UNL     1       5.785   0.834  25.888  0.00  0.00    -0.331 OA
ATOM      3  C   UNL     1       4.649   0.800  26.868  0.00  0.00    +0.179 C 
ATOM      4  C   UNL     1       4.360   2.102  27.662  0.00  0.00    +0.177 C 
ATOM      5  C   UNL     1       5.221   3.176  27.053  0.00  0.00    +0.187 C 
ATOM      6  C   UNL     1       6.667   2.589  27.266  0.00  0.00    +0.214 C 
ENDROOT
BRANCH   6   7
ATOM      7  O   UNL     1       7.655   3.604  27.467  0.00  0.00    -0.383 OA
ATOM      8  H   UNL     1       7.516   4.267  26.762  0.00  0.00    +0.210 HD
ENDBRANCH   6   7
BRANCH   4   9
ATOM      9  O   UNL     1       2.968   2.415  27.724  0.00  0.00    -0.386 OA
ATOM     10  H   UNL     1       2.754   2.649  28.649  0.00  0.00    +0.210 HD
ENDBRANCH   4   9
BRANCH   5  11
ATOM     11  O   UNL     1       4.906   3.350  25.635  0.00  0.00    -0.340 OA
BRANCH  11  12
ATOM     12  C   UNL     1       4.194   4.509  25.171  0.00  0.00    +0.282 C 
ATOM     13  O   UNL     1       2.789   4.422  25.491  0.00  0.00    -0.341 OA
ATOM     14  C   UNL     1       2.109   3.308  24.903  0.00  0.00    +0.178 C 
ATOM     15  C   UNL     1       2.312   3.225  23.375  0.00  0.00    +0.177 C 
ATOM     16  C   UNL     1       3.789   3.374  23.001  0.00  0.00    +0.179 C 
ATOM     17  C   UNL     1       4.372   4.641  23.656  0.00  0.00    +0.201 C 
BRANCH  17  18
ATOM     18  O   UNL     1       5.749   4.802  23.290  0.00  0.00    -0.384 OA
ATOM     19  H   UNL     1       6.222   4.052  23.707  0.00  0.00    +0.210 HD
ENDBRANCH  17  18
BRANCH  16  20
ATOM     20  O   UNL     1       4.538   2.204  23.378  0.00  0.00    -0.386 OA
ATOM     21  H   UNL     1       3.937   1.434  23.340  0.00  0.00    +0.210 HD
ENDBRANCH  16  20
BRANCH  15  22
ATOM     22  O   UNL     1       1.554   4.251  22.723  0.00  0.00    -0.386 OA
ATOM     23  H   UNL     1       0.716   3.859  22.419  0.00  0.00    +0.210 HD
ENDBRANCH  15  22
BRANCH  14  24
ATOM     24  C   UNL     1       0.615   3.364  25.268  0.00  0.00    +0.190 C 
BRANCH  24  25
ATOM     25  O   UNL     1       0.444   3.488  26.679  0.00  0.00    -0.392 OA
ATOM     26  H   UNL     1      -0.097   4.281  26.836  0.00  0.00    +0.210 HD
ENDBRANCH  24  25
ENDBRANCH  14  24
ENDBRANCH  11  12
ENDBRANCH   5  11
BRANCH   3  27
ATOM     27  C   UNL     1       4.617  -0.376  27.892  0.00  0.00    +0.190 C 
BRANCH  27  28
ATOM     28  O   UNL     1       4.088  -0.004  29.168  0.00  0.00    -0.392 OA
ATOM     29  H   UNL     1       3.699  -0.790  29.581  0.00  0.00    +0.210 HD
ENDBRANCH  27  28
ENDBRANCH   3  27
BRANCH   1  30
ATOM     30  O   UNL     1       7.313   2.887  25.118  0.00  0.00    -0.453 OA
BRANCH  30  41
ATOM     31  C   UNL     1       9.179   2.145  23.720  0.00  0.00    +0.181 A 
ATOM     32  O   UNL     1      10.426   2.479  23.156  0.00  0.00    -0.451 OA
ATOM     33  C   UNL     1      11.012   3.688  23.403  0.00  0.00    +0.147 A 
ATOM     34  C   UNL     1      10.289   4.744  23.920  0.00  0.00    +0.109 A 
ATOM     35  C   UNL     1      10.901   5.975  24.145  0.00  0.00    +0.135 A 
ATOM     36  C   UNL     1      12.248   6.149  23.837  0.00  0.00    +0.091 A 
ATOM     37  C   UNL     1      12.979   5.085  23.304  0.00  0.00    +0.124 A 
ATOM     38  C   UNL     1       8.886   4.530  24.240  0.00  0.00    +0.238 A 
ATOM     39  O   UNL     1       8.146   5.495  24.396  0.00  0.00    -0.283 OA
ATOM     40  C   UNL     1      12.362   3.851  23.076  0.00  0.00    +0.092 A 
ATOM     41  C   UNL     1       8.421   3.113  24.345  0.00  0.00    +0.214 A 
BRANCH  31  43
ATOM     42  C   UNL     1       7.693   0.281  22.809  0.00  0.00    +0.015 A 
ATOM     43  C   UNL     1       8.956   0.651  23.391  0.00  0.00    +0.025 A 
ATOM     44  C   UNL     1       9.814  -0.426  23.644  0.00  0.00    +0.060 A 
ATOM     45  C   UNL     1       9.375  -1.761  23.454  0.00  0.00    +0.159 A 
ATOM     46  C   UNL     1       8.091  -2.068  23.004  0.00  0.00    +0.158 A 
ATOM     47  C   UNL     1       7.253  -1.045  22.633  0.00  0.00    +0.050 A 
BRANCH  46  48
ATOM     48  O   UNL     1       7.696  -3.378  22.955  0.00  0.00    -0.503 OA
ATOM     49  H   UNL     1       6.844  -3.423  22.495  0.00  0.00    +0.292 HD
ENDBRANCH  46  48
BRANCH  45  50
ATOM     50  O   UNL     1      10.216  -2.804  23.738  0.00  0.00    -0.503 OA
ATOM     51  H   UNL     1      11.106  -2.522  23.458  0.00  0.00    +0.292 HD
ENDBRANCH  45  50
ENDBRANCH  31  43
BRANCH  37  52
ATOM     52  O   UNL     1      14.293   5.224  22.988  0.00  0.00    -0.507 OA
ATOM     53  H   UNL     1      14.736   5.699  23.711  0.00  0.00    +0.292 HD
ENDBRANCH  37  52
BRANCH  35  54
ATOM     54  O   UNL     1      10.228   7.049  24.647  0.00  0.00    -0.506 OA
ATOM     55  H   UNL     1      10.640   7.291  25.509  0.00  0.00    +0.292 HD
ENDBRANCH  35  54
ENDBRANCH  30  41
ENDBRANCH   1  30
TORSDOF 18
ENDMDL
MODEL 8
REMARK VINA RESULT:      -5.8      1.970      5.455
REMARK  Name = 
REMARK  18 active torsions:
REMARK  status: ('A' for Active; 'I' for Inactive)
REMARK    1  A    between atoms: C_3  and  O_50
REMARK    2  A    between atoms: C_4  and  O_49
REMARK    3  A    between atoms: C_6  and  C_7
REMARK    4  A    between atoms: C_8  and  O_20
REMARK    5  A    between atoms: C_12  and  O_19
REMARK    6  A    between atoms: C_14  and  O_18
REMARK    7  A    between atoms: O_20  and  C_21
REMARK    8  A    between atoms: C_23  and  O_48
REMARK    9  A    between atoms: C_24  and  O_33
REMARK   10  A    between atoms: C_26  and  O_32
REMARK   11  A    between atoms: C_28  and  C_30
REMARK   12  A    between atoms: C_30  and  O_31
REMARK   13  A    between atoms: O_33  and  C_34
REMARK   14  A    between atoms: C_36  and  O_47
REMARK   15  A    between atoms: C_37  and  O_46
REMARK   16  A    between atoms: C_39  and  O_45
REMARK   17  A    between atoms: C_41  and  C_43
REMARK   18  A    between atoms: C_43  and  O_44
REMARK                            x       y       z     vdW  Elec       q    Type
REMARK                         _______ _______ _______ _____ _____    ______ ____
ROOT
ATOM      1  C   UNL     1       6.078  -1.859  23.753  0.00  0.00    +0.340 C 
ATOM      2  O   UNL     1       5.193  -2.775  23.009  0.00  0.00    -0.331 OA
ATOM      3  C   UNL     1       5.593  -4.174  22.645  0.00  0.00    +0.179 C 
ATOM      4  C   UNL     1       6.640  -4.870  23.556  0.00  0.00    +0.177 C 
ATOM      5  C   UNL     1       6.832  -3.974  24.750  0.00  0.00    +0.187 C 
ATOM      6  C   UNL     1       7.338  -2.644  24.076  0.00  0.00    +0.214 C 
ENDROOT
BRANCH   6   7
ATOM      7  O   UNL     1       8.248  -1.912  24.902  0.00  0.00    -0.383 OA
ATOM      8  H   UNL     1       8.222  -0.987  24.588  0.00  0.00    +0.210 HD
ENDBRANCH   6   7
BRANCH   4   9
ATOM      9  O   UNL     1       6.288  -6.218  23.872  0.00  0.00    -0.386 OA
ATOM     10  H   UNL     1       6.085  -6.679  23.033  0.00  0.00    +0.210 HD
ENDBRANCH   4   9
BRANCH   5  11
ATOM     11  O   UNL     1       5.569  -3.780  25.461  0.00  0.00    -0.340 OA
BRANCH  11  12
ATOM     12  C   UNL     1       5.241  -4.568  26.618  0.00  0.00    +0.282 C 
ATOM     13  O   UNL     1       4.766  -5.877  26.239  0.00  0.00    -0.341 OA
ATOM     14  C   UNL     1       3.578  -5.876  25.441  0.00  0.00    +0.178 C 
ATOM     15  C   UNL     1       2.433  -5.059  26.078  0.00  0.00    +0.177 C 
ATOM     16  C   UNL     1       2.923  -3.685  26.543  0.00  0.00    +0.179 C 
ATOM     17  C   UNL     1       4.167  -3.845  27.436  0.00  0.00    +0.201 C 
BRANCH  17  18
ATOM     18  O   UNL     1       4.617  -2.563  27.897  0.00  0.00    -0.384 OA
ATOM     19  H   UNL     1       4.483  -1.951  27.144  0.00  0.00    +0.210 HD
ENDBRANCH  17  18
BRANCH  16  20
ATOM     20  O   UNL     1       3.195  -2.827  25.420  0.00  0.00    -0.386 OA
ATOM     21  H   UNL     1       2.620  -3.103  24.680  0.00  0.00    +0.210 HD
ENDBRANCH  16  20
BRANCH  15  22
ATOM     22  O   UNL     1       1.886  -5.769  27.195  0.00  0.00    -0.386 OA
ATOM     23  H   UNL     1       2.082  -6.716  27.076  0.00  0.00    +0.210 HD
ENDBRANCH  15  22
BRANCH  14  24
ATOM     24  C   UNL     1       3.143  -7.325  25.159  0.00  0.00    +0.190 C 
BRANCH  24  25
ATOM     25  O   UNL     1       3.774  -7.821  23.980  0.00  0.00    -0.392 OA
ATOM     26  H   UNL     1       3.150  -8.436  23.555  0.00  0.00    +0.210 HD
ENDBRANCH  24  25
ENDBRANCH  14  24
ENDBRANCH  11  12
ENDBRANCH   5  11
BRANCH   3  27
ATOM     27  C   UNL     1       6.026  -4.438  21.170  0.00  0.00    +0.190 C 
BRANCH  27  28
ATOM     28  O   UNL     1       5.917  -5.811  20.783  0.00  0.00    -0.392 OA
ATOM     29  H   UNL     1       5.003  -6.099  20.925  0.00  0.00    +0.210 HD
ENDBRANCH  27  28
ENDBRANCH   3  27
BRANCH   1  30
ATOM     30  O   UNL     1       5.855  -1.311  25.144  0.00  0.00    -0.453 OA
BRANCH  30  41
ATOM     31  C   UNL     1       6.615   1.006  25.348  0.00  0.00    +0.181 A 
ATOM     32  O   UNL     1       6.532   2.207  26.079  0.00  0.00    -0.451 OA
ATOM     33  C   UNL     1       5.757   2.299  27.200  0.00  0.00    +0.147 A 
ATOM     34  C   UNL     1       4.781   1.363  27.477  0.00  0.00    +0.109 A 
ATOM     35  C   UNL     1       3.988   1.486  28.615  0.00  0.00    +0.135 A 
ATOM     36  C   UNL     1       4.168   2.567  29.476  0.00  0.00    +0.091 A 
ATOM     37  C   UNL     1       5.147   3.522  29.191  0.00  0.00    +0.124 A 
ATOM     38  C   UNL     1       4.621   0.241  26.566  0.00  0.00    +0.238 A 
ATOM     39  O   UNL     1       3.590  -0.423  26.596  0.00  0.00    -0.283 OA
ATOM     40  C   UNL     1       5.941   3.397  28.047  0.00  0.00    +0.092 A 
ATOM     41  C   UNL     1       5.744  -0.030  25.616  0.00  0.00    +0.214 A 
BRANCH  31  43
ATOM     42  C   UNL     1       9.000   1.713  24.776  0.00  0.00    +0.015 A 
ATOM     43  C   UNL     1       7.730   1.229  24.300  0.00  0.00    +0.025 A 
ATOM     44  C   UNL     1       7.653   1.078  22.910  0.00  0.00    +0.060 A 
ATOM     45  C   UNL     1       8.714   1.509  22.076  0.00  0.00    +0.159 A 
ATOM     46  C   UNL     1       9.876   2.090  22.584  0.00  0.00    +0.158 A 
ATOM     47  C   UNL     1      10.047   2.154  23.945  0.00  0.00    +0.050 A 
BRANCH  46  48
ATOM     48  O   UNL     1      10.808   2.590  21.715  0.00  0.00    -0.503 OA
ATOM     49  H   UNL     1      10.385   2.721  20.853  0.00  0.00    +0.292 HD
ENDBRANCH  46  48
BRANCH  45  50
ATOM     50  O   UNL     1       8.608   1.384  20.716  0.00  0.00    -0.503 OA
ATOM     51  H   UNL     1       7.655   1.350  20.518  0.00  0.00    +0.292 HD
ENDBRANCH  45  50
ENDBRANCH  31  43
BRANCH  37  52
ATOM     52  O   UNL     1       5.345   4.589  30.008  0.00  0.00    -0.507 OA
ATOM     53  H   UNL     1       4.602   5.204  29.898  0.00  0.00    +0.292 HD
ENDBRANCH  37  52
BRANCH  35  54
ATOM     54  O   UNL     1       3.007   0.592  28.929  0.00  0.00    -0.506 OA
ATOM     55  H   UNL     1       2.156   0.936  28.571  0.00  0.00    +0.292 HD
ENDBRANCH  35  54
ENDBRANCH  30  41
ENDBRANCH   1  30
TORSDOF 18
ENDMDL
MODEL 9
REMARK VINA RESULT:      -5.6      3.161      8.641
REMARK  Name = 
REMARK  18 active torsions:
REMARK  status: ('A' for Active; 'I' for Inactive)
REMARK    1  A    between atoms: C_3  and  O_50
REMARK    2  A    between atoms: C_4  and  O_49
REMARK    3  A    between atoms: C_6  and  C_7
REMARK    4  A    between atoms: C_8  and  O_20
REMARK    5  A    between atoms: C_12  and  O_19
REMARK    6  A    between atoms: C_14  and  O_18
REMARK    7  A    between atoms: O_20  and  C_21
REMARK    8  A    between atoms: C_23  and  O_48
REMARK    9  A    between atoms: C_24  and  O_33
REMARK   10  A    between atoms: C_26  and  O_32
REMARK   11  A    between atoms: C_28  and  C_30
REMARK   12  A    between atoms: C_30  and  O_31
REMARK   13  A    between atoms: O_33  and  C_34
REMARK   14  A    between atoms: C_36  and  O_47
REMARK   15  A    between atoms: C_37  and  O_46
REMARK   16  A    between atoms: C_39  and  O_45
REMARK   17  A    between atoms: C_41  and  C_43
REMARK   18  A    between atoms: C_43  and  O_44
REMARK                            x       y       z     vdW  Elec       q    Type
REMARK                         _______ _______ _______ _____ _____    ______ ____
ROOT
ATOM      1  C   UNL     1       4.656   0.299  26.310  0.00  0.00    +0.340 C 
ATOM      2  O   UNL     1       3.454   1.150  26.391  0.00  0.00    -0.331 OA
ATOM      3  C   UNL     1       3.408   2.414  27.197  0.00  0.00    +0.179 C 
ATOM      4  C   UNL     1       4.753   3.154  27.430  0.00  0.00    +0.177 C 
ATOM      5  C   UNL     1       5.774   2.471  26.561  0.00  0.00    +0.187 C 
ATOM      6  C   UNL     1       5.736   0.998  27.116  0.00  0.00    +0.214 C 
ENDROOT
BRANCH   6   7
ATOM      7  O   UNL     1       7.003   0.340  27.031  0.00  0.00    -0.383 OA
ATOM      8  H   UNL     1       6.998  -0.161  26.191  0.00  0.00    +0.210 HD
ENDBRANCH   6   7
BRANCH   4   9
ATOM      9  O   UNL     1       4.648   4.565  27.234  0.00  0.00    -0.386 OA
ATOM     10  H   UNL     1       5.388   4.843  26.657  0.00  0.00    +0.210 HD
ENDBRANCH   4   9
BRANCH   5  11
ATOM     11  O   UNL     1       5.381   2.535  25.153  0.00  0.00    -0.340 OA
BRANCH  11  12
ATOM     12  C   UNL     1       6.168   3.263  24.196  0.00  0.00    +0.282 C 
ATOM     13  O   UNL     1       6.113   4.683  24.447  0.00  0.00    -0.341 OA
ATOM     14  C   UNL     1       4.803   5.256  24.364  0.00  0.00    +0.178 C 
ATOM     15  C   UNL     1       4.091   4.922  23.035  0.00  0.00    +0.177 C 
ATOM     16  C   UNL     1       4.185   3.428  22.713  0.00  0.00    +0.179 C 
ATOM     17  C   UNL     1       5.653   2.967  22.785  0.00  0.00    +0.201 C 
BRANCH  17  18
ATOM     18  O   UNL     1       5.752   1.573  22.459  0.00  0.00    -0.384 OA
ATOM     19  H   UNL     1       6.691   1.335  22.605  0.00  0.00    +0.210 HD
ENDBRANCH  17  18
BRANCH  16  20
ATOM     20  O   UNL     1       3.354   2.656  23.598  0.00  0.00    -0.386 OA
ATOM     21  H   UNL     1       2.442   3.004  23.539  0.00  0.00    +0.210 HD
ENDBRANCH  16  20
BRANCH  15  22
ATOM     22  O   UNL     1       4.673   5.674  21.964  0.00  0.00    -0.386 OA
ATOM     23  H   UNL     1       3.954   6.122  21.484  0.00  0.00    +0.210 HD
ENDBRANCH  15  22
BRANCH  14  24
ATOM     24  C   UNL     1       4.889   6.775  24.588  0.00  0.00    +0.190 C 
BRANCH  24  25
ATOM     25  O   UNL     1       5.296   7.066  25.924  0.00  0.00    -0.392 OA
ATOM     26  H   UNL     1       4.891   6.396  26.502  0.00  0.00    +0.210 HD
ENDBRANCH  24  25
ENDBRANCH  14  24
ENDBRANCH  11  12
ENDBRANCH   5  11
BRANCH   3  27
ATOM     27  C   UNL     1       2.671   2.366  28.571  0.00  0.00    +0.190 C 
BRANCH  27  28
ATOM     28  O   UNL     1       2.472   3.656  29.155  0.00  0.00    -0.392 OA
ATOM     29  H   UNL     1       1.649   4.029  28.805  0.00  0.00    +0.210 HD
ENDBRANCH  27  28
ENDBRANCH   3  27
BRANCH   1  30
ATOM     30  O   UNL     1       5.500   0.033  25.083  0.00  0.00    -0.453 OA
BRANCH  30  41
ATOM     31  C   UNL     1       7.181  -1.230  23.832  0.00  0.00    +0.181 A 
ATOM     32  O   UNL     1       7.479  -2.422  23.144  0.00  0.00    -0.451 OA
ATOM     33  C   UNL     1       6.542  -3.404  22.993  0.00  0.00    +0.147 A 
ATOM     34  C   UNL     1       5.400  -3.432  23.769  0.00  0.00    +0.109 A 
ATOM     35  C   UNL     1       4.465  -4.453  23.613  0.00  0.00    +0.135 A 
ATOM     36  C   UNL     1       4.687  -5.462  22.679  0.00  0.00    +0.091 A 
ATOM     37  C   UNL     1       5.846  -5.443  21.901  0.00  0.00    +0.124 A 
ATOM     38  C   UNL     1       5.191  -2.361  24.730  0.00  0.00    +0.238 A 
ATOM     39  O   UNL     1       4.377  -2.507  25.636  0.00  0.00    -0.283 OA
ATOM     40  C   UNL     1       6.785  -4.417  22.060  0.00  0.00    +0.092 A 
ATOM     41  C   UNL     1       6.014  -1.123  24.560  0.00  0.00    +0.214 A 
BRANCH  31  43
ATOM     42  C   UNL     1       9.325  -0.151  24.700  0.00  0.00    +0.015 A 
ATOM     43  C   UNL     1       8.397  -0.302  23.609  0.00  0.00    +0.025 A 
ATOM     44  C   UNL     1       8.695   0.478  22.485  0.00  0.00    +0.060 A 
ATOM     45  C   UNL     1       9.752   1.422  22.518  0.00  0.00    +0.159 A 
ATOM     46  C   UNL     1      10.544   1.617  23.649  0.00  0.00    +0.158 A 
ATOM     47  C   UNL     1      10.365   0.797  24.737  0.00  0.00    +0.050 A 
BRANCH  46  48
ATOM     48  O   UNL     1      11.469   2.626  23.652  0.00  0.00    -0.503 OA
ATOM     49  H   UNL     1      11.033   3.441  23.944  0.00  0.00    +0.292 HD
ENDBRANCH  46  48
BRANCH  45  50
ATOM     50  O   UNL     1      10.008   2.200  21.420  0.00  0.00    -0.503 OA
ATOM     51  H   UNL     1       9.781   1.659  20.643  0.00  0.00    +0.292 HD
ENDBRANCH  45  50
ENDBRANCH  31  43
BRANCH  37  52
ATOM     52  O   UNL     1       6.094  -6.414  20.984  0.00  0.00    -0.507 OA
ATOM     53  H   UNL     1       5.581  -7.203  21.223  0.00  0.00    +0.292 HD
ENDBRANCH  37  52
BRANCH  35  54
ATOM     54  O   UNL     1       3.326  -4.527  24.359  0.00  0.00    -0.506 OA
ATOM     55  H   UNL     1       2.997  -5.456  24.320  0.00  0.00    +0.292 HD
ENDBRANCH  35  54
ENDBRANCH  30  41
ENDBRANCH   1  30
TORSDOF 18
ENDMDL
