MODEL 1
REMARK VINA RESULT:      -7.4      0.000      0.000
REMARK  Name = 
REMARK  23 active torsions:
REMARK  status: ('A' for Active; 'I' for Inactive)
REMARK    1  A    between atoms: C_1  and  C_2
REMARK    2  A    between atoms: C_3  and  O_62
REMARK    3  A    between atoms: C_5  and  O_61
REMARK    4  A    between atoms: C_7  and  O_60
REMARK    5  A    between atoms: C_8  and  O_11
REMARK    6  A    between atoms: O_11  and  C_12
REMARK    7  A    between atoms: C_13  and  O_59
REMARK    8  A    between atoms: C_15  and  O_58
REMARK    9  A    between atoms: C_17  and  C_56
REMARK   10  A    between atoms: C_19  and  O_21
REMARK   11  A    between atoms: O_21  and  C_22
REMARK   12  A    between atoms: C_24  and  O_55
REMARK   13  A    between atoms: C_29  and  C_47
REMARK   14  A    between atoms: C_30  and  O_33
REMARK   15  A    between atoms: O_33  and  C_34
REMARK   16  A    between atoms: C_36  and  O_46
REMARK   17  A    between atoms: C_37  and  O_45
REMARK   18  A    between atoms: C_38  and  O_44
REMARK   19  A    between atoms: C_40  and  C_42
REMARK   20  A    between atoms: C_42  and  O_43
REMARK   21  A    between atoms: C_49  and  O_54
REMARK   22  A    between atoms: C_50  and  O_53
REMARK   23  A    between atoms: C_56  and  O_57
REMARK                            x       y       z     vdW  Elec       q    Type
REMARK                         _______ _______ _______ _____ _____    ______ ____
ROOT
ATOM      1  C   UNL     1       6.895   1.446  25.783  0.00  0.00    +0.131 A 
ATOM      2  C   UNL     1       6.118   0.460  25.143  0.00  0.00    +0.093 A 
ATOM      3  C   UNL     1       5.298  -0.419  25.894  0.00  0.00    +0.147 A 
ATOM      4  O   UNL     1       4.567  -1.400  25.235  0.00  0.00    -0.451 OA
ATOM      5  C   UNL     1       3.918  -2.403  25.988  0.00  0.00    +0.181 A 
ATOM      6  C   UNL     1       3.800  -2.366  27.340  0.00  0.00    +0.214 A 
ATOM      7  C   UNL     1       4.311  -1.133  28.014  0.00  0.00    +0.238 A 
ATOM      8  O   UNL     1       3.901  -0.783  29.116  0.00  0.00    -0.283 OA
ATOM      9  C   UNL     1       5.245  -0.278  27.274  0.00  0.00    +0.109 A 
ATOM     10  C   UNL     1       6.017   0.693  27.911  0.00  0.00    +0.135 A 
ATOM     11  C   UNL     1       6.833   1.552  27.172  0.00  0.00    +0.092 A 
ENDROOT
BRANCH   5  12
ATOM     12  C   UNL     1       3.294  -3.492  25.152  0.00  0.00    +0.025 A 
ATOM     13  C   UNL     1       1.907  -3.747  25.198  0.00  0.00    +0.015 A 
ATOM     14  C   UNL     1       1.282  -4.671  24.350  0.00  0.00    +0.050 A 
ATOM     15  C   UNL     1       2.050  -5.402  23.471  0.00  0.00    +0.158 A 
ATOM     16  C   UNL     1       3.430  -5.223  23.438  0.00  0.00    +0.159 A 
ATOM     17  C   UNL     1       4.056  -4.274  24.269  0.00  0.00    +0.060 A 
BRANCH  16  18
ATOM     18  O   UNL     1       4.125  -6.006  22.555  0.00  0.00    -0.503 OA
ATOM     19  H   UNL     1       5.070  -5.798  22.644  0.00  0.00    +0.292 HD
ENDBRANCH  16  18
BRANCH  15  20
ATOM     20  O   UNL     1       1.441  -6.301  22.644  0.00  0.00    -0.503 OA
ATOM     21  H   UNL     1       1.577  -5.948  21.743  0.00  0.00    +0.292 HD
ENDBRANCH  15  20
ENDBRANCH   5  12
BRANCH  10  22
ATOM     22  O   UNL     1       6.021   0.814  29.274  0.00  0.00    -0.506 OA
ATOM     23  H   UNL     1       5.142   1.063  29.601  0.00  0.00    +0.292 HD
ENDBRANCH  10  22
BRANCH   6  24
ATOM     24  O   UNL     1       3.136  -3.368  28.076  0.00  0.00    -0.453 OA
BRANCH  24  25
ATOM     25  C   UNL     1       3.887  -4.061  29.101  0.00  0.00    +0.340 C 
ATOM     26  O   UNL     1       5.255  -4.280  28.739  0.00  0.00    -0.331 OA
ATOM     27  C   UNL     1       5.425  -5.177  27.643  0.00  0.00    +0.179 C 
ATOM     28  C   UNL     1       4.879  -6.571  27.981  0.00  0.00    +0.177 C 
ATOM     29  C   UNL     1       3.424  -6.503  28.456  0.00  0.00    +0.180 C 
ATOM     30  C   UNL     1       3.214  -5.402  29.500  0.00  0.00    +0.214 C 
BRANCH  30  31
ATOM     31  O   UNL     1       1.816  -5.223  29.776  0.00  0.00    -0.383 OA
ATOM     32  H   UNL     1       1.518  -5.984  30.304  0.00  0.00    +0.210 HD
ENDBRANCH  30  31
BRANCH  29  33
ATOM     33  O   UNL     1       3.068  -7.779  29.017  0.00  0.00    -0.386 OA
ATOM     34  H   UNL     1       3.541  -7.868  29.865  0.00  0.00    +0.210 HD
ENDBRANCH  29  33
BRANCH  28  35
ATOM     35  O   UNL     1       4.963  -7.460  26.853  0.00  0.00    -0.386 OA
ATOM     36  H   UNL     1       5.905  -7.586  26.633  0.00  0.00    +0.210 HD
ENDBRANCH  28  35
BRANCH  27  37
ATOM     37  C   UNL     1       6.918  -5.251  27.290  0.00  0.00    +0.190 C 
BRANCH  37  38
ATOM     38  O   UNL     1       7.565  -6.305  27.994  0.00  0.00    -0.392 OA
ATOM     39  H   UNL     1       8.512  -6.275  27.746  0.00  0.00    +0.210 HD
ENDBRANCH  37  38
ENDBRANCH  27  37
ENDBRANCH  24  25
ENDBRANCH   6  24
BRANCH   1  40
ATOM     40  O   UNL     1       7.795   2.328  25.229  0.00  0.00    -0.461 OA
BRANCH  40  42
ATOM     41  C   UNL     1       8.248   4.069  23.506  0.00  0.00    +0.221 C 
ATOM     42  C   UNL     1       7.305   3.551  24.676  0.00  0.00    +0.340 C 
ATOM     43  O   UNL     1       5.948   3.430  24.253  0.00  0.00    -0.331 OA
ATOM     44  C   UNL     1       5.363   4.661  23.809  0.00  0.00    +0.179 C 
ATOM     45  C   UNL     1       6.144   5.189  22.600  0.00  0.00    +0.177 C 
ATOM     46  C   UNL     1       7.617   5.394  22.986  0.00  0.00    +0.180 C 
BRANCH  46  47
ATOM     47  O   UNL     1       8.295   6.028  21.892  0.00  0.00    -0.386 OA
ATOM     48  H   UNL     1       7.931   6.924  21.783  0.00  0.00    +0.210 HD
ENDBRANCH  46  47
BRANCH  45  49
ATOM     49  O   UNL     1       5.592   6.427  22.150  0.00  0.00    -0.386 OA
ATOM     50  H   UNL     1       6.353   7.037  22.079  0.00  0.00    +0.210 HD
ENDBRANCH  45  49
BRANCH  44  51
ATOM     51  C   UNL     1       5.230   5.717  24.939  0.00  0.00    +0.190 C 
BRANCH  51  52
ATOM     52  O   UNL     1       4.212   6.670  24.652  0.00  0.00    -0.392 OA
ATOM     53  H   UNL     1       3.381   6.178  24.541  0.00  0.00    +0.210 HD
ENDBRANCH  51  52
ENDBRANCH  44  51
BRANCH  41  54
ATOM     54  O   UNL     1       8.510   3.080  22.462  0.00  0.00    -0.337 OA
BRANCH  54  58
ATOM     55  C   UNL     1      10.506   0.362  25.091  0.00  0.00    +0.041 C 
ATOM     56  C   UNL     1      10.720   0.311  23.572  0.00  0.00    +0.149 C 
ATOM     57  O   UNL     1      10.312   1.550  22.925  0.00  0.00    -0.343 OA
ATOM     58  C   UNL     1       8.885   1.764  22.943  0.00  0.00    +0.282 C 
ATOM     59  C   UNL     1       8.235   0.622  22.124  0.00  0.00    +0.201 C 
ATOM     60  C   UNL     1       8.524  -0.706  22.835  0.00  0.00    +0.179 C 
ATOM     61  C   UNL     1      10.036  -0.936  22.962  0.00  0.00    +0.174 C 
BRANCH  61  62
ATOM     62  O   UNL     1      10.609  -1.236  21.685  0.00  0.00    -0.387 OA
ATOM     63  H   UNL     1      11.344  -0.599  21.548  0.00  0.00    +0.210 HD
ENDBRANCH  61  62
BRANCH  60  64
ATOM     64  O   UNL     1       7.844  -1.784  22.185  0.00  0.00    -0.386 OA
ATOM     65  H   UNL     1       8.516  -2.359  21.775  0.00  0.00    +0.210 HD
ENDBRANCH  60  64
BRANCH  59  66
ATOM     66  O   UNL     1       8.781   0.616  20.786  0.00  0.00    -0.384 OA
ATOM     67  H   UNL     1       9.242   1.472  20.669  0.00  0.00    +0.210 HD
ENDBRANCH  59  66
ENDBRANCH  54  58
ENDBRANCH  41  54
ENDBRANCH  40  42
ENDBRANCH   1  40
TORSDOF 22
ENDMDL
MODEL 2
REMARK VINA RESULT:      -7.3      1.941      9.381
REMARK  Name = 
REMARK  23 active torsions:
REMARK  status: ('A' for Active; 'I' for Inactive)
REMARK    1  A    between atoms: C_1  and  C_2
REMARK    2  A    between atoms: C_3  and  O_62
REMARK    3  A    between atoms: C_5  and  O_61
REMARK    4  A    between atoms: C_7  and  O_60
REMARK    5  A    between atoms: C_8  and  O_11
REMARK    6  A    between atoms: O_11  and  C_12
REMARK    7  A    between atoms: C_13  and  O_59
REMARK    8  A    between atoms: C_15  and  O_58
REMARK    9  A    between atoms: C_17  and  C_56
REMARK   10  A    between atoms: C_19  and  O_21
REMARK   11  A    between atoms: O_21  and  C_22
REMARK   12  A    between atoms: C_24  and  O_55
REMARK   13  A    between atoms: C_29  and  C_47
REMARK   14  A    between atoms: C_30  and  O_33
REMARK   15  A    between atoms: O_33  and  C_34
REMARK   16  A    between atoms: C_36  and  O_46
REMARK   17  A    between atoms: C_37  and  O_45
REMARK   18  A    between atoms: C_38  and  O_44
REMARK   19  A    between atoms: C_40  and  C_42
REMARK   20  A    between atoms: C_42  and  O_43
REMARK   21  A    between atoms: C_49  and  O_54
REMARK   22  A    between atoms: C_50  and  O_53
REMARK   23  A    between atoms: C_56  and  O_57
REMARK                            x       y       z     vdW  Elec       q    Type
REMARK                         _______ _______ _______ _____ _____    ______ ____
ROOT
ATOM      1  C   UNL     1       5.341  -3.371  27.514  0.00  0.00    +0.131 A 
ATOM      2  C   UNL     1       6.262  -2.688  26.694  0.00  0.00    +0.093 A 
ATOM      3  C   UNL     1       6.255  -1.272  26.617  0.00  0.00    +0.147 A 
ATOM      4  O   UNL     1       7.156  -0.631  25.776  0.00  0.00    -0.451 OA
ATOM      5  C   UNL     1       7.016   0.753  25.539  0.00  0.00    +0.181 A 
ATOM      6  C   UNL     1       6.163   1.550  26.234  0.00  0.00    +0.214 A 
ATOM      7  C   UNL     1       5.429   0.904  27.364  0.00  0.00    +0.238 A 
ATOM      8  O   UNL     1       4.984   1.557  28.302  0.00  0.00    -0.283 OA
ATOM      9  C   UNL     1       5.345  -0.560  27.385  0.00  0.00    +0.109 A 
ATOM     10  C   UNL     1       4.429  -1.233  28.193  0.00  0.00    +0.135 A 
ATOM     11  C   UNL     1       4.428  -2.628  28.262  0.00  0.00    +0.092 A 
ENDROOT
BRANCH   5  12
ATOM     12  C   UNL     1       7.955   1.296  24.490  0.00  0.00    +0.025 A 
ATOM     13  C   UNL     1       9.046   2.119  24.839  0.00  0.00    +0.015 A 
ATOM     14  C   UNL     1      10.001   2.542  23.904  0.00  0.00    +0.050 A 
ATOM     15  C   UNL     1       9.847   2.190  22.582  0.00  0.00    +0.158 A 
ATOM     16  C   UNL     1       8.751   1.428  22.188  0.00  0.00    +0.159 A 
ATOM     17  C   UNL     1       7.807   0.978  23.130  0.00  0.00    +0.060 A 
BRANCH  16  18
ATOM     18  O   UNL     1       8.657   1.142  20.852  0.00  0.00    -0.503 OA
ATOM     19  H   UNL     1       7.836   0.643  20.706  0.00  0.00    +0.292 HD
ENDBRANCH  16  18
BRANCH  15  20
ATOM     20  O   UNL     1      10.778   2.599  21.673  0.00  0.00    -0.503 OA
ATOM     21  H   UNL     1      10.314   3.250  21.110  0.00  0.00    +0.292 HD
ENDBRANCH  15  20
ENDBRANCH   5  12
BRANCH  10  22
ATOM     22  O   UNL     1       3.488  -0.552  28.918  0.00  0.00    -0.506 OA
ATOM     23  H   UNL     1       3.051   0.120  28.372  0.00  0.00    +0.292 HD
ENDBRANCH  10  22
BRANCH   6  24
ATOM     24  O   UNL     1       6.045   2.934  25.993  0.00  0.00    -0.453 OA
BRANCH  24  25
ATOM     25  C   UNL     1       5.054   3.370  25.032  0.00  0.00    +0.340 C 
ATOM     26  O   UNL     1       5.603   3.600  23.730  0.00  0.00    -0.331 OA
ATOM     27  C   UNL     1       6.517   4.695  23.674  0.00  0.00    +0.179 C 
ATOM     28  C   UNL     1       5.823   6.012  24.047  0.00  0.00    +0.177 C 
ATOM     29  C   UNL     1       5.121   5.909  25.405  0.00  0.00    +0.180 C 
ATOM     30  C   UNL     1       4.291   4.628  25.525  0.00  0.00    +0.214 C 
BRANCH  30  31
ATOM     31  O   UNL     1       3.811   4.456  26.867  0.00  0.00    -0.383 OA
ATOM     32  H   UNL     1       2.839   4.486  26.842  0.00  0.00    +0.210 HD
ENDBRANCH  30  31
BRANCH  29  33
ATOM     33  O   UNL     1       4.268   7.058  25.564  0.00  0.00    -0.386 OA
ATOM     34  H   UNL     1       4.390   7.624  24.780  0.00  0.00    +0.210 HD
ENDBRANCH  29  33
BRANCH  28  35
ATOM     35  O   UNL     1       6.754   7.108  24.082  0.00  0.00    -0.386 OA
ATOM     36  H   UNL     1       7.053   7.225  25.003  0.00  0.00    +0.210 HD
ENDBRANCH  28  35
BRANCH  27  37
ATOM     37  C   UNL     1       7.108   4.775  22.258  0.00  0.00    +0.190 C 
BRANCH  37  38
ATOM     38  O   UNL     1       8.315   5.530  22.243  0.00  0.00    -0.392 OA
ATOM     39  H   UNL     1       8.577   5.631  21.306  0.00  0.00    +0.210 HD
ENDBRANCH  37  38
ENDBRANCH  27  37
ENDBRANCH  24  25
ENDBRANCH   6  24
BRANCH   1  40
ATOM     40  O   UNL     1       5.154  -4.727  27.655  0.00  0.00    -0.461 OA
BRANCH  40  42
ATOM     41  C   UNL     1       3.872  -5.575  25.695  0.00  0.00    +0.221 C 
ATOM     42  C   UNL     1       3.904  -5.293  27.258  0.00  0.00    +0.340 C 
ATOM     43  O   UNL     1       3.592  -6.461  28.017  0.00  0.00    -0.331 OA
ATOM     44  C   UNL     1       2.289  -6.997  27.752  0.00  0.00    +0.179 C 
ATOM     45  C   UNL     1       2.197  -7.406  26.278  0.00  0.00    +0.177 C 
ATOM     46  C   UNL     1       2.475  -6.187  25.385  0.00  0.00    +0.180 C 
BRANCH  46  47
ATOM     47  O   UNL     1       2.236  -6.554  24.019  0.00  0.00    -0.386 OA
ATOM     48  H   UNL     1       1.793  -5.810  23.574  0.00  0.00    +0.210 HD
ENDBRANCH  46  47
BRANCH  45  49
ATOM     49  O   UNL     1       0.900  -7.928  25.983  0.00  0.00    -0.386 OA
ATOM     50  H   UNL     1       0.730  -8.600  26.673  0.00  0.00    +0.210 HD
ENDBRANCH  45  49
BRANCH  44  51
ATOM     51  C   UNL     1       1.138  -6.048  28.180  0.00  0.00    +0.190 C 
BRANCH  51  52
ATOM     52  O   UNL     1       1.196  -5.741  29.569  0.00  0.00    -0.392 OA
ATOM     53  H   UNL     1       0.282  -5.611  29.873  0.00  0.00    +0.210 HD
ENDBRANCH  51  52
ENDBRANCH  44  51
BRANCH  41  54
ATOM     54  O   UNL     1       4.997  -6.371  25.204  0.00  0.00    -0.337 OA
BRANCH  54  58
ATOM     55  C   UNL     1       8.014  -3.631  23.909  0.00  0.00    +0.041 C 
ATOM     56  C   UNL     1       6.592  -3.590  23.332  0.00  0.00    +0.149 C 
ATOM     57  O   UNL     1       5.639  -4.284  24.186  0.00  0.00    -0.343 OA
ATOM     58  C   UNL     1       5.828  -5.714  24.213  0.00  0.00    +0.282 C 
ATOM     59  C   UNL     1       5.577  -6.242  22.779  0.00  0.00    +0.201 C 
ATOM     60  C   UNL     1       6.641  -5.642  21.851  0.00  0.00    +0.179 C 
ATOM     61  C   UNL     1       6.576  -4.108  21.874  0.00  0.00    +0.174 C 
BRANCH  61  62
ATOM     62  O   UNL     1       5.401  -3.644  21.200  0.00  0.00    -0.387 OA
ATOM     63  H   UNL     1       5.014  -2.938  21.761  0.00  0.00    +0.210 HD
ENDBRANCH  61  62
BRANCH  60  64
ATOM     64  O   UNL     1       6.528  -6.190  20.535  0.00  0.00    -0.386 OA
ATOM     65  H   UNL     1       5.581  -6.258  20.318  0.00  0.00    +0.210 HD
ENDBRANCH  60  64
BRANCH  59  66
ATOM     66  O   UNL     1       4.250  -5.864  22.352  0.00  0.00    -0.384 OA
ATOM     67  H   UNL     1       3.847  -6.662  21.952  0.00  0.00    +0.210 HD
ENDBRANCH  59  66
ENDBRANCH  54  58
ENDBRANCH  41  54
ENDBRANCH  40  42
ENDBRANCH   1  40
TORSDOF 22
ENDMDL
MODEL 3
REMARK VINA RESULT:      -7.2      2.003      9.339
REMARK  Name = 
REMARK  23 active torsions:
REMARK  status: ('A' for Active; 'I' for Inactive)
REMARK    1  A    between atoms: C_1  and  C_2
REMARK    2  A    between atoms: C_3  and  O_62
REMARK    3  A    between atoms: C_5  and  O_61
REMARK    4  A    between atoms: C_7  and  O_60
REMARK    5  A    between atoms: C_8  and  O_11
REMARK    6  A    between atoms: O_11  and  C_12
REMARK    7  A    between atoms: C_13  and  O_59
REMARK    8  A    between atoms: C_15  and  O_58
REMARK    9  A    between atoms: C_17  and  C_56
REMARK   10  A    between atoms: C_19  and  O_21
REMARK   11  A    between atoms: O_21  and  C_22
REMARK   12  A    between atoms: C_24  and  O_55
REMARK   13  A    between atoms: C_29  and  C_47
REMARK   14  A    between atoms: C_30  and  O_33
REMARK   15  A    between atoms: O_33  and  C_34
REMARK   16  A    between atoms: C_36  and  O_46
REMARK   17  A    between atoms: C_37  and  O_45
REMARK   18  A    between atoms: C_38  and  O_44
REMARK   19  A    between atoms: C_40  and  C_42
REMARK   20  A    between atoms: C_42  and  O_43
REMARK   21  A    between atoms: C_49  and  O_54
REMARK   22  A    between atoms: C_50  and  O_53
REMARK   23  A    between atoms: C_56  and  O_57
REMARK                            x       y       z     vdW  Elec       q    Type
REMARK                         _______ _______ _______ _____ _____    ______ ____
ROOT
ATOM      1  C   UNL     1       3.771  -3.183  27.288  0.00  0.00    +0.131 A 
ATOM      2  C   UNL     1       4.864  -2.651  26.575  0.00  0.00    +0.093 A 
ATOM      3  C   UNL     1       4.980  -1.254  26.359  0.00  0.00    +0.147 A 
ATOM      4  O   UNL     1       6.053  -0.764  25.626  0.00  0.00    -0.451 OA
ATOM      5  C   UNL     1       6.062   0.592  25.234  0.00  0.00    +0.181 A 
ATOM      6  C   UNL     1       5.171   1.510  25.692  0.00  0.00    +0.214 A 
ATOM      7  C   UNL     1       4.214   1.037  26.738  0.00  0.00    +0.238 A 
ATOM      8  O   UNL     1       3.674   1.814  27.517  0.00  0.00    -0.283 OA
ATOM      9  C   UNL     1       4.014  -0.409  26.888  0.00  0.00    +0.109 A 
ATOM     10  C   UNL     1       2.929  -0.933  27.589  0.00  0.00    +0.135 A 
ATOM     11  C   UNL     1       2.809  -2.309  27.793  0.00  0.00    +0.092 A 
ENDROOT
BRANCH   5  12
ATOM     12  C   UNL     1       7.198   0.959  24.313  0.00  0.00    +0.025 A 
ATOM     13  C   UNL     1       7.330   0.367  23.039  0.00  0.00    +0.015 A 
ATOM     14  C   UNL     1       8.305   0.771  22.117  0.00  0.00    +0.050 A 
ATOM     15  C   UNL     1       9.209   1.745  22.480  0.00  0.00    +0.158 A 
ATOM     16  C   UNL     1       9.150   2.311  23.749  0.00  0.00    +0.159 A 
ATOM     17  C   UNL     1       8.152   1.927  24.666  0.00  0.00    +0.060 A 
BRANCH  16  18
ATOM     18  O   UNL     1      10.099   3.254  24.041  0.00  0.00    -0.503 OA
ATOM     19  H   UNL     1       9.920   3.600  24.931  0.00  0.00    +0.292 HD
ENDBRANCH  16  18
BRANCH  15  20
ATOM     20  O   UNL     1      10.157   2.139  21.581  0.00  0.00    -0.503 OA
ATOM     21  H   UNL     1      10.982   2.216  22.100  0.00  0.00    +0.292 HD
ENDBRANCH  15  20
ENDBRANCH   5  12
BRANCH  10  22
ATOM     22  O   UNL     1       1.938  -0.122  28.073  0.00  0.00    -0.506 OA
ATOM     23  H   UNL     1       1.925   0.726  27.602  0.00  0.00    +0.292 HD
ENDBRANCH  10  22
BRANCH   6  24
ATOM     24  O   UNL     1       5.202   2.863  25.300  0.00  0.00    -0.453 OA
BRANCH  24  25
ATOM     25  C   UNL     1       4.536   3.224  24.067  0.00  0.00    +0.340 C 
ATOM     26  O   UNL     1       5.450   3.515  23.003  0.00  0.00    -0.331 OA
ATOM     27  C   UNL     1       6.239   4.683  23.223  0.00  0.00    +0.179 C 
ATOM     28  C   UNL     1       5.354   5.933  23.335  0.00  0.00    +0.177 C 
ATOM     29  C   UNL     1       4.267   5.756  24.400  0.00  0.00    +0.180 C 
ATOM     30  C   UNL     1       3.552   4.408  24.270  0.00  0.00    +0.214 C 
BRANCH  30  31
ATOM     31  O   UNL     1       2.686   4.181  25.393  0.00  0.00    -0.383 OA
ATOM     32  H   UNL     1       1.929   3.656  25.082  0.00  0.00    +0.210 HD
ENDBRANCH  30  31
BRANCH  29  33
ATOM     33  O   UNL     1       3.315   6.827  24.261  0.00  0.00    -0.386 OA
ATOM     34  H   UNL     1       2.687   6.571  23.561  0.00  0.00    +0.210 HD
ENDBRANCH  29  33
BRANCH  28  35
ATOM     35  O   UNL     1       6.131   7.103  23.646  0.00  0.00    -0.386 OA
ATOM     36  H   UNL     1       6.623   7.364  22.846  0.00  0.00    +0.210 HD
ENDBRANCH  28  35
BRANCH  27  37
ATOM     37  C   UNL     1       7.241   4.830  22.068  0.00  0.00    +0.190 C 
BRANCH  37  38
ATOM     38  O   UNL     1       8.392   5.563  22.472  0.00  0.00    -0.392 OA
ATOM     39  H   UNL     1       9.118   5.309  21.867  0.00  0.00    +0.210 HD
ENDBRANCH  37  38
ENDBRANCH  27  37
ENDBRANCH  24  25
ENDBRANCH   6  24
BRANCH   1  40
ATOM     40  O   UNL     1       3.460  -4.503  27.527  0.00  0.00    -0.461 OA
BRANCH  40  42
ATOM     41  C   UNL     1       4.118  -5.441  25.316  0.00  0.00    +0.221 C 
ATOM     42  C   UNL     1       3.002  -5.308  26.439  0.00  0.00    +0.340 C 
ATOM     43  O   UNL     1       2.541  -6.582  26.887  0.00  0.00    -0.331 OA
ATOM     44  C   UNL     1       1.950  -7.383  25.856  0.00  0.00    +0.179 C 
ATOM     45  C   UNL     1       2.993  -7.662  24.767  0.00  0.00    +0.177 C 
ATOM     46  C   UNL     1       3.510  -6.334  24.195  0.00  0.00    +0.180 C 
BRANCH  46  47
ATOM     47  O   UNL     1       4.368  -6.617  23.080  0.00  0.00    -0.386 OA
ATOM     48  H   UNL     1       5.116  -5.995  23.103  0.00  0.00    +0.210 HD
ENDBRANCH  46  47
BRANCH  45  49
ATOM     49  O   UNL     1       2.423  -8.445  23.717  0.00  0.00    -0.386 OA
ATOM     50  H   UNL     1       1.966  -9.184  24.166  0.00  0.00    +0.210 HD
ENDBRANCH  45  49
BRANCH  44  51
ATOM     51  C   UNL     1       0.641  -6.776  25.284  0.00  0.00    +0.190 C 
BRANCH  51  52
ATOM     52  O   UNL     1       0.822  -6.288  23.959  0.00  0.00    -0.392 OA
ATOM     53  H   UNL     1       0.905  -7.062  23.377  0.00  0.00    +0.210 HD
ENDBRANCH  51  52
ENDBRANCH  44  51
BRANCH  41  54
ATOM     54  O   UNL     1       5.416  -5.900  25.809  0.00  0.00    -0.337 OA
BRANCH  54  58
ATOM     55  C   UNL     1       7.692  -3.502  23.096  0.00  0.00    +0.041 C 
ATOM     56  C   UNL     1       8.305  -4.722  23.796  0.00  0.00    +0.149 C 
ATOM     57  O   UNL     1       7.284  -5.622  24.313  0.00  0.00    -0.343 OA
ATOM     58  C   UNL     1       6.546  -5.074  25.425  0.00  0.00    +0.282 C 
ATOM     59  C   UNL     1       7.548  -4.858  26.585  0.00  0.00    +0.201 C 
ATOM     60  C   UNL     1       8.581  -3.813  26.141  0.00  0.00    +0.179 C 
ATOM     61  C   UNL     1       9.319  -4.283  24.880  0.00  0.00    +0.174 C 
BRANCH  61  62
ATOM     62  O   UNL     1      10.208  -5.362  25.188  0.00  0.00    -0.387 OA
ATOM     63  H   UNL     1      11.089  -4.963  25.355  0.00  0.00    +0.210 HD
ENDBRANCH  61  62
BRANCH  60  64
ATOM     64  O   UNL     1       9.462  -3.488  27.220  0.00  0.00    -0.386 OA
ATOM     65  H   UNL     1       9.971  -2.697  26.964  0.00  0.00    +0.210 HD
ENDBRANCH  60  64
BRANCH  59  66
ATOM     66  O   UNL     1       8.192  -6.111  26.906  0.00  0.00    -0.384 OA
ATOM     67  H   UNL     1       8.457  -6.056  27.847  0.00  0.00    +0.210 HD
ENDBRANCH  59  66
ENDBRANCH  54  58
ENDBRANCH  41  54
ENDBRANCH  40  42
ENDBRANCH   1  40
TORSDOF 22
ENDMDL
MODEL 4
REMARK VINA RESULT:      -7.0      2.529      4.455
REMARK  Name = 
REMARK  23 active torsions:
REMARK  status: ('A' for Active; 'I' for Inactive)
REMARK    1  A    between atoms: C_1  and  C_2
REMARK    2  A    between atoms: C_3  and  O_62
REMARK    3  A    between atoms: C_5  and  O_61
REMARK    4  A    between atoms: C_7  and  O_60
REMARK    5  A    between atoms: C_8  and  O_11
REMARK    6  A    between atoms: O_11  and  C_12
REMARK    7  A    between atoms: C_13  and  O_59
REMARK    8  A    between atoms: C_15  and  O_58
REMARK    9  A    between atoms: C_17  and  C_56
REMARK   10  A    between atoms: C_19  and  O_21
REMARK   11  A    between atoms: O_21  and  C_22
REMARK   12  A    between atoms: C_24  and  O_55
REMARK   13  A    between atoms: C_29  and  C_47
REMARK   14  A    between atoms: C_30  and  O_33
REMARK   15  A    between atoms: O_33  and  C_34
REMARK   16  A    between atoms: C_36  and  O_46
REMARK   17  A    between atoms: C_37  and  O_45
REMARK   18  A    between atoms: C_38  and  O_44
REMARK   19  A    between atoms: C_40  and  C_42
REMARK   20  A    between atoms: C_42  and  O_43
REMARK   21  A    between atoms: C_49  and  O_54
REMARK   22  A    between atoms: C_50  and  O_53
REMARK   23  A    between atoms: C_56  and  O_57
REMARK                            x       y       z     vdW  Elec       q    Type
REMARK                         _______ _______ _______ _____ _____    ______ ____
ROOT
ATOM      1  C   UNL     1       4.401   3.381  26.649  0.00  0.00    +0.131 A 
ATOM      2  C   UNL     1       3.920   2.131  26.212  0.00  0.00    +0.093 A 
ATOM      3  C   UNL     1       4.668   0.947  26.434  0.00  0.00    +0.147 A 
ATOM      4  O   UNL     1       4.181  -0.266  25.963  0.00  0.00    -0.451 OA
ATOM      5  C   UNL     1       5.012  -1.406  25.997  0.00  0.00    +0.181 A 
ATOM      6  C   UNL     1       6.208  -1.443  26.641  0.00  0.00    +0.214 A 
ATOM      7  C   UNL     1       6.574  -0.223  27.424  0.00  0.00    +0.238 A 
ATOM      8  O   UNL     1       7.366  -0.269  28.358  0.00  0.00    -0.283 OA
ATOM      9  C   UNL     1       5.873   1.029  27.118  0.00  0.00    +0.109 A 
ATOM     10  C   UNL     1       6.354   2.266  27.547  0.00  0.00    +0.135 A 
ATOM     11  C   UNL     1       5.623   3.433  27.320  0.00  0.00    +0.092 A 
ENDROOT
BRANCH   5  12
ATOM     12  C   UNL     1       4.425  -2.617  25.316  0.00  0.00    +0.025 A 
ATOM     13  C   UNL     1       3.319  -3.301  25.863  0.00  0.00    +0.015 A 
ATOM     14  C   UNL     1       2.679  -4.355  25.197  0.00  0.00    +0.050 A 
ATOM     15  C   UNL     1       3.174  -4.782  23.985  0.00  0.00    +0.158 A 
ATOM     16  C   UNL     1       4.300  -4.172  23.440  0.00  0.00    +0.159 A 
ATOM     17  C   UNL     1       4.926  -3.094  24.094  0.00  0.00    +0.060 A 
BRANCH  16  18
ATOM     18  O   UNL     1       4.746  -4.671  22.245  0.00  0.00    -0.503 OA
ATOM     19  H   UNL     1       4.450  -5.593  22.172  0.00  0.00    +0.292 HD
ENDBRANCH  16  18
BRANCH  15  20
ATOM     20  O   UNL     1       2.550  -5.806  23.336  0.00  0.00    -0.503 OA
ATOM     21  H   UNL     1       3.182  -6.093  22.647  0.00  0.00    +0.292 HD
ENDBRANCH  15  20
ENDBRANCH   5  12
BRANCH  10  22
ATOM     22  O   UNL     1       7.564   2.376  28.177  0.00  0.00    -0.506 OA
ATOM     23  H   UNL     1       7.847   1.520  28.536  0.00  0.00    +0.292 HD
ENDBRANCH  10  22
BRANCH   6  24
ATOM     24  O   UNL     1       7.020  -2.594  26.677  0.00  0.00    -0.453 OA
BRANCH  24  25
ATOM     25  C   UNL     1       8.377  -2.477  26.189  0.00  0.00    +0.340 C 
ATOM     26  O   UNL     1       8.474  -1.699  24.990  0.00  0.00    -0.331 OA
ATOM     27  C   UNL     1       7.843  -2.300  23.860  0.00  0.00    +0.179 C 
ATOM     28  C   UNL     1       8.498  -3.644  23.512  0.00  0.00    +0.177 C 
ATOM     29  C   UNL     1       8.533  -4.581  24.724  0.00  0.00    +0.180 C 
ATOM     30  C   UNL     1       9.036  -3.868  25.983  0.00  0.00    +0.214 C 
BRANCH  30  31
ATOM     31  O   UNL     1       8.869  -4.702  27.141  0.00  0.00    -0.383 OA
ATOM     32  H   UNL     1       8.727  -4.120  27.908  0.00  0.00    +0.210 HD
ENDBRANCH  30  31
BRANCH  29  33
ATOM     33  O   UNL     1       9.397  -5.690  24.416  0.00  0.00    -0.386 OA
ATOM     34  H   UNL     1       9.380  -5.815  23.450  0.00  0.00    +0.210 HD
ENDBRANCH  29  33
BRANCH  28  35
ATOM     35  O   UNL     1       7.813  -4.301  22.431  0.00  0.00    -0.386 OA
ATOM     36  H   UNL     1       8.151  -3.939  21.591  0.00  0.00    +0.210 HD
ENDBRANCH  28  35
BRANCH  27  37
ATOM     37  C   UNL     1       7.928  -1.331  22.672  0.00  0.00    +0.190 C 
BRANCH  37  38
ATOM     38  O   UNL     1       9.055  -1.618  21.850  0.00  0.00    -0.392 OA
ATOM     39  H   UNL     1       8.818  -2.393  21.301  0.00  0.00    +0.210 HD
ENDBRANCH  37  38
ENDBRANCH  27  37
ENDBRANCH  24  25
ENDBRANCH   6  24
BRANCH   1  40
ATOM     40  O   UNL     1       3.853   4.629  26.458  0.00  0.00    -0.461 OA
BRANCH  40  42
ATOM     41  C   UNL     1       4.813   5.297  24.259  0.00  0.00    +0.221 C 
ATOM     42  C   UNL     1       3.511   5.033  25.131  0.00  0.00    +0.340 C 
ATOM     43  O   UNL     1       2.634   4.095  24.507  0.00  0.00    -0.331 OA
ATOM     44  C   UNL     1       2.154   4.512  23.223  0.00  0.00    +0.179 C 
ATOM     45  C   UNL     1       3.340   4.688  22.269  0.00  0.00    +0.177 C 
ATOM     46  C   UNL     1       4.318   5.723  22.846  0.00  0.00    +0.180 C 
BRANCH  46  47
ATOM     47  O   UNL     1       5.339   5.984  21.873  0.00  0.00    -0.386 OA
ATOM     48  H   UNL     1       5.712   5.133  21.583  0.00  0.00    +0.210 HD
ENDBRANCH  46  47
BRANCH  45  49
ATOM     49  O   UNL     1       2.890   5.122  20.984  0.00  0.00    -0.386 OA
ATOM     50  H   UNL     1       1.941   5.328  21.101  0.00  0.00    +0.210 HD
ENDBRANCH  45  49
BRANCH  44  51
ATOM     51  C   UNL     1       1.249   5.771  23.286  0.00  0.00    +0.190 C 
BRANCH  51  52
ATOM     52  O   UNL     1       0.443   5.901  22.119  0.00  0.00    -0.392 OA
ATOM     53  H   UNL     1       1.012   5.708  21.355  0.00  0.00    +0.210 HD
ENDBRANCH  51  52
ENDBRANCH  44  51
BRANCH  41  54
ATOM     54  O   UNL     1       5.767   4.189  24.250  0.00  0.00    -0.337 OA
BRANCH  54  58
ATOM     55  C   UNL     1       8.912   6.235  26.303  0.00  0.00    +0.041 C 
ATOM     56  C   UNL     1       8.697   6.405  24.792  0.00  0.00    +0.149 C 
ATOM     57  O   UNL     1       7.362   5.990  24.384  0.00  0.00    -0.343 OA
ATOM     58  C   UNL     1       7.149   4.566  24.482  0.00  0.00    +0.282 C 
ATOM     59  C   UNL     1       8.127   3.882  23.496  0.00  0.00    +0.201 C 
ATOM     60  C   UNL     1       9.561   4.178  23.955  0.00  0.00    +0.179 C 
ATOM     61  C   UNL     1       9.815   5.692  23.994  0.00  0.00    +0.174 C 
BRANCH  61  62
ATOM     62  O   UNL     1       9.889   6.225  22.668  0.00  0.00    -0.387 OA
ATOM     63  H   UNL     1      10.012   7.194  22.759  0.00  0.00    +0.210 HD
ENDBRANCH  61  62
BRANCH  60  64
ATOM     64  O   UNL     1      10.505   3.470  23.147  0.00  0.00    -0.386 OA
ATOM     65  H   UNL     1      10.248   2.530  23.138  0.00  0.00    +0.210 HD
ENDBRANCH  60  64
BRANCH  59  66
ATOM     66  O   UNL     1       7.900   4.389  22.162  0.00  0.00    -0.384 OA
ATOM     67  H   UNL     1       7.891   5.365  22.232  0.00  0.00    +0.210 HD
ENDBRANCH  59  66
ENDBRANCH  54  58
ENDBRANCH  41  54
ENDBRANCH  40  42
ENDBRANCH   1  40
TORSDOF 22
ENDMDL
MODEL 5
REMARK VINA RESULT:      -7.0      2.134      5.691
REMARK  Name = 
REMARK  23 active torsions:
REMARK  status: ('A' for Active; 'I' for Inactive)
REMARK    1  A    between atoms: C_1  and  C_2
REMARK    2  A    between atoms: C_3  and  O_62
REMARK    3  A    between atoms: C_5  and  O_61
REMARK    4  A    between atoms: C_7  and  O_60
REMARK    5  A    between atoms: C_8  and  O_11
REMARK    6  A    between atoms: O_11  and  C_12
REMARK    7  A    between atoms: C_13  and  O_59
REMARK    8  A    between atoms: C_15  and  O_58
REMARK    9  A    between atoms: C_17  and  C_56
REMARK   10  A    between atoms: C_19  and  O_21
REMARK   11  A    between atoms: O_21  and  C_22
REMARK   12  A    between atoms: C_24  and  O_55
REMARK   13  A    between atoms: C_29  and  C_47
REMARK   14  A    between atoms: C_30  and  O_33
REMARK   15  A    between atoms: O_33  and  C_34
REMARK   16  A    between atoms: C_36  and  O_46
REMARK   17  A    between atoms: C_37  and  O_45
REMARK   18  A    between atoms: C_38  and  O_44
REMARK   19  A    between atoms: C_40  and  C_42
REMARK   20  A    between atoms: C_42  and  O_43
REMARK   21  A    between atoms: C_49  and  O_54
REMARK   22  A    between atoms: C_50  and  O_53
REMARK   23  A    between atoms: C_56  and  O_57
REMARK                            x       y       z     vdW  Elec       q    Type
REMARK                         _______ _______ _______ _____ _____    ______ ____
ROOT
ATOM      1  C   UNL     1       8.325   1.049  25.193  0.00  0.00    +0.131 A 
ATOM      2  C   UNL     1       7.958   0.081  26.149  0.00  0.00    +0.093 A 
ATOM      3  C   UNL     1       7.605  -1.234  25.752  0.00  0.00    +0.147 A 
ATOM      4  O   UNL     1       7.219  -2.157  26.716  0.00  0.00    -0.451 OA
ATOM      5  C   UNL     1       6.670  -3.393  26.311  0.00  0.00    +0.181 A 
ATOM      6  C   UNL     1       6.669  -3.825  25.023  0.00  0.00    +0.214 A 
ATOM      7  C   UNL     1       7.383  -2.960  24.035  0.00  0.00    +0.238 A 
ATOM      8  O   UNL     1       7.819  -3.410  22.981  0.00  0.00    -0.283 OA
ATOM      9  C   UNL     1       7.654  -1.567  24.406  0.00  0.00    +0.109 A 
ATOM     10  C   UNL     1       8.011  -0.609  23.457  0.00  0.00    +0.135 A 
ATOM     11  C   UNL     1       8.349   0.688  23.847  0.00  0.00    +0.092 A 
ENDROOT
BRANCH   5  12
ATOM     12  C   UNL     1       6.148  -4.236  27.447  0.00  0.00    +0.025 A 
ATOM     13  C   UNL     1       5.010  -3.848  28.185  0.00  0.00    +0.015 A 
ATOM     14  C   UNL     1       4.433  -4.665  29.167  0.00  0.00    +0.050 A 
ATOM     15  C   UNL     1       5.024  -5.871  29.468  0.00  0.00    +0.158 A 
ATOM     16  C   UNL     1       6.183  -6.264  28.804  0.00  0.00    +0.159 A 
ATOM     17  C   UNL     1       6.747  -5.457  27.797  0.00  0.00    +0.060 A 
BRANCH  16  18
ATOM     18  O   UNL     1       6.723  -7.465  29.179  0.00  0.00    -0.503 OA
ATOM     19  H   UNL     1       7.374  -7.299  29.881  0.00  0.00    +0.292 HD
ENDBRANCH  16  18
BRANCH  15  20
ATOM     20  O   UNL     1       4.461  -6.668  30.422  0.00  0.00    -0.503 OA
ATOM     21  H   UNL     1       3.535  -6.791  30.135  0.00  0.00    +0.292 HD
ENDBRANCH  15  20
ENDBRANCH   5  12
BRANCH  10  22
ATOM     22  O   UNL     1       8.014  -0.902  22.120  0.00  0.00    -0.506 OA
ATOM     23  H   UNL     1       7.200  -0.589  21.696  0.00  0.00    +0.292 HD
ENDBRANCH  10  22
BRANCH   6  24
ATOM     24  O   UNL     1       6.129  -5.069  24.637  0.00  0.00    -0.453 OA
BRANCH  24  25
ATOM     25  C   UNL     1       5.081  -5.068  23.639  0.00  0.00    +0.340 C 
ATOM     26  O   UNL     1       3.992  -4.201  23.974  0.00  0.00    -0.331 OA
ATOM     27  C   UNL     1       3.255  -4.617  25.122  0.00  0.00    +0.179 C 
ATOM     28  C   UNL     1       2.609  -5.991  24.896  0.00  0.00    +0.177 C 
ATOM     29  C   UNL     1       3.646  -7.032  24.461  0.00  0.00    +0.180 C 
ATOM     30  C   UNL     1       4.560  -6.502  23.352  0.00  0.00    +0.214 C 
BRANCH  30  31
ATOM     31  O   UNL     1       5.643  -7.413  23.107  0.00  0.00    -0.383 OA
ATOM     32  H   UNL     1       5.746  -7.971  23.897  0.00  0.00    +0.210 HD
ENDBRANCH  30  31
BRANCH  29  33
ATOM     33  O   UNL     1       2.949  -8.203  23.998  0.00  0.00    -0.386 OA
ATOM     34  H   UNL     1       2.002  -7.976  23.940  0.00  0.00    +0.210 HD
ENDBRANCH  29  33
BRANCH  28  35
ATOM     35  O   UNL     1       1.939  -6.461  26.078  0.00  0.00    -0.386 OA
ATOM     36  H   UNL     1       2.610  -6.834  26.681  0.00  0.00    +0.210 HD
ENDBRANCH  28  35
BRANCH  27  37
ATOM     37  C   UNL     1       2.185  -3.560  25.435  0.00  0.00    +0.190 C 
BRANCH  37  38
ATOM     38  O   UNL     1       2.774  -2.340  25.870  0.00  0.00    -0.392 OA
ATOM     39  H   UNL     1       2.122  -1.631  25.699  0.00  0.00    +0.210 HD
ENDBRANCH  37  38
ENDBRANCH  27  37
ENDBRANCH  24  25
ENDBRANCH   6  24
BRANCH   1  40
ATOM     40  O   UNL     1       8.623   2.379  25.386  0.00  0.00    -0.461 OA
BRANCH  40  42
ATOM     41  C   UNL     1       6.408   3.518  25.416  0.00  0.00    +0.221 C 
ATOM     42  C   UNL     1       7.829   3.364  24.722  0.00  0.00    +0.340 C 
ATOM     43  O   UNL     1       8.513   4.613  24.626  0.00  0.00    -0.331 OA
ATOM     44  C   UNL     1       7.817   5.601  23.855  0.00  0.00    +0.179 C 
ATOM     45  C   UNL     1       6.466   5.902  24.514  0.00  0.00    +0.177 C 
ATOM     46  C   UNL     1       5.641   4.610  24.614  0.00  0.00    +0.180 C 
BRANCH  46  47
ATOM     47  O   UNL     1       4.329   4.938  25.092  0.00  0.00    -0.386 OA
ATOM     48  H   UNL     1       4.292   4.744  26.046  0.00  0.00    +0.210 HD
ENDBRANCH  46  47
BRANCH  45  49
ATOM     49  O   UNL     1       5.743   6.872  23.754  0.00  0.00    -0.386 OA
ATOM     50  H   UNL     1       6.160   7.730  23.970  0.00  0.00    +0.210 HD
ENDBRANCH  45  49
BRANCH  44  51
ATOM     51  C   UNL     1       7.677   5.221  22.357  0.00  0.00    +0.190 C 
BRANCH  51  52
ATOM     52  O   UNL     1       7.691   6.372  21.518  0.00  0.00    -0.392 OA
ATOM     53  H   UNL     1       8.275   6.173  20.767  0.00  0.00    +0.210 HD
ENDBRANCH  51  52
ENDBRANCH  44  51
BRANCH  41  54
ATOM     54  O   UNL     1       6.465   3.763  26.857  0.00  0.00    -0.337 OA
BRANCH  54  58
ATOM     55  C   UNL     1       4.973   0.008  28.257  0.00  0.00    +0.041 C 
ATOM     56  C   UNL     1       4.041   1.062  27.643  0.00  0.00    +0.149 C 
ATOM     57  O   UNL     1       4.777   2.044  26.859  0.00  0.00    -0.343 OA
ATOM     58  C   UNL     1       5.603   2.915  27.659  0.00  0.00    +0.282 C 
ATOM     59  C   UNL     1       4.663   3.726  28.584  0.00  0.00    +0.201 C 
ATOM     60  C   UNL     1       3.953   2.747  29.528  0.00  0.00    +0.179 C 
ATOM     61  C   UNL     1       3.151   1.710  28.730  0.00  0.00    +0.174 C 
BRANCH  61  62
ATOM     62  O   UNL     1       2.002   2.315  28.129  0.00  0.00    -0.387 OA
ATOM     63  H   UNL     1       1.525   2.788  28.844  0.00  0.00    +0.210 HD
ENDBRANCH  61  62
BRANCH  60  64
ATOM     64  O   UNL     1       3.161   3.456  30.485  0.00  0.00    -0.386 OA
ATOM     65  H   UNL     1       2.483   2.844  30.827  0.00  0.00    +0.210 HD
ENDBRANCH  60  64
BRANCH  59  66
ATOM     66  O   UNL     1       3.704   4.451  27.781  0.00  0.00    -0.384 OA
ATOM     67  H   UNL     1       2.921   4.600  28.349  0.00  0.00    +0.210 HD
ENDBRANCH  59  66
ENDBRANCH  54  58
ENDBRANCH  41  54
ENDBRANCH  40  42
ENDBRANCH   1  40
TORSDOF 22
ENDMDL
MODEL 6
REMARK VINA RESULT:      -6.9      2.083     10.118
REMARK  Name = 
REMARK  23 active torsions:
REMARK  status: ('A' for Active; 'I' for Inactive)
REMARK    1  A    between atoms: C_1  and  C_2
REMARK    2  A    between atoms: C_3  and  O_62
REMARK    3  A    between atoms: C_5  and  O_61
REMARK    4  A    between atoms: C_7  and  O_60
REMARK    5  A    between atoms: C_8  and  O_11
REMARK    6  A    between atoms: O_11  and  C_12
REMARK    7  A    between atoms: C_13  and  O_59
REMARK    8  A    between atoms: C_15  and  O_58
REMARK    9  A    between atoms: C_17  and  C_56
REMARK   10  A    between atoms: C_19  and  O_21
REMARK   11  A    between atoms: O_21  and  C_22
REMARK   12  A    between atoms: C_24  and  O_55
REMARK   13  A    between atoms: C_29  and  C_47
REMARK   14  A    between atoms: C_30  and  O_33
REMARK   15  A    between atoms: O_33  and  C_34
REMARK   16  A    between atoms: C_36  and  O_46
REMARK   17  A    between atoms: C_37  and  O_45
REMARK   18  A    between atoms: C_38  and  O_44
REMARK   19  A    between atoms: C_40  and  C_42
REMARK   20  A    between atoms: C_42  and  O_43
REMARK   21  A    between atoms: C_49  and  O_54
REMARK   22  A    between atoms: C_50  and  O_53
REMARK   23  A    between atoms: C_56  and  O_57
REMARK                            x       y       z     vdW  Elec       q    Type
REMARK                         _______ _______ _______ _____ _____    ______ ____
ROOT
ATOM      1  C   UNL     1       6.379  -3.772  23.575  0.00  0.00    +0.131 A 
ATOM      2  C   UNL     1       5.696  -2.677  24.143  0.00  0.00    +0.093 A 
ATOM      3  C   UNL     1       6.151  -1.351  23.934  0.00  0.00    +0.147 A 
ATOM      4  O   UNL     1       5.474  -0.296  24.532  0.00  0.00    -0.451 OA
ATOM      5  C   UNL     1       6.038   0.998  24.499  0.00  0.00    +0.181 A 
ATOM      6  C   UNL     1       7.122   1.322  23.747  0.00  0.00    +0.214 A 
ATOM      7  C   UNL     1       7.649   0.249  22.850  0.00  0.00    +0.238 A 
ATOM      8  O   UNL     1       8.308   0.510  21.849  0.00  0.00    -0.283 OA
ATOM      9  C   UNL     1       7.264  -1.138  23.133  0.00  0.00    +0.109 A 
ATOM     10  C   UNL     1       7.945  -2.220  22.574  0.00  0.00    +0.135 A 
ATOM     11  C   UNL     1       7.504  -3.527  22.789  0.00  0.00    +0.092 A 
ENDROOT
BRANCH   5  12
ATOM     12  C   UNL     1       5.287   2.018  25.316  0.00  0.00    +0.025 A 
ATOM     13  C   UNL     1       4.530   3.038  24.699  0.00  0.00    +0.015 A 
ATOM     14  C   UNL     1       3.729   3.927  25.428  0.00  0.00    +0.050 A 
ATOM     15  C   UNL     1       3.716   3.847  26.803  0.00  0.00    +0.158 A 
ATOM     16  C   UNL     1       4.496   2.894  27.451  0.00  0.00    +0.159 A 
ATOM     17  C   UNL     1       5.278   1.980  26.719  0.00  0.00    +0.060 A 
BRANCH  16  18
ATOM     18  O   UNL     1       4.447   2.895  28.820  0.00  0.00    -0.503 OA
ATOM     19  H   UNL     1       4.537   1.979  29.128  0.00  0.00    +0.292 HD
ENDBRANCH  16  18
BRANCH  15  20
ATOM     20  O   UNL     1       2.935   4.712  27.511  0.00  0.00    -0.503 OA
ATOM     21  H   UNL     1       2.037   4.606  27.140  0.00  0.00    +0.292 HD
ENDBRANCH  15  20
ENDBRANCH   5  12
BRANCH  10  22
ATOM     22  O   UNL     1       9.075  -2.036  21.825  0.00  0.00    -0.506 OA
ATOM     23  H   UNL     1       8.863  -2.015  20.879  0.00  0.00    +0.292 HD
ENDBRANCH  10  22
BRANCH   6  24
ATOM     24  O   UNL     1       7.665   2.622  23.713  0.00  0.00    -0.453 OA
BRANCH  24  25
ATOM     25  C   UNL     1       8.794   2.904  24.576  0.00  0.00    +0.340 C 
ATOM     26  O   UNL     1       8.441   3.700  25.713  0.00  0.00    -0.331 OA
ATOM     27  C   UNL     1       8.029   5.026  25.384  0.00  0.00    +0.179 C 
ATOM     28  C   UNL     1       9.161   5.801  24.696  0.00  0.00    +0.177 C 
ATOM     29  C   UNL     1       9.701   5.041  23.480  0.00  0.00    +0.180 C 
ATOM     30  C   UNL     1       9.962   3.566  23.796  0.00  0.00    +0.214 C 
BRANCH  30  31
ATOM     31  O   UNL     1      10.270   2.836  22.599  0.00  0.00    -0.383 OA
ATOM     32  H   UNL     1      10.330   1.893  22.833  0.00  0.00    +0.210 HD
ENDBRANCH  30  31
BRANCH  29  33
ATOM     33  O   UNL     1      10.925   5.671  23.057  0.00  0.00    -0.386 OA
ATOM     34  H   UNL     1      11.573   5.564  23.777  0.00  0.00    +0.210 HD
ENDBRANCH  29  33
BRANCH  28  35
ATOM     35  O   UNL     1       8.729   7.108  24.280  0.00  0.00    -0.386 OA
ATOM     36  H   UNL     1       7.758   7.093  24.188  0.00  0.00    +0.210 HD
ENDBRANCH  28  35
BRANCH  27  37
ATOM     37  C   UNL     1       7.586   5.740  26.670  0.00  0.00    +0.190 C 
BRANCH  37  38
ATOM     38  O   UNL     1       7.546   4.842  27.774  0.00  0.00    -0.392 OA
ATOM     39  H   UNL     1       6.818   4.212  27.603  0.00  0.00    +0.210 HD
ENDBRANCH  37  38
ENDBRANCH  27  37
ENDBRANCH  24  25
ENDBRANCH   6  24
BRANCH   1  40
ATOM     40  O   UNL     1       6.129  -5.117  23.731  0.00  0.00    -0.461 OA
BRANCH  40  42
ATOM     41  C   UNL     1       4.729  -6.974  24.622  0.00  0.00    +0.221 C 
ATOM     42  C   UNL     1       4.781  -5.546  23.926  0.00  0.00    +0.340 C 
ATOM     43  O   UNL     1       4.020  -4.575  24.645  0.00  0.00    -0.331 OA
ATOM     44  C   UNL     1       2.627  -4.894  24.758  0.00  0.00    +0.179 C 
ATOM     45  C   UNL     1       2.467  -6.214  25.520  0.00  0.00    +0.177 C 
ATOM     46  C   UNL     1       3.222  -7.331  24.784  0.00  0.00    +0.180 C 
BRANCH  46  47
ATOM     47  O   UNL     1       2.936  -8.581  25.427  0.00  0.00    -0.386 OA
ATOM     48  H   UNL     1       2.891  -8.429  26.388  0.00  0.00    +0.210 HD
ENDBRANCH  46  47
BRANCH  45  49
ATOM     49  O   UNL     1       1.086  -6.564  25.631  0.00  0.00    -0.386 OA
ATOM     50  H   UNL     1       1.060  -7.538  25.540  0.00  0.00    +0.210 HD
ENDBRANCH  45  49
BRANCH  44  51
ATOM     51  C   UNL     1       1.888  -4.902  23.393  0.00  0.00    +0.190 C 
BRANCH  51  52
ATOM     52  O   UNL     1       0.506  -4.590  23.540  0.00  0.00    -0.392 OA
ATOM     53  H   UNL     1       0.064  -5.391  23.867  0.00  0.00    +0.210 HD
ENDBRANCH  51  52
ENDBRANCH  44  51
BRANCH  41  54
ATOM     54  O   UNL     1       5.503  -7.070  25.858  0.00  0.00    -0.337 OA
BRANCH  54  58
ATOM     55  C   UNL     1       4.020  -3.525  27.735  0.00  0.00    +0.041 C 
ATOM     56  C   UNL     1       5.220  -4.292  28.306  0.00  0.00    +0.149 C 
ATOM     57  O   UNL     1       5.818  -5.178  27.317  0.00  0.00    -0.343 OA
ATOM     58  C   UNL     1       4.979  -6.301  26.972  0.00  0.00    +0.282 C 
ATOM     59  C   UNL     1       4.796  -7.153  28.252  0.00  0.00    +0.201 C 
ATOM     60  C   UNL     1       4.050  -6.307  29.291  0.00  0.00    +0.179 C 
ATOM     61  C   UNL     1       4.834  -5.027  29.612  0.00  0.00    +0.174 C 
BRANCH  61  62
ATOM     62  O   UNL     1       6.008  -5.332  30.371  0.00  0.00    -0.387 OA
ATOM     63  H   UNL     1       6.676  -4.649  30.145  0.00  0.00    +0.210 HD
ENDBRANCH  61  62
BRANCH  60  64
ATOM     64  O   UNL     1       3.748  -7.087  30.452  0.00  0.00    -0.386 OA
ATOM     65  H   UNL     1       3.185  -7.833  30.175  0.00  0.00    +0.210 HD
ENDBRANCH  60  64
BRANCH  59  66
ATOM     66  O   UNL     1       6.090  -7.557  28.752  0.00  0.00    -0.384 OA
ATOM     67  H   UNL     1       6.723  -6.859  28.484  0.00  0.00    +0.210 HD
ENDBRANCH  59  66
ENDBRANCH  54  58
ENDBRANCH  41  54
ENDBRANCH  40  42
ENDBRANCH   1  40
TORSDOF 22
ENDMDL
MODEL 7
REMARK VINA RESULT:      -6.8      2.355      5.382
REMARK  Name = 
REMARK  23 active torsions:
REMARK  status: ('A' for Active; 'I' for Inactive)
REMARK    1  A    between atoms: C_1  and  C_2
REMARK    2  A    between atoms: C_3  and  O_62
REMARK    3  A    between atoms: C_5  and  O_61
REMARK    4  A    between atoms: C_7  and  O_60
REMARK    5  A    between atoms: C_8  and  O_11
REMARK    6  A    between atoms: O_11  and  C_12
REMARK    7  A    between atoms: C_13  and  O_59
REMARK    8  A    between atoms: C_15  and  O_58
REMARK    9  A    between atoms: C_17  and  C_56
REMARK   10  A    between atoms: C_19  and  O_21
REMARK   11  A    between atoms: O_21  and  C_22
REMARK   12  A    between atoms: C_24  and  O_55
REMARK   13  A    between atoms: C_29  and  C_47
REMARK   14  A    between atoms: C_30  and  O_33
REMARK   15  A    between atoms: O_33  and  C_34
REMARK   16  A    between atoms: C_36  and  O_46
REMARK   17  A    between atoms: C_37  and  O_45
REMARK   18  A    between atoms: C_38  and  O_44
REMARK   19  A    between atoms: C_40  and  C_42
REMARK   20  A    between atoms: C_42  and  O_43
REMARK   21  A    between atoms: C_49  and  O_54
REMARK   22  A    between atoms: C_50  and  O_53
REMARK   23  A    between atoms: C_56  and  O_57
REMARK                            x       y       z     vdW  Elec       q    Type
REMARK                         _______ _______ _______ _____ _____    ______ ____
ROOT
ATOM      1  C   UNL     1       7.936   1.481  22.769  0.00  0.00    +0.131 A 
ATOM      2  C   UNL     1       6.785   1.097  23.487  0.00  0.00    +0.093 A 
ATOM      3  C   UNL     1       6.751  -0.126  24.205  0.00  0.00    +0.147 A 
ATOM      4  O   UNL     1       5.591  -0.490  24.877  0.00  0.00    -0.451 OA
ATOM      5  C   UNL     1       5.482  -1.791  25.414  0.00  0.00    +0.181 A 
ATOM      6  C   UNL     1       6.523  -2.661  25.486  0.00  0.00    +0.214 A 
ATOM      7  C   UNL     1       7.854  -2.136  25.053  0.00  0.00    +0.238 A 
ATOM      8  O   UNL     1       8.903  -2.632  25.450  0.00  0.00    -0.283 OA
ATOM      9  C   UNL     1       7.882  -0.930  24.218  0.00  0.00    +0.109 A 
ATOM     10  C   UNL     1       9.020  -0.555  23.505  0.00  0.00    +0.135 A 
ATOM     11  C   UNL     1       9.050   0.643  22.789  0.00  0.00    +0.092 A 
ENDROOT
BRANCH   5  12
ATOM     12  C   UNL     1       4.121  -2.111  25.977  0.00  0.00    +0.025 A 
ATOM     13  C   UNL     1       3.244  -2.999  25.317  0.00  0.00    +0.015 A 
ATOM     14  C   UNL     1       2.024  -3.406  25.872  0.00  0.00    +0.050 A 
ATOM     15  C   UNL     1       1.631  -2.884  27.084  0.00  0.00    +0.158 A 
ATOM     16  C   UNL     1       2.439  -1.960  27.739  0.00  0.00    +0.159 A 
ATOM     17  C   UNL     1       3.679  -1.572  27.197  0.00  0.00    +0.060 A 
BRANCH  16  18
ATOM     18  O   UNL     1       1.965  -1.469  28.927  0.00  0.00    -0.503 OA
ATOM     19  H   UNL     1       1.299  -2.089  29.267  0.00  0.00    +0.292 HD
ENDBRANCH  16  18
BRANCH  15  20
ATOM     20  O   UNL     1       0.443  -3.283  27.625  0.00  0.00    -0.503 OA
ATOM     21  H   UNL     1       0.633  -4.143  28.048  0.00  0.00    +0.292 HD
ENDBRANCH  15  20
ENDBRANCH   5  12
BRANCH  10  22
ATOM     22  O   UNL     1      10.127  -1.359  23.462  0.00  0.00    -0.506 OA
ATOM     23  H   UNL     1      10.687  -1.136  22.702  0.00  0.00    +0.292 HD
ENDBRANCH  10  22
BRANCH   6  24
ATOM     24  O   UNL     1       6.400  -3.952  26.039  0.00  0.00    -0.453 OA
BRANCH  24  25
ATOM     25  C   UNL     1       6.865  -5.071  25.248  0.00  0.00    +0.340 C 
ATOM     26  O   UNL     1       6.981  -4.759  23.854  0.00  0.00    -0.331 OA
ATOM     27  C   UNL     1       5.732  -4.492  23.218  0.00  0.00    +0.179 C 
ATOM     28  C   UNL     1       4.811  -5.719  23.271  0.00  0.00    +0.177 C 
ATOM     29  C   UNL     1       4.634  -6.223  24.707  0.00  0.00    +0.180 C 
ATOM     30  C   UNL     1       5.972  -6.325  25.447  0.00  0.00    +0.214 C 
BRANCH  30  31
ATOM     31  O   UNL     1       5.763  -6.602  26.840  0.00  0.00    -0.383 OA
ATOM     32  H   UNL     1       5.166  -7.368  26.904  0.00  0.00    +0.210 HD
ENDBRANCH  30  31
BRANCH  29  33
ATOM     33  O   UNL     1       4.005  -7.517  24.661  0.00  0.00    -0.386 OA
ATOM     34  H   UNL     1       4.630  -8.132  24.235  0.00  0.00    +0.210 HD
ENDBRANCH  29  33
BRANCH  28  35
ATOM     35  O   UNL     1       3.517  -5.432  22.713  0.00  0.00    -0.386 OA
ATOM     36  H   UNL     1       3.535  -5.668  21.766  0.00  0.00    +0.210 HD
ENDBRANCH  28  35
BRANCH  27  37
ATOM     37  C   UNL     1       5.997  -4.077  21.762  0.00  0.00    +0.190 C 
BRANCH  37  38
ATOM     38  O   UNL     1       5.925  -5.194  20.884  0.00  0.00    -0.392 OA
ATOM     39  H   UNL     1       5.065  -5.139  20.421  0.00  0.00    +0.210 HD
ENDBRANCH  37  38
ENDBRANCH  27  37
ENDBRANCH  24  25
ENDBRANCH   6  24
BRANCH   1  40
ATOM     40  O   UNL     1       8.121   2.582  21.965  0.00  0.00    -0.461 OA
BRANCH  40  42
ATOM     41  C   UNL     1       7.163   4.780  22.642  0.00  0.00    +0.221 C 
ATOM     42  C   UNL     1       8.438   3.834  22.577  0.00  0.00    +0.340 C 
ATOM     43  O   UNL     1       9.035   3.653  23.861  0.00  0.00    -0.331 OA
ATOM     44  C   UNL     1       9.493   4.869  24.467  0.00  0.00    +0.179 C 
ATOM     45  C   UNL     1       8.304   5.814  24.675  0.00  0.00    +0.177 C 
ATOM     46  C   UNL     1       7.628   6.099  23.325  0.00  0.00    +0.180 C 
BRANCH  46  47
ATOM     47  O   UNL     1       6.617   7.099  23.519  0.00  0.00    -0.386 OA
ATOM     48  H   UNL     1       5.840   6.856  22.986  0.00  0.00    +0.210 HD
ENDBRANCH  46  47
BRANCH  45  49
ATOM     49  O   UNL     1       8.736   7.042  25.262  0.00  0.00    -0.386 OA
ATOM     50  H   UNL     1       7.916   7.541  25.448  0.00  0.00    +0.210 HD
ENDBRANCH  45  49
BRANCH  44  51
ATOM     51  C   UNL     1      10.656   5.540  23.689  0.00  0.00    +0.190 C 
BRANCH  51  52
ATOM     52  O   UNL     1      11.457   6.355  24.539  0.00  0.00    -0.392 OA
ATOM     53  H   UNL     1      11.708   7.143  24.027  0.00  0.00    +0.210 HD
ENDBRANCH  51  52
ENDBRANCH  44  51
BRANCH  41  54
ATOM     54  O   UNL     1       5.990   4.166  23.262  0.00  0.00    -0.337 OA
BRANCH  54  58
ATOM     55  C   UNL     1       3.084   6.751  21.483  0.00  0.00    +0.041 C 
ATOM     56  C   UNL     1       2.726   5.830  22.658  0.00  0.00    +0.149 C 
ATOM     57  O   UNL     1       3.911   5.379  23.374  0.00  0.00    -0.343 OA
ATOM     58  C   UNL     1       4.726   4.463  22.613  0.00  0.00    +0.282 C 
ATOM     59  C   UNL     1       3.878   3.194  22.351  0.00  0.00    +0.201 C 
ATOM     60  C   UNL     1       2.675   3.589  21.485  0.00  0.00    +0.179 C 
ATOM     61  C   UNL     1       1.830   4.660  22.187  0.00  0.00    +0.174 C 
BRANCH  61  62
ATOM     62  O   UNL     1       1.129   4.099  23.302  0.00  0.00    -0.387 OA
ATOM     63  H   UNL     1       0.592   4.822  23.692  0.00  0.00    +0.210 HD
ENDBRANCH  61  62
BRANCH  60  64
ATOM     64  O   UNL     1       1.921   2.432  21.113  0.00  0.00    -0.386 OA
ATOM     65  H   UNL     1       1.617   1.996  21.930  0.00  0.00    +0.210 HD
ENDBRANCH  60  64
BRANCH  59  66
ATOM     66  O   UNL     1       3.441   2.638  23.612  0.00  0.00    -0.384 OA
ATOM     67  H   UNL     1       3.867   1.759  23.691  0.00  0.00    +0.210 HD
ENDBRANCH  59  66
ENDBRANCH  54  58
ENDBRANCH  41  54
ENDBRANCH  40  42
ENDBRANCH   1  40
TORSDOF 22
ENDMDL
MODEL 8
REMARK VINA RESULT:      -6.8      2.258      5.289
REMARK  Name = 
REMARK  23 active torsions:
REMARK  status: ('A' for Active; 'I' for Inactive)
REMARK    1  A    between atoms: C_1  and  C_2
REMARK    2  A    between atoms: C_3  and  O_62
REMARK    3  A    between atoms: C_5  and  O_61
REMARK    4  A    between atoms: C_7  and  O_60
REMARK    5  A    between atoms: C_8  and  O_11
REMARK    6  A    between atoms: O_11  and  C_12
REMARK    7  A    between atoms: C_13  and  O_59
REMARK    8  A    between atoms: C_15  and  O_58
REMARK    9  A    between atoms: C_17  and  C_56
REMARK   10  A    between atoms: C_19  and  O_21
REMARK   11  A    between atoms: O_21  and  C_22
REMARK   12  A    between atoms: C_24  and  O_55
REMARK   13  A    between atoms: C_29  and  C_47
REMARK   14  A    between atoms: C_30  and  O_33
REMARK   15  A    between atoms: O_33  and  C_34
REMARK   16  A    between atoms: C_36  and  O_46
REMARK   17  A    between atoms: C_37  and  O_45
REMARK   18  A    between atoms: C_38  and  O_44
REMARK   19  A    between atoms: C_40  and  C_42
REMARK   20  A    between atoms: C_42  and  O_43
REMARK   21  A    between atoms: C_49  and  O_54
REMARK   22  A    between atoms: C_50  and  O_53
REMARK   23  A    between atoms: C_56  and  O_57
REMARK                            x       y       z     vdW  Elec       q    Type
REMARK                         _______ _______ _______ _____ _____    ______ ____
ROOT
ATOM      1  C   UNL     1       8.076   1.147  23.073  0.00  0.00    +0.131 A 
ATOM      2  C   UNL     1       7.042   1.073  24.028  0.00  0.00    +0.093 A 
ATOM      3  C   UNL     1       6.898  -0.069  24.855  0.00  0.00    +0.147 A 
ATOM      4  O   UNL     1       5.850  -0.124  25.765  0.00  0.00    -0.451 OA
ATOM      5  C   UNL     1       5.580  -1.336  26.438  0.00  0.00    +0.181 A 
ATOM      6  C   UNL     1       6.403  -2.415  26.397  0.00  0.00    +0.214 A 
ATOM      7  C   UNL     1       7.698  -2.230  25.672  0.00  0.00    +0.238 A 
ATOM      8  O   UNL     1       8.676  -2.930  25.911  0.00  0.00    -0.283 OA
ATOM      9  C   UNL     1       7.810  -1.108  24.734  0.00  0.00    +0.109 A 
ATOM     10  C   UNL     1       8.830  -1.040  23.786  0.00  0.00    +0.135 A 
ATOM     11  C   UNL     1       8.967   0.080  22.964  0.00  0.00    +0.092 A 
ENDROOT
BRANCH   5  12
ATOM     12  C   UNL     1       4.326  -1.308  27.276  0.00  0.00    +0.025 A 
ATOM     13  C   UNL     1       4.347  -0.853  28.611  0.00  0.00    +0.015 A 
ATOM     14  C   UNL     1       3.181  -0.706  29.375  0.00  0.00    +0.050 A 
ATOM     15  C   UNL     1       1.970  -1.067  28.830  0.00  0.00    +0.158 A 
ATOM     16  C   UNL     1       1.915  -1.577  27.536  0.00  0.00    +0.159 A 
ATOM     17  C   UNL     1       3.081  -1.698  26.756  0.00  0.00    +0.060 A 
BRANCH  16  18
ATOM     18  O   UNL     1       0.676  -1.938  27.075  0.00  0.00    -0.503 OA
ATOM     19  H   UNL     1       0.780  -2.303  26.181  0.00  0.00    +0.292 HD
ENDBRANCH  16  18
BRANCH  15  20
ATOM     20  O   UNL     1       0.836  -0.922  29.574  0.00  0.00    -0.503 OA
ATOM     21  H   UNL     1       1.106  -1.126  30.491  0.00  0.00    +0.292 HD
ENDBRANCH  15  20
ENDBRANCH   5  12
BRANCH  10  22
ATOM     22  O   UNL     1       9.709  -2.076  23.614  0.00  0.00    -0.506 OA
ATOM     23  H   UNL     1      10.021  -2.115  22.696  0.00  0.00    +0.292 HD
ENDBRANCH  10  22
BRANCH   6  24
ATOM     24  O   UNL     1       6.126  -3.613  27.086  0.00  0.00    -0.453 OA
BRANCH  24  25
ATOM     25  C   UNL     1       5.954  -4.817  26.302  0.00  0.00    +0.340 C 
ATOM     26  O   UNL     1       4.614  -4.986  25.825  0.00  0.00    -0.331 OA
ATOM     27  C   UNL     1       3.657  -5.211  26.860  0.00  0.00    +0.179 C 
ATOM     28  C   UNL     1       3.968  -6.504  27.627  0.00  0.00    +0.177 C 
ATOM     29  C   UNL     1       5.407  -6.510  28.153  0.00  0.00    +0.180 C 
ATOM     30  C   UNL     1       6.411  -6.080  27.080  0.00  0.00    +0.214 C 
BRANCH  30  31
ATOM     31  O   UNL     1       7.717  -5.898  27.649  0.00  0.00    -0.383 OA
ATOM     32  H   UNL     1       7.928  -6.693  28.169  0.00  0.00    +0.210 HD
ENDBRANCH  30  31
BRANCH  29  33
ATOM     33  O   UNL     1       5.720  -7.840  28.607  0.00  0.00    -0.386 OA
ATOM     34  H   UNL     1       6.689  -7.939  28.577  0.00  0.00    +0.210 HD
ENDBRANCH  29  33
BRANCH  28  35
ATOM     35  O   UNL     1       3.064  -6.695  28.729  0.00  0.00    -0.386 OA
ATOM     36  H   UNL     1       3.478  -6.325  29.531  0.00  0.00    +0.210 HD
ENDBRANCH  28  35
BRANCH  27  37
ATOM     37  C   UNL     1       2.256  -5.276  26.234  0.00  0.00    +0.190 C 
BRANCH  37  38
ATOM     38  O   UNL     1       1.248  -4.952  27.186  0.00  0.00    -0.392 OA
ATOM     39  H   UNL     1       0.490  -4.589  26.686  0.00  0.00    +0.210 HD
ENDBRANCH  37  38
ENDBRANCH  27  37
ENDBRANCH  24  25
ENDBRANCH   6  24
BRANCH   1  40
ATOM     40  O   UNL     1       8.322   2.133  22.145  0.00  0.00    -0.461 OA
BRANCH  40  42
ATOM     41  C   UNL     1       7.524   4.446  22.616  0.00  0.00    +0.221 C 
ATOM     42  C   UNL     1       8.739   3.420  22.605  0.00  0.00    +0.340 C 
ATOM     43  O   UNL     1       9.380   3.340  23.877  0.00  0.00    -0.331 OA
ATOM     44  C   UNL     1       9.934   4.582  24.330  0.00  0.00    +0.179 C 
ATOM     45  C   UNL     1       8.813   5.616  24.479  0.00  0.00    +0.177 C 
ATOM     46  C   UNL     1       8.095   5.799  23.133  0.00  0.00    +0.180 C 
BRANCH  46  47
ATOM     47  O   UNL     1       7.154   6.874  23.256  0.00  0.00    -0.386 OA
ATOM     48  H   UNL     1       6.383   6.673  22.697  0.00  0.00    +0.210 HD
ENDBRANCH  46  47
BRANCH  45  49
ATOM     49  O   UNL     1       9.342   6.870  24.912  0.00  0.00    -0.386 OA
ATOM     50  H   UNL     1       9.987   7.128  24.224  0.00  0.00    +0.210 HD
ENDBRANCH  45  49
BRANCH  44  51
ATOM     51  C   UNL     1      11.099   5.093  23.440  0.00  0.00    +0.190 C 
BRANCH  51  52
ATOM     52  O   UNL     1      11.988   5.935  24.167  0.00  0.00    -0.392 OA
ATOM     53  H   UNL     1      11.501   6.268  24.939  0.00  0.00    +0.210 HD
ENDBRANCH  51  52
ENDBRANCH  44  51
BRANCH  41  54
ATOM     54  O   UNL     1       6.346   3.976  23.343  0.00  0.00    -0.337 OA
BRANCH  54  58
ATOM     55  C   UNL     1       3.486   6.794  21.871  0.00  0.00    +0.041 C 
ATOM     56  C   UNL     1       3.134   5.805  22.991  0.00  0.00    +0.149 C 
ATOM     57  O   UNL     1       4.325   5.257  23.624  0.00  0.00    -0.343 OA
ATOM     58  C   UNL     1       5.073   4.368  22.768  0.00  0.00    +0.282 C 
ATOM     59  C   UNL     1       4.163   3.156  22.451  0.00  0.00    +0.201 C 
ATOM     60  C   UNL     1       2.946   3.659  21.664  0.00  0.00    +0.179 C 
ATOM     61  C   UNL     1       2.173   4.708  22.475  0.00  0.00    +0.174 C 
BRANCH  61  62
ATOM     62  O   UNL     1       1.491   4.094  23.573  0.00  0.00    -0.387 OA
ATOM     63  H   UNL     1       0.534   4.266  23.444  0.00  0.00    +0.210 HD
ENDBRANCH  61  62
BRANCH  60  64
ATOM     64  O   UNL     1       2.131   2.562  21.241  0.00  0.00    -0.386 OA
ATOM     65  H   UNL     1       1.603   2.268  22.005  0.00  0.00    +0.210 HD
ENDBRANCH  60  64
BRANCH  59  66
ATOM     66  O   UNL     1       3.751   2.526  23.685  0.00  0.00    -0.384 OA
ATOM     67  H   UNL     1       3.712   3.234  24.360  0.00  0.00    +0.210 HD
ENDBRANCH  59  66
ENDBRANCH  54  58
ENDBRANCH  41  54
ENDBRANCH  40  42
ENDBRANCH   1  40
TORSDOF 22
ENDMDL
MODEL 9
REMARK VINA RESULT:      -6.8      1.366      2.026
REMARK  Name = 
REMARK  23 active torsions:
REMARK  status: ('A' for Active; 'I' for Inactive)
REMARK    1  A    between atoms: C_1  and  C_2
REMARK    2  A    between atoms: C_3  and  O_62
REMARK    3  A    between atoms: C_5  and  O_61
REMARK    4  A    between atoms: C_7  and  O_60
REMARK    5  A    between atoms: C_8  and  O_11
REMARK    6  A    between atoms: O_11  and  C_12
REMARK    7  A    between atoms: C_13  and  O_59
REMARK    8  A    between atoms: C_15  and  O_58
REMARK    9  A    between atoms: C_17  and  C_56
REMARK   10  A    between atoms: C_19  and  O_21
REMARK   11  A    between atoms: O_21  and  C_22
REMARK   12  A    between atoms: C_24  and  O_55
REMARK   13  A    between atoms: C_29  and  C_47
REMARK   14  A    between atoms: C_30  and  O_33
REMARK   15  A    between atoms: O_33  and  C_34
REMARK   16  A    between atoms: C_36  and  O_46
REMARK   17  A    between atoms: C_37  and  O_45
REMARK   18  A    between atoms: C_38  and  O_44
REMARK   19  A    between atoms: C_40  and  C_42
REMARK   20  A    between atoms: C_42  and  O_43
REMARK   21  A    between atoms: C_49  and  O_54
REMARK   22  A    between atoms: C_50  and  O_53
REMARK   23  A    between atoms: C_56  and  O_57
REMARK                            x       y       z     vdW  Elec       q    Type
REMARK                         _______ _______ _______ _____ _____    ______ ____
ROOT
ATOM      1  C   UNL     1       6.417   2.158  26.745  0.00  0.00    +0.131 A 
ATOM      2  C   UNL     1       5.701   1.179  26.027  0.00  0.00    +0.093 A 
ATOM      3  C   UNL     1       5.083   0.093  26.698  0.00  0.00    +0.147 A 
ATOM      4  O   UNL     1       4.411  -0.872  25.958  0.00  0.00    -0.451 OA
ATOM      5  C   UNL     1       3.976  -2.054  26.596  0.00  0.00    +0.181 A 
ATOM      6  C   UNL     1       4.003  -2.233  27.942  0.00  0.00    +0.214 A 
ATOM      7  C   UNL     1       4.429  -1.053  28.756  0.00  0.00    +0.238 A 
ATOM      8  O   UNL     1       4.102  -0.928  29.931  0.00  0.00    -0.283 OA
ATOM      9  C   UNL     1       5.165   0.022  28.081  0.00  0.00    +0.109 A 
ATOM     10  C   UNL     1       5.876   0.986  28.794  0.00  0.00    +0.135 A 
ATOM     11  C   UNL     1       6.494   2.050  28.133  0.00  0.00    +0.092 A 
ENDROOT
BRANCH   5  12
ATOM     12  C   UNL     1       3.404  -3.085  25.656  0.00  0.00    +0.025 A 
ATOM     13  C   UNL     1       2.067  -3.523  25.774  0.00  0.00    +0.015 A 
ATOM     14  C   UNL     1       1.474  -4.390  24.847  0.00  0.00    +0.050 A 
ATOM     15  C   UNL     1       2.230  -4.882  23.807  0.00  0.00    +0.158 A 
ATOM     16  C   UNL     1       3.569  -4.521  23.690  0.00  0.00    +0.159 A 
ATOM     17  C   UNL     1       4.160  -3.627  24.603  0.00  0.00    +0.060 A 
BRANCH  16  18
ATOM     18  O   UNL     1       4.260  -5.073  22.644  0.00  0.00    -0.503 OA
ATOM     19  H   UNL     1       3.637  -5.591  22.108  0.00  0.00    +0.292 HD
ENDBRANCH  16  18
BRANCH  15  20
ATOM     20  O   UNL     1       1.651  -5.724  22.904  0.00  0.00    -0.503 OA
ATOM     21  H   UNL     1       2.387  -6.042  22.345  0.00  0.00    +0.292 HD
ENDBRANCH  15  20
ENDBRANCH   5  12
BRANCH  10  22
ATOM     22  O   UNL     1       6.014   0.906  30.153  0.00  0.00    -0.506 OA
ATOM     23  H   UNL     1       5.386   1.496  30.600  0.00  0.00    +0.292 HD
ENDBRANCH  10  22
BRANCH   6  24
ATOM     24  O   UNL     1       3.552  -3.414  28.564  0.00  0.00    -0.453 OA
BRANCH  24  25
ATOM     25  C   UNL     1       4.513  -4.184  29.326  0.00  0.00    +0.340 C 
ATOM     26  O   UNL     1       5.723  -4.437  28.603  0.00  0.00    -0.331 OA
ATOM     27  C   UNL     1       5.552  -5.286  27.469  0.00  0.00    +0.179 C 
ATOM     28  C   UNL     1       5.047  -6.673  27.889  0.00  0.00    +0.177 C 
ATOM     29  C   UNL     1       3.775  -6.572  28.737  0.00  0.00    +0.180 C 
ATOM     30  C   UNL     1       3.903  -5.516  29.839  0.00  0.00    +0.214 C 
BRANCH  30  31
ATOM     31  O   UNL     1       2.640  -5.298  30.485  0.00  0.00    -0.383 OA
ATOM     32  H   UNL     1       2.812  -4.853  31.333  0.00  0.00    +0.210 HD
ENDBRANCH  30  31
BRANCH  29  33
ATOM     33  O   UNL     1       3.517  -7.860  29.326  0.00  0.00    -0.386 OA
ATOM     34  H   UNL     1       2.611  -7.842  29.685  0.00  0.00    +0.210 HD
ENDBRANCH  29  33
BRANCH  28  35
ATOM     35  O   UNL     1       4.785  -7.508  26.748  0.00  0.00    -0.386 OA
ATOM     36  H   UNL     1       4.010  -8.066  26.949  0.00  0.00    +0.210 HD
ENDBRANCH  28  35
BRANCH  27  37
ATOM     37  C   UNL     1       6.893  -5.399  26.728  0.00  0.00    +0.190 C 
BRANCH  37  38
ATOM     38  O   UNL     1       7.905  -5.942  27.568  0.00  0.00    -0.392 OA
ATOM     39  H   UNL     1       7.453  -6.328  28.346  0.00  0.00    +0.210 HD
ENDBRANCH  37  38
ENDBRANCH  27  37
ENDBRANCH  24  25
ENDBRANCH   6  24
BRANCH   1  40
ATOM     40  O   UNL     1       7.135   3.227  26.260  0.00  0.00    -0.461 OA
BRANCH  40  42
ATOM     41  C   UNL     1       8.856   2.918  24.486  0.00  0.00    +0.221 C 
ATOM     42  C   UNL     1       7.363   3.320  24.853  0.00  0.00    +0.340 C 
ATOM     43  O   UNL     1       6.409   2.556  24.116  0.00  0.00    -0.331 OA
ATOM     44  C   UNL     1       6.508   2.714  22.695  0.00  0.00    +0.179 C 
ATOM     45  C   UNL     1       7.889   2.244  22.225  0.00  0.00    +0.177 C 
ATOM     46  C   UNL     1       8.982   3.053  22.940  0.00  0.00    +0.180 C 
BRANCH  46  47
ATOM     47  O   UNL     1      10.255   2.704  22.379  0.00  0.00    -0.386 OA
ATOM     48  H   UNL     1      10.155   1.869  21.888  0.00  0.00    +0.210 HD
ENDBRANCH  46  47
BRANCH  45  49
ATOM     49  O   UNL     1       8.021   2.409  20.812  0.00  0.00    -0.386 OA
ATOM     50  H   UNL     1       8.926   2.756  20.677  0.00  0.00    +0.210 HD
ENDBRANCH  45  49
BRANCH  44  51
ATOM     51  C   UNL     1       6.174   4.152  22.215  0.00  0.00    +0.190 C 
BRANCH  51  52
ATOM     52  O   UNL     1       4.770   4.388  22.195  0.00  0.00    -0.392 OA
ATOM     53  H   UNL     1       4.443   4.253  23.100  0.00  0.00    +0.210 HD
ENDBRANCH  51  52
ENDBRANCH  44  51
BRANCH  41  54
ATOM     54  O   UNL     1       9.275   1.619  25.010  0.00  0.00    -0.337 OA
BRANCH  54  58
ATOM     55  C   UNL     1       6.513  -1.146  23.273  0.00  0.00    +0.041 C 
ATOM     56  C   UNL     1       7.704  -1.624  24.115  0.00  0.00    +0.149 C 
ATOM     57  O   UNL     1       8.244  -0.558  24.946  0.00  0.00    -0.343 OA
ATOM     58  C   UNL     1       8.906   0.479  24.191  0.00  0.00    +0.282 C 
ATOM     59  C   UNL     1      10.123  -0.168  23.485  0.00  0.00    +0.201 C 
ATOM     60  C   UNL     1       9.603  -1.217  22.494  0.00  0.00    +0.179 C 
ATOM     61  C   UNL     1       8.779  -2.288  23.221  0.00  0.00    +0.174 C 
BRANCH  61  62
ATOM     62  O   UNL     1       9.627  -3.127  24.012  0.00  0.00    -0.387 OA
ATOM     63  H   UNL     1       9.757  -2.668  24.871  0.00  0.00    +0.210 HD
ENDBRANCH  61  62
BRANCH  60  64
ATOM     64  O   UNL     1      10.681  -1.762  21.727  0.00  0.00    -0.386 OA
ATOM     65  H   UNL     1      10.664  -1.345  20.846  0.00  0.00    +0.210 HD
ENDBRANCH  60  64
BRANCH  59  66
ATOM     66  O   UNL     1      10.986  -0.777  24.472  0.00  0.00    -0.384 OA
ATOM     67  H   UNL     1      10.912  -0.231  25.282  0.00  0.00    +0.210 HD
ENDBRANCH  59  66
ENDBRANCH  54  58
ENDBRANCH  41  54
ENDBRANCH  40  42
ENDBRANCH   1  40
TORSDOF 22
ENDMDL
