MODEL 1
REMARK VINA RESULT:      -7.4      0.000      0.000
REMARK  Name = 
REMARK  22 active torsions:
REMARK  status: ('A' for Active; 'I' for Inactive)
REMARK    1  A    between atoms: C_1  and  C_2
REMARK    2  A    between atoms: C_4  and  O_68
REMARK    3  A    between atoms: C_6  and  O_67
REMARK    4  A    between atoms: C_8  and  O_66
REMARK    5  A    between atoms: C_10  and  O_13
REMARK    6  A    between atoms: O_13  and  C_14
REMARK    7  A    between atoms: C_16  and  O_65
REMARK    8  A    between atoms: C_18  and  O_64
REMARK    9  A    between atoms: C_20  and  C_62
REMARK   10  A    between atoms: C_23  and  O_25
REMARK   11  A    between atoms: O_25  and  C_26
REMARK   12  A    between atoms: C_27  and  C_54
REMARK   13  A    between atoms: C_31  and  O_38
REMARK   14  A    between atoms: C_33  and  O_37
REMARK   15  A    between atoms: O_38  and  C_39
REMARK   16  A    between atoms: C_41  and  O_53
REMARK   17  A    between atoms: C_43  and  O_52
REMARK   18  A    between atoms: C_45  and  O_51
REMARK   19  A    between atoms: C_47  and  C_50
REMARK   20  A    between atoms: C_56  and  O_61
REMARK   21  A    between atoms: C_57  and  O_60
REMARK   22  A    between atoms: C_62  and  O_63
REMARK                            x       y       z     vdW  Elec       q    Type
REMARK                         _______ _______ _______ _____ _____    ______ ____
ROOT
ATOM      1  C   UNL     1       7.643  -1.522  26.013  0.00  0.00    +0.214 A 
ATOM      2  C   UNL     1       7.598  -2.760  25.172  0.00  0.00    +0.238 A 
ATOM      3  O   UNL     1       8.438  -2.934  24.295  0.00  0.00    -0.283 OA
ATOM      4  C   UNL     1       6.501  -3.738  25.461  0.00  0.00    +0.109 A 
ATOM      5  C   UNL     1       5.508  -3.333  26.341  0.00  0.00    +0.147 A 
ATOM      6  C   UNL     1       4.462  -4.194  26.702  0.00  0.00    +0.093 A 
ATOM      7  C   UNL     1       4.378  -5.489  26.183  0.00  0.00    +0.131 A 
ATOM      8  C   UNL     1       5.334  -5.894  25.253  0.00  0.00    +0.092 A 
ATOM      9  O   UNL     1       5.456  -2.081  26.882  0.00  0.00    -0.451 OA
ATOM     10  C   UNL     1       6.378  -5.017  24.888  0.00  0.00    +0.135 A 
ATOM     11  C   UNL     1       6.544  -1.232  26.756  0.00  0.00    +0.181 A 
ENDROOT
BRANCH  11  12
ATOM     12  C   UNL     1       6.309  -0.041  27.607  0.00  0.00    +0.025 A 
ATOM     13  C   UNL     1       5.037   0.556  27.530  0.00  0.00    +0.015 A 
ATOM     14  C   UNL     1       4.757   1.765  28.167  0.00  0.00    +0.050 A 
ATOM     15  C   UNL     1       5.756   2.395  28.882  0.00  0.00    +0.158 A 
ATOM     16  C   UNL     1       7.019   1.819  28.990  0.00  0.00    +0.159 A 
ATOM     17  C   UNL     1       7.316   0.614  28.339  0.00  0.00    +0.060 A 
BRANCH  16  18
ATOM     18  O   UNL     1       7.943   2.499  29.735  0.00  0.00    -0.503 OA
ATOM     19  H   UNL     1       8.645   1.878  29.992  0.00  0.00    +0.292 HD
ENDBRANCH  16  18
BRANCH  15  20
ATOM     20  O   UNL     1       5.489   3.598  29.470  0.00  0.00    -0.503 OA
ATOM     21  H   UNL     1       6.105   3.654  30.226  0.00  0.00    +0.292 HD
ENDBRANCH  15  20
ENDBRANCH  11  12
BRANCH  10  22
ATOM     22  O   UNL     1       7.265  -5.460  23.948  0.00  0.00    -0.506 OA
ATOM     23  H   UNL     1       7.173  -4.939  23.135  0.00  0.00    +0.292 HD
ENDBRANCH  10  22
BRANCH   7  24
ATOM     24  O   UNL     1       3.282  -6.209  26.571  0.00  0.00    -0.461 OA
BRANCH  24  25
ATOM     25  C   UNL     1       1.990  -5.872  26.041  0.00  0.00    +0.339 C 
ATOM     26  O   UNL     1       0.887  -6.155  26.915  0.00  0.00    -0.334 OA
ATOM     27  C   UNL     1       0.656  -7.534  27.226  0.00  0.00    +0.150 C 
ATOM     28  C   UNL     1       1.347  -7.892  28.539  0.00  0.00    +0.041 C 
ATOM     29  C   UNL     1       0.764  -8.526  26.039  0.00  0.00    +0.174 C 
ATOM     30  C   UNL     1       1.762  -8.144  24.932  0.00  0.00    +0.180 C 
ATOM     31  C   UNL     1       1.774  -6.625  24.702  0.00  0.00    +0.214 C 
BRANCH  31  32
ATOM     32  O   UNL     1       0.558  -6.221  24.051  0.00  0.00    -0.383 OA
ATOM     33  H   UNL     1       0.598  -6.491  23.115  0.00  0.00    +0.210 HD
ENDBRANCH  31  32
BRANCH  30  34
ATOM     34  O   UNL     1       3.068  -8.642  25.235  0.00  0.00    -0.386 OA
ATOM     35  H   UNL     1       3.645  -7.866  25.364  0.00  0.00    +0.210 HD
ENDBRANCH  30  34
BRANCH  29  36
ATOM     36  O   UNL     1       0.921  -9.879  26.466  0.00  0.00    -0.387 OA
ATOM     37  H   UNL     1       1.066  -9.853  27.432  0.00  0.00    +0.210 HD
ENDBRANCH  29  36
ENDBRANCH  24  25
ENDBRANCH   7  24
BRANCH   1  38
ATOM     38  O   UNL     1       8.737  -0.679  25.847  0.00  0.00    -0.453 OA
BRANCH  38  40
ATOM     39  C   UNL     1       8.963   1.571  24.962  0.00  0.00    +0.221 C 
ATOM     40  C   UNL     1       8.914   0.057  24.606  0.00  0.00    +0.340 C 
ATOM     41  O   UNL     1      10.057  -0.366  23.862  0.00  0.00    -0.331 OA
ATOM     42  C   UNL     1      10.360   0.359  22.658  0.00  0.00    +0.179 C 
ATOM     43  C   UNL     1      10.447   1.869  22.914  0.00  0.00    +0.177 C 
ATOM     44  C   UNL     1       9.245   2.382  23.694  0.00  0.00    +0.180 C 
BRANCH  44  45
ATOM     45  O   UNL     1       9.488   3.761  24.041  0.00  0.00    -0.386 OA
ATOM     46  H   UNL     1       8.954   4.285  23.409  0.00  0.00    +0.210 HD
ENDBRANCH  44  45
BRANCH  43  47
ATOM     47  O   UNL     1      10.563   2.608  21.694  0.00  0.00    -0.386 OA
ATOM     48  H   UNL     1      11.139   2.059  21.121  0.00  0.00    +0.210 HD
ENDBRANCH  43  47
BRANCH  42  49
ATOM     49  C   UNL     1       9.443  -0.030  21.485  0.00  0.00    +0.190 C 
BRANCH  49  50
ATOM     50  O   UNL     1       9.652  -1.394  21.110  0.00  0.00    -0.392 OA
ATOM     51  H   UNL     1      10.469  -1.696  21.543  0.00  0.00    +0.210 HD
ENDBRANCH  49  50
ENDBRANCH  42  49
BRANCH  39  52
ATOM     52  O   UNL     1       7.757   2.170  25.480  0.00  0.00    -0.337 OA
BRANCH  52  56
ATOM     53  C   UNL     1       5.712   5.703  24.359  0.00  0.00    +0.041 C 
ATOM     54  C   UNL     1       5.012   4.394  24.712  0.00  0.00    +0.149 C 
ATOM     55  O   UNL     1       5.894   3.503  25.408  0.00  0.00    -0.343 OA
ATOM     56  C   UNL     1       6.898   2.879  24.593  0.00  0.00    +0.282 C 
ATOM     57  C   UNL     1       6.217   2.009  23.509  0.00  0.00    +0.201 C 
ATOM     58  C   UNL     1       5.290   2.885  22.648  0.00  0.00    +0.179 C 
ATOM     59  C   UNL     1       4.323   3.696  23.524  0.00  0.00    +0.174 C 
BRANCH  59  60
ATOM     60  O   UNL     1       3.337   2.786  24.049  0.00  0.00    -0.387 OA
ATOM     61  H   UNL     1       3.186   3.043  24.983  0.00  0.00    +0.210 HD
ENDBRANCH  59  60
BRANCH  58  62
ATOM     62  O   UNL     1       6.015   3.698  21.728  0.00  0.00    -0.386 OA
ATOM     63  H   UNL     1       6.796   3.240  21.372  0.00  0.00    +0.210 HD
ENDBRANCH  58  62
BRANCH  57  64
ATOM     64  O   UNL     1       5.473   0.929  24.110  0.00  0.00    -0.384 OA
ATOM     65  H   UNL     1       5.612   0.968  25.073  0.00  0.00    +0.210 HD
ENDBRANCH  57  64
ENDBRANCH  52  56
ENDBRANCH  39  52
ENDBRANCH  38  40
ENDBRANCH   1  38
TORSDOF 20
ENDMDL
MODEL 2
REMARK VINA RESULT:      -7.3      2.390      9.337
REMARK  Name = 
REMARK  22 active torsions:
REMARK  status: ('A' for Active; 'I' for Inactive)
REMARK    1  A    between atoms: C_1  and  C_2
REMARK    2  A    between atoms: C_4  and  O_68
REMARK    3  A    between atoms: C_6  and  O_67
REMARK    4  A    between atoms: C_8  and  O_66
REMARK    5  A    between atoms: C_10  and  O_13
REMARK    6  A    between atoms: O_13  and  C_14
REMARK    7  A    between atoms: C_16  and  O_65
REMARK    8  A    between atoms: C_18  and  O_64
REMARK    9  A    between atoms: C_20  and  C_62
REMARK   10  A    between atoms: C_23  and  O_25
REMARK   11  A    between atoms: O_25  and  C_26
REMARK   12  A    between atoms: C_27  and  C_54
REMARK   13  A    between atoms: C_31  and  O_38
REMARK   14  A    between atoms: C_33  and  O_37
REMARK   15  A    between atoms: O_38  and  C_39
REMARK   16  A    between atoms: C_41  and  O_53
REMARK   17  A    between atoms: C_43  and  O_52
REMARK   18  A    between atoms: C_45  and  O_51
REMARK   19  A    between atoms: C_47  and  C_50
REMARK   20  A    between atoms: C_56  and  O_61
REMARK   21  A    between atoms: C_57  and  O_60
REMARK   22  A    between atoms: C_62  and  O_63
REMARK                            x       y       z     vdW  Elec       q    Type
REMARK                         _______ _______ _______ _____ _____    ______ ____
ROOT
ATOM      1  C   UNL     1       6.009  -3.484  26.975  0.00  0.00    +0.214 A 
ATOM      2  C   UNL     1       7.336  -3.364  26.290  0.00  0.00    +0.238 A 
ATOM      3  O   UNL     1       8.067  -4.344  26.200  0.00  0.00    -0.283 OA
ATOM      4  C   UNL     1       7.697  -2.018  25.741  0.00  0.00    +0.109 A 
ATOM      5  C   UNL     1       6.873  -0.955  26.080  0.00  0.00    +0.147 A 
ATOM      6  C   UNL     1       7.110   0.335  25.582  0.00  0.00    +0.093 A 
ATOM      7  C   UNL     1       8.188   0.597  24.732  0.00  0.00    +0.131 A 
ATOM      8  C   UNL     1       9.060  -0.447  24.428  0.00  0.00    +0.092 A 
ATOM      9  O   UNL     1       5.814  -1.073  26.932  0.00  0.00    -0.451 OA
ATOM     10  C   UNL     1       8.821  -1.740  24.941  0.00  0.00    +0.135 A 
ATOM     11  C   UNL     1       5.374  -2.332  27.310  0.00  0.00    +0.181 A 
ENDROOT
BRANCH  11  12
ATOM     12  C   UNL     1       4.100  -2.178  28.052  0.00  0.00    +0.025 A 
ATOM     13  C   UNL     1       4.134  -2.422  29.437  0.00  0.00    +0.015 A 
ATOM     14  C   UNL     1       2.969  -2.456  30.203  0.00  0.00    +0.050 A 
ATOM     15  C   UNL     1       1.752  -2.254  29.585  0.00  0.00    +0.158 A 
ATOM     16  C   UNL     1       1.688  -1.994  28.219  0.00  0.00    +0.159 A 
ATOM     17  C   UNL     1       2.850  -1.975  27.437  0.00  0.00    +0.060 A 
BRANCH  16  18
ATOM     18  O   UNL     1       0.443  -1.784  27.691  0.00  0.00    -0.503 OA
ATOM     19  H   UNL     1       0.200  -2.564  27.165  0.00  0.00    +0.292 HD
ENDBRANCH  16  18
BRANCH  15  20
ATOM     20  O   UNL     1       0.612  -2.329  30.332  0.00  0.00    -0.503 OA
ATOM     21  H   UNL     1       0.239  -1.426  30.317  0.00  0.00    +0.292 HD
ENDBRANCH  15  20
ENDBRANCH  11  12
BRANCH  10  22
ATOM     22  O   UNL     1       9.729  -2.712  24.632  0.00  0.00    -0.506 OA
ATOM     23  H   UNL     1      10.416  -2.350  24.050  0.00  0.00    +0.292 HD
ENDBRANCH  10  22
BRANCH   7  24
ATOM     24  O   UNL     1       8.341   1.903  24.360  0.00  0.00    -0.461 OA
BRANCH  24  25
ATOM     25  C   UNL     1       7.722   2.938  25.141  0.00  0.00    +0.339 C 
ATOM     26  O   UNL     1       6.401   3.305  24.716  0.00  0.00    -0.334 OA
ATOM     27  C   UNL     1       6.289   3.898  23.416  0.00  0.00    +0.150 C 
ATOM     28  C   UNL     1       5.954   2.824  22.385  0.00  0.00    +0.041 C 
ATOM     29  C   UNL     1       7.361   4.959  23.059  0.00  0.00    +0.174 C 
ATOM     30  C   UNL     1       8.748   4.755  23.694  0.00  0.00    +0.180 C 
ATOM     31  C   UNL     1       8.623   4.201  25.122  0.00  0.00    +0.214 C 
BRANCH  31  32
ATOM     32  O   UNL     1       8.127   5.225  26.000  0.00  0.00    -0.383 OA
ATOM     33  H   UNL     1       8.881   5.635  26.463  0.00  0.00    +0.210 HD
ENDBRANCH  31  32
BRANCH  30  34
ATOM     34  O   UNL     1       9.562   3.915  22.871  0.00  0.00    -0.386 OA
ATOM     35  H   UNL     1      10.009   4.495  22.227  0.00  0.00    +0.210 HD
ENDBRANCH  30  34
BRANCH  29  36
ATOM     36  O   UNL     1       7.440   5.209  21.655  0.00  0.00    -0.387 OA
ATOM     37  H   UNL     1       8.294   4.844  21.353  0.00  0.00    +0.210 HD
ENDBRANCH  29  36
ENDBRANCH  24  25
ENDBRANCH   7  24
BRANCH   1  38
ATOM     38  O   UNL     1       5.605  -4.758  27.362  0.00  0.00    -0.453 OA
BRANCH  38  40
ATOM     39  C   UNL     1       3.988  -5.570  25.743  0.00  0.00    +0.221 C 
ATOM     40  C   UNL     1       4.215  -5.158  27.227  0.00  0.00    +0.340 C 
ATOM     41  O   UNL     1       3.836  -6.187  28.143  0.00  0.00    -0.331 OA
ATOM     42  C   UNL     1       2.500  -6.706  28.029  0.00  0.00    +0.179 C 
ATOM     43  C   UNL     1       2.188  -7.157  26.597  0.00  0.00    +0.177 C 
ATOM     44  C   UNL     1       2.558  -6.092  25.574  0.00  0.00    +0.180 C 
BRANCH  44  45
ATOM     45  O   UNL     1       2.398  -6.658  24.257  0.00  0.00    -0.386 OA
ATOM     46  H   UNL     1       1.618  -6.205  23.874  0.00  0.00    +0.210 HD
ENDBRANCH  44  45
BRANCH  43  47
ATOM     47  O   UNL     1       0.808  -7.499  26.438  0.00  0.00    -0.386 OA
ATOM     48  H   UNL     1       0.668  -8.268  27.029  0.00  0.00    +0.210 HD
ENDBRANCH  43  47
BRANCH  42  49
ATOM     49  C   UNL     1       1.446  -5.765  28.639  0.00  0.00    +0.190 C 
BRANCH  49  50
ATOM     50  O   UNL     1       1.547  -5.748  30.065  0.00  0.00    -0.392 OA
ATOM     51  H   UNL     1       1.858  -4.864  30.328  0.00  0.00    +0.210 HD
ENDBRANCH  49  50
ENDBRANCH  42  49
BRANCH  39  52
ATOM     52  O   UNL     1       4.084  -4.532  24.745  0.00  0.00    -0.337 OA
BRANCH  52  56
ATOM     53  C   UNL     1       6.708  -2.382  22.214  0.00  0.00    +0.041 C 
ATOM     54  C   UNL     1       5.878  -3.577  21.756  0.00  0.00    +0.149 C 
ATOM     55  O   UNL     1       4.820  -3.862  22.681  0.00  0.00    -0.343 OA
ATOM     56  C   UNL     1       5.237  -4.477  23.910  0.00  0.00    +0.282 C 
ATOM     57  C   UNL     1       5.891  -5.847  23.610  0.00  0.00    +0.201 C 
ATOM     58  C   UNL     1       7.094  -5.651  22.669  0.00  0.00    +0.179 C 
ATOM     59  C   UNL     1       6.700  -4.839  21.427  0.00  0.00    +0.174 C 
BRANCH  59  60
ATOM     60  O   UNL     1       5.899  -5.688  20.582  0.00  0.00    -0.387 OA
ATOM     61  H   UNL     1       6.434  -5.871  19.780  0.00  0.00    +0.210 HD
ENDBRANCH  59  60
BRANCH  58  62
ATOM     62  O   UNL     1       8.226  -5.111  23.347  0.00  0.00    -0.386 OA
ATOM     63  H   UNL     1       9.058  -5.522  23.055  0.00  0.00    +0.210 HD
ENDBRANCH  58  62
BRANCH  57  64
ATOM     64  O   UNL     1       4.935  -6.753  23.022  0.00  0.00    -0.384 OA
ATOM     65  H   UNL     1       4.886  -7.546  23.585  0.00  0.00    +0.210 HD
ENDBRANCH  57  64
ENDBRANCH  52  56
ENDBRANCH  39  52
ENDBRANCH  38  40
ENDBRANCH   1  38
TORSDOF 20
ENDMDL
MODEL 3
REMARK VINA RESULT:      -7.1      2.379      9.319
REMARK  Name = 
REMARK  22 active torsions:
REMARK  status: ('A' for Active; 'I' for Inactive)
REMARK    1  A    between atoms: C_1  and  C_2
REMARK    2  A    between atoms: C_4  and  O_68
REMARK    3  A    between atoms: C_6  and  O_67
REMARK    4  A    between atoms: C_8  and  O_66
REMARK    5  A    between atoms: C_10  and  O_13
REMARK    6  A    between atoms: O_13  and  C_14
REMARK    7  A    between atoms: C_16  and  O_65
REMARK    8  A    between atoms: C_18  and  O_64
REMARK    9  A    between atoms: C_20  and  C_62
REMARK   10  A    between atoms: C_23  and  O_25
REMARK   11  A    between atoms: O_25  and  C_26
REMARK   12  A    between atoms: C_27  and  C_54
REMARK   13  A    between atoms: C_31  and  O_38
REMARK   14  A    between atoms: C_33  and  O_37
REMARK   15  A    between atoms: O_38  and  C_39
REMARK   16  A    between atoms: C_41  and  O_53
REMARK   17  A    between atoms: C_43  and  O_52
REMARK   18  A    between atoms: C_45  and  O_51
REMARK   19  A    between atoms: C_47  and  C_50
REMARK   20  A    between atoms: C_56  and  O_61
REMARK   21  A    between atoms: C_57  and  O_60
REMARK   22  A    between atoms: C_62  and  O_63
REMARK                            x       y       z     vdW  Elec       q    Type
REMARK                         _______ _______ _______ _____ _____    ______ ____
ROOT
ATOM      1  C   UNL     1       6.358  -2.462  26.886  0.00  0.00    +0.214 A 
ATOM      2  C   UNL     1       7.694  -2.327  26.223  0.00  0.00    +0.238 A 
ATOM      3  O   UNL     1       8.409  -3.314  26.081  0.00  0.00    -0.283 OA
ATOM      4  C   UNL     1       8.087  -0.958  25.760  0.00  0.00    +0.109 A 
ATOM      5  C   UNL     1       7.279   0.099  26.154  0.00  0.00    +0.147 A 
ATOM      6  C   UNL     1       7.546   1.412  25.738  0.00  0.00    +0.093 A 
ATOM      7  C   UNL     1       8.638   1.703  24.917  0.00  0.00    +0.131 A 
ATOM      8  C   UNL     1       9.494   0.664  24.559  0.00  0.00    +0.092 A 
ATOM      9  O   UNL     1       6.209  -0.050  26.987  0.00  0.00    -0.451 OA
ATOM     10  C   UNL     1       9.225  -0.653  24.990  0.00  0.00    +0.135 A 
ATOM     11  C   UNL     1       5.740  -1.321  27.283  0.00  0.00    +0.181 A 
ENDROOT
BRANCH  11  12
ATOM     12  C   UNL     1       4.461  -1.187  28.019  0.00  0.00    +0.025 A 
ATOM     13  C   UNL     1       4.454  -1.596  29.366  0.00  0.00    +0.015 A 
ATOM     14  C   UNL     1       3.273  -1.657  30.106  0.00  0.00    +0.050 A 
ATOM     15  C   UNL     1       2.080  -1.318  29.498  0.00  0.00    +0.158 A 
ATOM     16  C   UNL     1       2.059  -0.895  28.172  0.00  0.00    +0.159 A 
ATOM     17  C   UNL     1       3.236  -0.846  27.415  0.00  0.00    +0.060 A 
BRANCH  16  18
ATOM     18  O   UNL     1       0.838  -0.557  27.656  0.00  0.00    -0.503 OA
ATOM     19  H   UNL     1       0.871  -0.677  26.692  0.00  0.00    +0.292 HD
ENDBRANCH  16  18
BRANCH  15  20
ATOM     20  O   UNL     1       0.923  -1.419  30.214  0.00  0.00    -0.503 OA
ATOM     21  H   UNL     1       0.920  -2.332  30.565  0.00  0.00    +0.292 HD
ENDBRANCH  15  20
ENDBRANCH  11  12
BRANCH  10  22
ATOM     22  O   UNL     1      10.118  -1.622  24.633  0.00  0.00    -0.506 OA
ATOM     23  H   UNL     1      10.902  -1.217  24.228  0.00  0.00    +0.292 HD
ENDBRANCH  10  22
BRANCH   7  24
ATOM     24  O   UNL     1       8.820   3.027  24.627  0.00  0.00    -0.461 OA
BRANCH  24  25
ATOM     25  C   UNL     1       7.997   4.012  25.271  0.00  0.00    +0.339 C 
ATOM     26  O   UNL     1       6.721   4.232  24.650  0.00  0.00    -0.334 OA
ATOM     27  C   UNL     1       6.742   4.779  23.326  0.00  0.00    +0.150 C 
ATOM     28  C   UNL     1       6.666   3.652  22.299  0.00  0.00    +0.041 C 
ATOM     29  C   UNL     1       7.746   5.935  23.083  0.00  0.00    +0.174 C 
ATOM     30  C   UNL     1       9.039   5.889  23.915  0.00  0.00    +0.180 C 
ATOM     31  C   UNL     1       8.764   5.360  25.331  0.00  0.00    +0.214 C 
BRANCH  31  32
ATOM     32  O   UNL     1       8.049   6.349  26.090  0.00  0.00    -0.383 OA
ATOM     33  H   UNL     1       7.904   7.133  25.529  0.00  0.00    +0.210 HD
ENDBRANCH  31  32
BRANCH  30  34
ATOM     34  O   UNL     1      10.042   5.116  23.249  0.00  0.00    -0.386 OA
ATOM     35  H   UNL     1      10.440   4.528  23.919  0.00  0.00    +0.210 HD
ENDBRANCH  30  34
BRANCH  29  36
ATOM     36  O   UNL     1       8.002   6.157  21.696  0.00  0.00    -0.387 OA
ATOM     37  H   UNL     1       7.711   7.069  21.500  0.00  0.00    +0.210 HD
ENDBRANCH  29  36
ENDBRANCH  24  25
ENDBRANCH   7  24
BRANCH   1  38
ATOM     38  O   UNL     1       5.926  -3.749  27.190  0.00  0.00    -0.453 OA
BRANCH  38  40
ATOM     39  C   UNL     1       5.003  -5.769  26.208  0.00  0.00    +0.221 C 
ATOM     40  C   UNL     1       4.723  -4.283  26.575  0.00  0.00    +0.340 C 
ATOM     41  O   UNL     1       3.560  -4.132  27.392  0.00  0.00    -0.331 OA
ATOM     42  C   UNL     1       2.336  -4.703  26.901  0.00  0.00    +0.179 C 
ATOM     43  C   UNL     1       2.510  -6.181  26.529  0.00  0.00    +0.177 C 
ATOM     44  C   UNL     1       3.729  -6.403  25.643  0.00  0.00    +0.180 C 
BRANCH  44  45
ATOM     45  O   UNL     1       3.918  -7.824  25.486  0.00  0.00    -0.386 OA
ATOM     46  H   UNL     1       3.148  -8.238  25.928  0.00  0.00    +0.210 HD
ENDBRANCH  44  45
BRANCH  43  47
ATOM     47  O   UNL     1       1.352  -6.702  25.869  0.00  0.00    -0.386 OA
ATOM     48  H   UNL     1       0.613  -6.129  26.166  0.00  0.00    +0.210 HD
ENDBRANCH  43  47
BRANCH  42  49
ATOM     49  C   UNL     1       1.682  -3.848  25.801  0.00  0.00    +0.190 C 
BRANCH  49  50
ATOM     50  O   UNL     1       0.486  -3.231  26.283  0.00  0.00    -0.392 OA
ATOM     51  H   UNL     1       0.567  -2.273  26.131  0.00  0.00    +0.210 HD
ENDBRANCH  49  50
ENDBRANCH  42  49
BRANCH  39  52
ATOM     52  O   UNL     1       5.986  -6.026  25.184  0.00  0.00    -0.337 OA
BRANCH  52  56
ATOM     53  C   UNL     1       5.347  -2.154  23.596  0.00  0.00    +0.041 C 
ATOM     54  C   UNL     1       5.209  -3.438  22.782  0.00  0.00    +0.149 C 
ATOM     55  O   UNL     1       5.103  -4.586  23.635  0.00  0.00    -0.343 OA
ATOM     56  C   UNL     1       6.326  -4.985  24.272  0.00  0.00    +0.282 C 
ATOM     57  C   UNL     1       7.368  -5.376  23.196  0.00  0.00    +0.201 C 
ATOM     58  C   UNL     1       7.614  -4.182  22.257  0.00  0.00    +0.179 C 
ATOM     59  C   UNL     1       6.292  -3.631  21.703  0.00  0.00    +0.174 C 
BRANCH  59  60
ATOM     60  O   UNL     1       5.795  -4.573  20.732  0.00  0.00    -0.387 OA
ATOM     61  H   UNL     1       6.432  -5.318  20.711  0.00  0.00    +0.210 HD
ENDBRANCH  59  60
BRANCH  58  62
ATOM     62  O   UNL     1       8.421  -3.175  22.862  0.00  0.00    -0.386 OA
ATOM     63  H   UNL     1       8.970  -3.530  23.584  0.00  0.00    +0.210 HD
ENDBRANCH  58  62
BRANCH  57  64
ATOM     64  O   UNL     1       6.924  -6.524  22.445  0.00  0.00    -0.384 OA
ATOM     65  H   UNL     1       6.148  -6.259  21.920  0.00  0.00    +0.210 HD
ENDBRANCH  57  64
ENDBRANCH  52  56
ENDBRANCH  39  52
ENDBRANCH  38  40
ENDBRANCH   1  38
TORSDOF 20
ENDMDL
MODEL 4
REMARK VINA RESULT:      -6.9      2.390      8.458
REMARK  Name = 
REMARK  22 active torsions:
REMARK  status: ('A' for Active; 'I' for Inactive)
REMARK    1  A    between atoms: C_1  and  C_2
REMARK    2  A    between atoms: C_4  and  O_68
REMARK    3  A    between atoms: C_6  and  O_67
REMARK    4  A    between atoms: C_8  and  O_66
REMARK    5  A    between atoms: C_10  and  O_13
REMARK    6  A    between atoms: O_13  and  C_14
REMARK    7  A    between atoms: C_16  and  O_65
REMARK    8  A    between atoms: C_18  and  O_64
REMARK    9  A    between atoms: C_20  and  C_62
REMARK   10  A    between atoms: C_23  and  O_25
REMARK   11  A    between atoms: O_25  and  C_26
REMARK   12  A    between atoms: C_27  and  C_54
REMARK   13  A    between atoms: C_31  and  O_38
REMARK   14  A    between atoms: C_33  and  O_37
REMARK   15  A    between atoms: O_38  and  C_39
REMARK   16  A    between atoms: C_41  and  O_53
REMARK   17  A    between atoms: C_43  and  O_52
REMARK   18  A    between atoms: C_45  and  O_51
REMARK   19  A    between atoms: C_47  and  C_50
REMARK   20  A    between atoms: C_56  and  O_61
REMARK   21  A    between atoms: C_57  and  O_60
REMARK   22  A    between atoms: C_62  and  O_63
REMARK                            x       y       z     vdW  Elec       q    Type
REMARK                         _______ _______ _______ _____ _____    ______ ____
ROOT
ATOM      1  C   UNL     1       6.329  -0.619  26.782  0.00  0.00    +0.214 A 
ATOM      2  C   UNL     1       6.583   0.765  27.296  0.00  0.00    +0.238 A 
ATOM      3  O   UNL     1       7.436   0.949  28.159  0.00  0.00    -0.283 OA
ATOM      4  C   UNL     1       5.761   1.869  26.707  0.00  0.00    +0.109 A 
ATOM      5  C   UNL     1       4.704   1.503  25.887  0.00  0.00    +0.147 A 
ATOM      6  C   UNL     1       3.902   2.468  25.260  0.00  0.00    +0.093 A 
ATOM      7  C   UNL     1       4.134   3.833  25.446  0.00  0.00    +0.131 A 
ATOM      8  C   UNL     1       5.155   4.221  26.312  0.00  0.00    +0.092 A 
ATOM      9  O   UNL     1       4.351   0.204  25.661  0.00  0.00    -0.451 OA
ATOM     10  C   UNL     1       5.951   3.243  26.946  0.00  0.00    +0.135 A 
ATOM     11  C   UNL     1       5.197  -0.818  26.060  0.00  0.00    +0.181 A 
ENDROOT
BRANCH  11  12
ATOM     12  C   UNL     1       4.683  -2.094  25.508  0.00  0.00    +0.025 A 
ATOM     13  C   UNL     1       4.000  -2.945  26.396  0.00  0.00    +0.015 A 
ATOM     14  C   UNL     1       3.610  -4.231  26.024  0.00  0.00    +0.050 A 
ATOM     15  C   UNL     1       3.910  -4.683  24.754  0.00  0.00    +0.158 A 
ATOM     16  C   UNL     1       4.569  -3.857  23.847  0.00  0.00    +0.159 A 
ATOM     17  C   UNL     1       4.981  -2.570  24.217  0.00  0.00    +0.060 A 
BRANCH  16  18
ATOM     18  O   UNL     1       4.806  -4.376  22.604  0.00  0.00    -0.503 OA
ATOM     19  H   UNL     1       4.897  -3.639  21.978  0.00  0.00    +0.292 HD
ENDBRANCH  16  18
BRANCH  15  20
ATOM     20  O   UNL     1       3.562  -5.956  24.408  0.00  0.00    -0.503 OA
ATOM     21  H   UNL     1       2.726  -5.865  23.909  0.00  0.00    +0.292 HD
ENDBRANCH  15  20
ENDBRANCH  11  12
BRANCH  10  22
ATOM     22  O   UNL     1       6.914   3.685  27.808  0.00  0.00    -0.506 OA
ATOM     23  H   UNL     1       7.165   2.973  28.418  0.00  0.00    +0.292 HD
ENDBRANCH  10  22
BRANCH   7  24
ATOM     24  O   UNL     1       3.249   4.670  24.824  0.00  0.00    -0.461 OA
BRANCH  24  25
ATOM     25  C   UNL     1       3.740   5.825  24.124  0.00  0.00    +0.339 C 
ATOM     26  O   UNL     1       2.840   6.943  24.100  0.00  0.00    -0.334 OA
ATOM     27  C   UNL     1       1.606   6.754  23.398  0.00  0.00    +0.150 C 
ATOM     28  C   UNL     1       0.513   6.331  24.375  0.00  0.00    +0.041 C 
ATOM     29  C   UNL     1       1.704   6.021  22.035  0.00  0.00    +0.174 C 
ATOM     30  C   UNL     1       2.825   4.974  21.914  0.00  0.00    +0.180 C 
ATOM     31  C   UNL     1       4.086   5.429  22.665  0.00  0.00    +0.214 C 
BRANCH  31  32
ATOM     32  O   UNL     1       4.715   6.508  21.953  0.00  0.00    -0.383 OA
ATOM     33  H   UNL     1       4.089   6.855  21.291  0.00  0.00    +0.210 HD
ENDBRANCH  31  32
BRANCH  30  34
ATOM     34  O   UNL     1       2.374   3.696  22.367  0.00  0.00    -0.386 OA
ATOM     35  H   UNL     1       3.169   3.178  22.598  0.00  0.00    +0.210 HD
ENDBRANCH  30  34
BRANCH  29  36
ATOM     36  O   UNL     1       0.444   5.519  21.589  0.00  0.00    -0.387 OA
ATOM     37  H   UNL     1       0.606   4.617  21.251  0.00  0.00    +0.210 HD
ENDBRANCH  29  36
ENDBRANCH  24  25
ENDBRANCH   7  24
BRANCH   1  38
ATOM     38  O   UNL     1       7.183  -1.627  27.219  0.00  0.00    -0.453 OA
BRANCH  38  40
ATOM     39  C   UNL     1       8.498  -2.351  25.310  0.00  0.00    +0.221 C 
ATOM     40  C   UNL     1       7.448  -2.780  26.375  0.00  0.00    +0.340 C 
ATOM     41  O   UNL     1       7.858  -3.933  27.113  0.00  0.00    -0.331 OA
ATOM     42  C   UNL     1       8.220  -5.100  26.356  0.00  0.00    +0.179 C 
ATOM     43  C   UNL     1       9.271  -4.777  25.287  0.00  0.00    +0.177 C 
ATOM     44  C   UNL     1       8.880  -3.563  24.455  0.00  0.00    +0.180 C 
BRANCH  44  45
ATOM     45  O   UNL     1       9.991  -3.226  23.600  0.00  0.00    -0.386 OA
ATOM     46  H   UNL     1      10.789  -3.331  24.159  0.00  0.00    +0.210 HD
ENDBRANCH  44  45
BRANCH  43  47
ATOM     47  O   UNL     1       9.497  -5.888  24.413  0.00  0.00    -0.386 OA
ATOM     48  H   UNL     1      10.317  -5.663  23.925  0.00  0.00    +0.210 HD
ENDBRANCH  43  47
BRANCH  42  49
ATOM     49  C   UNL     1       6.995  -5.867  25.827  0.00  0.00    +0.190 C 
BRANCH  49  50
ATOM     50  O   UNL     1       6.248  -6.434  26.906  0.00  0.00    -0.392 OA
ATOM     51  H   UNL     1       6.384  -7.397  26.883  0.00  0.00    +0.210 HD
ENDBRANCH  49  50
ENDBRANCH  42  49
BRANCH  39  52
ATOM     52  O   UNL     1       8.089  -1.370  24.333  0.00  0.00    -0.337 OA
BRANCH  52  56
ATOM     53  C   UNL     1       8.591   2.794  24.903  0.00  0.00    +0.041 C 
ATOM     54  C   UNL     1       8.520   2.128  23.531  0.00  0.00    +0.149 C 
ATOM     55  O   UNL     1       7.973   0.805  23.623  0.00  0.00    -0.343 OA
ATOM     56  C   UNL     1       8.856  -0.180  24.182  0.00  0.00    +0.282 C 
ATOM     57  C   UNL     1      10.110  -0.321  23.285  0.00  0.00    +0.201 C 
ATOM     58  C   UNL     1      10.821   1.039  23.172  0.00  0.00    +0.179 C 
ATOM     59  C   UNL     1       9.843   2.142  22.743  0.00  0.00    +0.174 C 
BRANCH  59  60
ATOM     60  O   UNL     1       9.537   1.941  21.349  0.00  0.00    -0.387 OA
ATOM     61  H   UNL     1       9.243   1.010  21.257  0.00  0.00    +0.210 HD
ENDBRANCH  59  60
BRANCH  58  62
ATOM     62  O   UNL     1      11.543   1.371  24.356  0.00  0.00    -0.386 OA
ATOM     63  H   UNL     1      11.535   2.328  24.534  0.00  0.00    +0.210 HD
ENDBRANCH  58  62
BRANCH  57  64
ATOM     64  O   UNL     1       9.752  -0.812  21.977  0.00  0.00    -0.384 OA
ATOM     65  H   UNL     1      10.113  -0.195  21.315  0.00  0.00    +0.210 HD
ENDBRANCH  57  64
ENDBRANCH  52  56
ENDBRANCH  39  52
ENDBRANCH  38  40
ENDBRANCH   1  38
TORSDOF 20
ENDMDL
MODEL 5
REMARK VINA RESULT:      -6.9      2.019      4.252
REMARK  Name = 
REMARK  22 active torsions:
REMARK  status: ('A' for Active; 'I' for Inactive)
REMARK    1  A    between atoms: C_1  and  C_2
REMARK    2  A    between atoms: C_4  and  O_68
REMARK    3  A    between atoms: C_6  and  O_67
REMARK    4  A    between atoms: C_8  and  O_66
REMARK    5  A    between atoms: C_10  and  O_13
REMARK    6  A    between atoms: O_13  and  C_14
REMARK    7  A    between atoms: C_16  and  O_65
REMARK    8  A    between atoms: C_18  and  O_64
REMARK    9  A    between atoms: C_20  and  C_62
REMARK   10  A    between atoms: C_23  and  O_25
REMARK   11  A    between atoms: O_25  and  C_26
REMARK   12  A    between atoms: C_27  and  C_54
REMARK   13  A    between atoms: C_31  and  O_38
REMARK   14  A    between atoms: C_33  and  O_37
REMARK   15  A    between atoms: O_38  and  C_39
REMARK   16  A    between atoms: C_41  and  O_53
REMARK   17  A    between atoms: C_43  and  O_52
REMARK   18  A    between atoms: C_45  and  O_51
REMARK   19  A    between atoms: C_47  and  C_50
REMARK   20  A    between atoms: C_56  and  O_61
REMARK   21  A    between atoms: C_57  and  O_60
REMARK   22  A    between atoms: C_62  and  O_63
REMARK                            x       y       z     vdW  Elec       q    Type
REMARK                         _______ _______ _______ _____ _____    ______ ____
ROOT
ATOM      1  C   UNL     1       6.902  -0.410  26.108  0.00  0.00    +0.214 A 
ATOM      2  C   UNL     1       5.798  -0.546  27.111  0.00  0.00    +0.238 A 
ATOM      3  O   UNL     1       5.773   0.186  28.095  0.00  0.00    -0.283 OA
ATOM      4  C   UNL     1       4.762  -1.594  26.843  0.00  0.00    +0.109 A 
ATOM      5  C   UNL     1       5.012  -2.479  25.805  0.00  0.00    +0.147 A 
ATOM      6  C   UNL     1       4.082  -3.470  25.455  0.00  0.00    +0.093 A 
ATOM      7  C   UNL     1       2.875  -3.606  26.145  0.00  0.00    +0.131 A 
ATOM      8  C   UNL     1       2.633  -2.763  27.229  0.00  0.00    +0.092 A 
ATOM      9  O   UNL     1       6.170  -2.475  25.083  0.00  0.00    -0.451 OA
ATOM     10  C   UNL     1       3.578  -1.775  27.580  0.00  0.00    +0.135 A 
ATOM     11  C   UNL     1       7.054  -1.415  25.208  0.00  0.00    +0.181 A 
ENDROOT
BRANCH  11  12
ATOM     12  C   UNL     1       8.103  -1.556  24.170  0.00  0.00    +0.025 A 
ATOM     13  C   UNL     1       9.343  -2.079  24.583  0.00  0.00    +0.015 A 
ATOM     14  C   UNL     1      10.444  -2.111  23.728  0.00  0.00    +0.050 A 
ATOM     15  C   UNL     1      10.317  -1.610  22.448  0.00  0.00    +0.158 A 
ATOM     16  C   UNL     1       9.098  -1.103  22.006  0.00  0.00    +0.159 A 
ATOM     17  C   UNL     1       7.990  -1.049  22.863  0.00  0.00    +0.060 A 
BRANCH  16  18
ATOM     18  O   UNL     1       9.053  -0.647  20.717  0.00  0.00    -0.503 OA
ATOM     19  H   UNL     1       9.554  -1.264  20.158  0.00  0.00    +0.292 HD
ENDBRANCH  16  18
BRANCH  15  20
ATOM     20  O   UNL     1      11.408  -1.608  21.629  0.00  0.00    -0.503 OA
ATOM     21  H   UNL     1      11.689  -2.542  21.576  0.00  0.00    +0.292 HD
ENDBRANCH  15  20
ENDBRANCH  11  12
BRANCH  10  22
ATOM     22  O   UNL     1       3.297  -1.003  28.671  0.00  0.00    -0.506 OA
ATOM     23  H   UNL     1       3.226  -0.071  28.407  0.00  0.00    +0.292 HD
ENDBRANCH  10  22
BRANCH   7  24
ATOM     24  O   UNL     1       2.081  -4.643  25.744  0.00  0.00    -0.461 OA
BRANCH  24  25
ATOM     25  C   UNL     1       1.993  -5.824  26.557  0.00  0.00    +0.339 C 
ATOM     26  O   UNL     1       3.072  -6.756  26.385  0.00  0.00    -0.334 OA
ATOM     27  C   UNL     1       3.184  -7.371  25.096  0.00  0.00    +0.150 C 
ATOM     28  C   UNL     1       4.172  -6.591  24.234  0.00  0.00    +0.041 C 
ATOM     29  C   UNL     1       1.857  -7.849  24.453  0.00  0.00    +0.174 C 
ATOM     30  C   UNL     1       0.605  -7.027  24.806  0.00  0.00    +0.180 C 
ATOM     31  C   UNL     1       0.653  -6.549  26.265  0.00  0.00    +0.214 C 
BRANCH  31  32
ATOM     32  O   UNL     1       0.443  -7.662  27.150  0.00  0.00    -0.383 OA
ATOM     33  H   UNL     1      -0.187  -8.279  26.735  0.00  0.00    +0.210 HD
ENDBRANCH  31  32
BRANCH  30  34
ATOM     34  O   UNL     1       0.445  -5.934  23.897  0.00  0.00    -0.386 OA
ATOM     35  H   UNL     1       1.315  -5.500  23.819  0.00  0.00    +0.210 HD
ENDBRANCH  30  34
BRANCH  29  36
ATOM     36  O   UNL     1       1.978  -8.076  23.049  0.00  0.00    -0.387 OA
ATOM     37  H   UNL     1       1.094  -7.922  22.662  0.00  0.00    +0.210 HD
ENDBRANCH  29  36
ENDBRANCH  24  25
ENDBRANCH   7  24
BRANCH   1  38
ATOM     38  O   UNL     1       7.786   0.652  26.273  0.00  0.00    -0.453 OA
BRANCH  38  40
ATOM     39  C   UNL     1       7.571   3.061  26.066  0.00  0.00    +0.221 C 
ATOM     40  C   UNL     1       7.826   1.731  25.301  0.00  0.00    +0.340 C 
ATOM     41  O   UNL     1       9.039   1.759  24.545  0.00  0.00    -0.331 OA
ATOM     42  C   UNL     1       9.205   2.841  23.614  0.00  0.00    +0.179 C 
ATOM     43  C   UNL     1       8.989   4.203  24.285  0.00  0.00    +0.177 C 
ATOM     44  C   UNL     1       7.700   4.239  25.095  0.00  0.00    +0.180 C 
BRANCH  44  45
ATOM     45  O   UNL     1       7.662   5.481  25.827  0.00  0.00    -0.386 OA
ATOM     46  H   UNL     1       6.822   5.910  25.564  0.00  0.00    +0.210 HD
ENDBRANCH  44  45
BRANCH  43  47
ATOM     47  O   UNL     1       8.968   5.268  23.329  0.00  0.00    -0.386 OA
ATOM     48  H   UNL     1       8.654   4.855  22.497  0.00  0.00    +0.210 HD
ENDBRANCH  43  47
BRANCH  42  49
ATOM     49  C   UNL     1       8.395   2.639  22.321  0.00  0.00    +0.190 C 
BRANCH  49  50
ATOM     50  O   UNL     1       9.219   2.093  21.288  0.00  0.00    -0.392 OA
ATOM     51  H   UNL     1       8.989   2.546  20.457  0.00  0.00    +0.210 HD
ENDBRANCH  49  50
ENDBRANCH  42  49
BRANCH  39  52
ATOM     52  O   UNL     1       6.265   3.251  26.649  0.00  0.00    -0.337 OA
BRANCH  52  56
ATOM     53  C   UNL     1       4.123   5.834  24.068  0.00  0.00    +0.041 C 
ATOM     54  C   UNL     1       3.563   5.289  25.379  0.00  0.00    +0.149 C 
ATOM     55  O   UNL     1       4.606   4.772  26.216  0.00  0.00    -0.343 OA
ATOM     56  C   UNL     1       5.155   3.514  25.795  0.00  0.00    +0.282 C 
ATOM     57  C   UNL     1       4.048   2.432  25.813  0.00  0.00    +0.201 C 
ATOM     58  C   UNL     1       2.896   2.856  24.885  0.00  0.00    +0.179 C 
ATOM     59  C   UNL     1       2.414   4.276  25.212  0.00  0.00    +0.174 C 
BRANCH  59  60
ATOM     60  O   UNL     1       1.683   4.218  26.453  0.00  0.00    -0.387 OA
ATOM     61  H   UNL     1       2.064   3.477  26.969  0.00  0.00    +0.210 HD
ENDBRANCH  59  60
BRANCH  58  62
ATOM     62  O   UNL     1       3.222   2.687  23.507  0.00  0.00    -0.386 OA
ATOM     63  H   UNL     1       2.635   3.201  22.926  0.00  0.00    +0.210 HD
ENDBRANCH  58  62
BRANCH  57  64
ATOM     64  O   UNL     1       3.561   2.219  27.154  0.00  0.00    -0.384 OA
ATOM     65  H   UNL     1       2.764   1.663  27.100  0.00  0.00    +0.210 HD
ENDBRANCH  57  64
ENDBRANCH  52  56
ENDBRANCH  39  52
ENDBRANCH  38  40
ENDBRANCH   1  38
TORSDOF 20
ENDMDL
MODEL 6
REMARK VINA RESULT:      -6.9      2.222      4.606
REMARK  Name = 
REMARK  22 active torsions:
REMARK  status: ('A' for Active; 'I' for Inactive)
REMARK    1  A    between atoms: C_1  and  C_2
REMARK    2  A    between atoms: C_4  and  O_68
REMARK    3  A    between atoms: C_6  and  O_67
REMARK    4  A    between atoms: C_8  and  O_66
REMARK    5  A    between atoms: C_10  and  O_13
REMARK    6  A    between atoms: O_13  and  C_14
REMARK    7  A    between atoms: C_16  and  O_65
REMARK    8  A    between atoms: C_18  and  O_64
REMARK    9  A    between atoms: C_20  and  C_62
REMARK   10  A    between atoms: C_23  and  O_25
REMARK   11  A    between atoms: O_25  and  C_26
REMARK   12  A    between atoms: C_27  and  C_54
REMARK   13  A    between atoms: C_31  and  O_38
REMARK   14  A    between atoms: C_33  and  O_37
REMARK   15  A    between atoms: O_38  and  C_39
REMARK   16  A    between atoms: C_41  and  O_53
REMARK   17  A    between atoms: C_43  and  O_52
REMARK   18  A    between atoms: C_45  and  O_51
REMARK   19  A    between atoms: C_47  and  C_50
REMARK   20  A    between atoms: C_56  and  O_61
REMARK   21  A    between atoms: C_57  and  O_60
REMARK   22  A    between atoms: C_62  and  O_63
REMARK                            x       y       z     vdW  Elec       q    Type
REMARK                         _______ _______ _______ _____ _____    ______ ____
ROOT
ATOM      1  C   UNL     1       6.754   0.567  26.413  0.00  0.00    +0.214 A 
ATOM      2  C   UNL     1       5.916  -0.182  27.402  0.00  0.00    +0.238 A 
ATOM      3  O   UNL     1       5.765   0.263  28.536  0.00  0.00    -0.283 OA
ATOM      4  C   UNL     1       5.293  -1.461  26.935  0.00  0.00    +0.109 A 
ATOM      5  C   UNL     1       5.699  -1.947  25.701  0.00  0.00    +0.147 A 
ATOM      6  C   UNL     1       5.143  -3.118  25.162  0.00  0.00    +0.093 A 
ATOM      7  C   UNL     1       4.167  -3.839  25.853  0.00  0.00    +0.131 A 
ATOM      8  C   UNL     1       3.789  -3.399  27.121  0.00  0.00    +0.092 A 
ATOM      9  O   UNL     1       6.672  -1.356  24.949  0.00  0.00    -0.451 OA
ATOM     10  C   UNL     1       4.360  -2.225  27.659  0.00  0.00    +0.135 A 
ATOM     11  C   UNL     1       7.131  -0.094  25.289  0.00  0.00    +0.181 A 
ENDROOT
BRANCH  11  12
ATOM     12  C   UNL     1       8.013   0.392  24.201  0.00  0.00    +0.025 A 
ATOM     13  C   UNL     1       9.373   0.571  24.514  0.00  0.00    +0.015 A 
ATOM     14  C   UNL     1      10.259   1.166  23.615  0.00  0.00    +0.050 A 
ATOM     15  C   UNL     1       9.786   1.597  22.392  0.00  0.00    +0.158 A 
ATOM     16  C   UNL     1       8.449   1.418  22.048  0.00  0.00    +0.159 A 
ATOM     17  C   UNL     1       7.548   0.838  22.950  0.00  0.00    +0.060 A 
BRANCH  16  18
ATOM     18  O   UNL     1       8.070   1.855  20.808  0.00  0.00    -0.503 OA
ATOM     19  H   UNL     1       8.832   1.775  20.210  0.00  0.00    +0.292 HD
ENDBRANCH  16  18
BRANCH  15  20
ATOM     20  O   UNL     1      10.648   2.215  21.533  0.00  0.00    -0.503 OA
ATOM     21  H   UNL     1      11.540   1.959  21.839  0.00  0.00    +0.292 HD
ENDBRANCH  15  20
ENDBRANCH  11  12
BRANCH  10  22
ATOM     22  O   UNL     1       3.972  -1.863  28.917  0.00  0.00    -0.506 OA
ATOM     23  H   UNL     1       4.736  -1.875  29.516  0.00  0.00    +0.292 HD
ENDBRANCH  10  22
BRANCH   7  24
ATOM     24  O   UNL     1       3.746  -4.990  25.247  0.00  0.00    -0.461 OA
BRANCH  24  25
ATOM     25  C   UNL     1       2.445  -5.035  24.639  0.00  0.00    +0.339 C 
ATOM     26  O   UNL     1       1.406  -5.565  25.477  0.00  0.00    -0.334 OA
ATOM     27  C   UNL     1       1.531  -6.941  25.855  0.00  0.00    +0.150 C 
ATOM     28  C   UNL     1       2.213  -7.043  27.217  0.00  0.00    +0.041 C 
ATOM     29  C   UNL     1       1.969  -7.918  24.734  0.00  0.00    +0.174 C 
ATOM     30  C   UNL     1       2.894  -7.331  23.653  0.00  0.00    +0.180 C 
ATOM     31  C   UNL     1       2.517  -5.875  23.337  0.00  0.00    +0.214 C 
BRANCH  31  32
ATOM     32  O   UNL     1       1.278  -5.840  22.609  0.00  0.00    -0.383 OA
ATOM     33  H   UNL     1       1.461  -6.016  21.668  0.00  0.00    +0.210 HD
ENDBRANCH  31  32
BRANCH  30  34
ATOM     34  O   UNL     1       4.265  -7.447  24.044  0.00  0.00    -0.386 OA
ATOM     35  H   UNL     1       4.444  -6.723  24.673  0.00  0.00    +0.210 HD
ENDBRANCH  30  34
BRANCH  29  36
ATOM     36  O   UNL     1       2.453  -9.160  25.245  0.00  0.00    -0.387 OA
ATOM     37  H   UNL     1       3.369  -9.259  24.919  0.00  0.00    +0.210 HD
ENDBRANCH  29  36
ENDBRANCH  24  25
ENDBRANCH   7  24
BRANCH   1  38
ATOM     38  O   UNL     1       7.219   1.823  26.793  0.00  0.00    -0.453 OA
BRANCH  38  40
ATOM     39  C   UNL     1       6.279   4.045  27.065  0.00  0.00    +0.221 C 
ATOM     40  C   UNL     1       6.827   3.006  26.045  0.00  0.00    +0.340 C 
ATOM     41  O   UNL     1       7.882   3.535  25.241  0.00  0.00    -0.331 OA
ATOM     42  C   UNL     1       7.614   4.753  24.526  0.00  0.00    +0.179 C 
ATOM     43  C   UNL     1       7.082   5.849  25.458  0.00  0.00    +0.177 C 
ATOM     44  C   UNL     1       5.942   5.347  26.333  0.00  0.00    +0.180 C 
BRANCH  44  45
ATOM     45  O   UNL     1       5.622   6.377  27.291  0.00  0.00    -0.386 OA
ATOM     46  H   UNL     1       4.936   6.927  26.860  0.00  0.00    +0.210 HD
ENDBRANCH  44  45
BRANCH  43  47
ATOM     47  O   UNL     1       6.640   6.998  24.728  0.00  0.00    -0.386 OA
ATOM     48  H   UNL     1       6.683   7.738  25.370  0.00  0.00    +0.210 HD
ENDBRANCH  43  47
BRANCH  42  49
ATOM     49  C   UNL     1       6.758   4.525  23.267  0.00  0.00    +0.190 C 
BRANCH  49  50
ATOM     50  O   UNL     1       7.549   4.670  22.085  0.00  0.00    -0.392 OA
ATOM     51  H   UNL     1       6.988   4.435  21.325  0.00  0.00    +0.210 HD
ENDBRANCH  49  50
ENDBRANCH  42  49
BRANCH  39  52
ATOM     52  O   UNL     1       5.050   3.719  27.748  0.00  0.00    -0.337 OA
BRANCH  52  56
ATOM     53  C   UNL     1       1.831   5.713  25.856  0.00  0.00    +0.041 C 
ATOM     54  C   UNL     1       1.663   4.763  27.038  0.00  0.00    +0.149 C 
ATOM     55  O   UNL     1       2.911   4.540  27.708  0.00  0.00    -0.343 OA
ATOM     56  C   UNL     1       3.833   3.689  27.009  0.00  0.00    +0.282 C 
ATOM     57  C   UNL     1       3.210   2.283  26.835  0.00  0.00    +0.201 C 
ATOM     58  C   UNL     1       1.885   2.396  26.059  0.00  0.00    +0.179 C 
ATOM     59  C   UNL     1       0.955   3.437  26.699  0.00  0.00    +0.174 C 
BRANCH  59  60
ATOM     60  O   UNL     1       0.443   2.876  27.925  0.00  0.00    -0.387 OA
ATOM     61  H   UNL     1      -0.492   3.163  27.996  0.00  0.00    +0.210 HD
ENDBRANCH  59  60
BRANCH  58  62
ATOM     62  O   UNL     1       2.092   2.622  24.667  0.00  0.00    -0.386 OA
ATOM     63  H   UNL     1       1.875   1.838  24.133  0.00  0.00    +0.210 HD
ENDBRANCH  58  62
BRANCH  57  64
ATOM     64  O   UNL     1       2.991   1.656  28.116  0.00  0.00    -0.384 OA
ATOM     65  H   UNL     1       2.801   0.714  27.961  0.00  0.00    +0.210 HD
ENDBRANCH  57  64
ENDBRANCH  52  56
ENDBRANCH  39  52
ENDBRANCH  38  40
ENDBRANCH   1  38
TORSDOF 20
ENDMDL
MODEL 7
REMARK VINA RESULT:      -6.7      2.458      9.799
REMARK  Name = 
REMARK  22 active torsions:
REMARK  status: ('A' for Active; 'I' for Inactive)
REMARK    1  A    between atoms: C_1  and  C_2
REMARK    2  A    between atoms: C_4  and  O_68
REMARK    3  A    between atoms: C_6  and  O_67
REMARK    4  A    between atoms: C_8  and  O_66
REMARK    5  A    between atoms: C_10  and  O_13
REMARK    6  A    between atoms: O_13  and  C_14
REMARK    7  A    between atoms: C_16  and  O_65
REMARK    8  A    between atoms: C_18  and  O_64
REMARK    9  A    between atoms: C_20  and  C_62
REMARK   10  A    between atoms: C_23  and  O_25
REMARK   11  A    between atoms: O_25  and  C_26
REMARK   12  A    between atoms: C_27  and  C_54
REMARK   13  A    between atoms: C_31  and  O_38
REMARK   14  A    between atoms: C_33  and  O_37
REMARK   15  A    between atoms: O_38  and  C_39
REMARK   16  A    between atoms: C_41  and  O_53
REMARK   17  A    between atoms: C_43  and  O_52
REMARK   18  A    between atoms: C_45  and  O_51
REMARK   19  A    between atoms: C_47  and  C_50
REMARK   20  A    between atoms: C_56  and  O_61
REMARK   21  A    between atoms: C_57  and  O_60
REMARK   22  A    between atoms: C_62  and  O_63
REMARK                            x       y       z     vdW  Elec       q    Type
REMARK                         _______ _______ _______ _____ _____    ______ ____
ROOT
ATOM      1  C   UNL     1       6.253  -1.196  24.021  0.00  0.00    +0.214 A 
ATOM      2  C   UNL     1       7.257  -0.758  23.000  0.00  0.00    +0.238 A 
ATOM      3  O   UNL     1       7.504  -1.478  22.038  0.00  0.00    -0.283 OA
ATOM      4  C   UNL     1       7.914   0.570  23.219  0.00  0.00    +0.109 A 
ATOM      5  C   UNL     1       7.692   1.192  24.439  0.00  0.00    +0.147 A 
ATOM      6  C   UNL     1       8.234   2.454  24.721  0.00  0.00    +0.093 A 
ATOM      7  C   UNL     1       9.024   3.128  23.786  0.00  0.00    +0.131 A 
ATOM      8  C   UNL     1       9.307   2.493  22.578  0.00  0.00    +0.092 A 
ATOM      9  O   UNL     1       6.973   0.619  25.448  0.00  0.00    -0.451 OA
ATOM     10  C   UNL     1       8.765   1.219  22.306  0.00  0.00    +0.135 A 
ATOM     11  C   UNL     1       6.227  -0.522  25.199  0.00  0.00    +0.181 A 
ENDROOT
BRANCH  11  12
ATOM     12  C   UNL     1       5.388  -0.802  26.389  0.00  0.00    +0.025 A 
ATOM     13  C   UNL     1       4.785   0.302  27.018  0.00  0.00    +0.015 A 
ATOM     14  C   UNL     1       4.104   0.173  28.229  0.00  0.00    +0.050 A 
ATOM     15  C   UNL     1       4.029  -1.069  28.828  0.00  0.00    +0.158 A 
ATOM     16  C   UNL     1       4.602  -2.182  28.221  0.00  0.00    +0.159 A 
ATOM     17  C   UNL     1       5.303  -2.060  27.014  0.00  0.00    +0.060 A 
BRANCH  16  18
ATOM     18  O   UNL     1       4.462  -3.377  28.872  0.00  0.00    -0.503 OA
ATOM     19  H   UNL     1       4.918  -4.062  28.354  0.00  0.00    +0.292 HD
ENDBRANCH  16  18
BRANCH  15  20
ATOM     20  O   UNL     1       3.397  -1.182  30.032  0.00  0.00    -0.503 OA
ATOM     21  H   UNL     1       2.473  -0.912  29.861  0.00  0.00    +0.292 HD
ENDBRANCH  15  20
ENDBRANCH  11  12
BRANCH  10  22
ATOM     22  O   UNL     1       9.105   0.636  21.118  0.00  0.00    -0.506 OA
ATOM     23  H   UNL     1       9.013  -0.328  21.184  0.00  0.00    +0.292 HD
ENDBRANCH  10  22
BRANCH   7  24
ATOM     24  O   UNL     1       9.537   4.325  24.202  0.00  0.00    -0.461 OA
BRANCH  24  25
ATOM     25  C   UNL     1       8.931   5.548  23.754  0.00  0.00    +0.339 C 
ATOM     26  O   UNL     1       9.760   6.714  23.883  0.00  0.00    -0.334 OA
ATOM     27  C   UNL     1      10.110   7.104  25.216  0.00  0.00    +0.150 C 
ATOM     28  C   UNL     1      11.468   6.515  25.588  0.00  0.00    +0.041 C 
ATOM     29  C   UNL     1       8.967   7.049  26.263  0.00  0.00    +0.174 C 
ATOM     30  C   UNL     1       7.897   5.967  26.034  0.00  0.00    +0.180 C 
ATOM     31  C   UNL     1       7.612   5.783  24.536  0.00  0.00    +0.214 C 
BRANCH  31  32
ATOM     32  O   UNL     1       6.887   6.918  24.034  0.00  0.00    -0.383 OA
ATOM     33  H   UNL     1       7.521   7.628  23.823  0.00  0.00    +0.210 HD
ENDBRANCH  31  32
BRANCH  30  34
ATOM     34  O   UNL     1       8.283   4.737  26.653  0.00  0.00    -0.386 OA
ATOM     35  H   UNL     1       9.256   4.688  26.608  0.00  0.00    +0.210 HD
ENDBRANCH  30  34
BRANCH  29  36
ATOM     36  O   UNL     1       9.452   7.057  27.606  0.00  0.00    -0.387 OA
ATOM     37  H   UNL     1       8.917   6.407  28.101  0.00  0.00    +0.210 HD
ENDBRANCH  29  36
ENDBRANCH  24  25
ENDBRANCH   7  24
BRANCH   1  38
ATOM     38  O   UNL     1       5.536  -2.358  23.752  0.00  0.00    -0.453 OA
BRANCH  38  40
ATOM     39  C   UNL     1       5.720  -4.497  22.618  0.00  0.00    +0.221 C 
ATOM     40  C   UNL     1       6.183  -3.656  23.842  0.00  0.00    +0.340 C 
ATOM     41  O   UNL     1       7.606  -3.568  23.937  0.00  0.00    -0.331 OA
ATOM     42  C   UNL     1       8.340  -4.804  23.950  0.00  0.00    +0.179 C 
ATOM     43  C   UNL     1       7.961  -5.698  22.763  0.00  0.00    +0.177 C 
ATOM     44  C   UNL     1       6.452  -5.842  22.620  0.00  0.00    +0.180 C 
BRANCH  44  45
ATOM     45  O   UNL     1       6.182  -6.546  21.390  0.00  0.00    -0.386 OA
ATOM     46  H   UNL     1       5.500  -6.013  20.931  0.00  0.00    +0.210 HD
ENDBRANCH  44  45
BRANCH  43  47
ATOM     47  O   UNL     1       8.546  -7.000  22.872  0.00  0.00    -0.386 OA
ATOM     48  H   UNL     1       9.042  -7.124  22.034  0.00  0.00    +0.210 HD
ENDBRANCH  43  47
BRANCH  42  49
ATOM     49  C   UNL     1       8.285  -5.511  25.316  0.00  0.00    +0.190 C 
BRANCH  49  50
ATOM     50  O   UNL     1       9.567  -6.040  25.664  0.00  0.00    -0.392 OA
ATOM     51  H   UNL     1      10.203  -5.736  24.992  0.00  0.00    +0.210 HD
ENDBRANCH  49  50
ENDBRANCH  42  49
BRANCH  39  52
ATOM     52  O   UNL     1       4.329  -4.875  22.562  0.00  0.00    -0.337 OA
BRANCH  52  56
ATOM     53  C   UNL     1       4.512  -6.117  26.605  0.00  0.00    +0.041 C 
ATOM     54  C   UNL     1       4.178  -7.051  25.445  0.00  0.00    +0.149 C 
ATOM     55  O   UNL     1       4.556  -6.475  24.187  0.00  0.00    -0.343 OA
ATOM     56  C   UNL     1       3.707  -5.412  23.726  0.00  0.00    +0.282 C 
ATOM     57  C   UNL     1       2.273  -5.951  23.509  0.00  0.00    +0.201 C 
ATOM     58  C   UNL     1       1.736  -6.538  24.827  0.00  0.00    +0.179 C 
ATOM     59  C   UNL     1       2.722  -7.552  25.425  0.00  0.00    +0.174 C 
BRANCH  59  60
ATOM     60  O   UNL     1       2.668  -8.745  24.619  0.00  0.00    -0.387 OA
ATOM     61  H   UNL     1       2.507  -9.492  25.233  0.00  0.00    +0.210 HD
ENDBRANCH  59  60
BRANCH  58  62
ATOM     62  O   UNL     1       1.356  -5.523  25.754  0.00  0.00    -0.386 OA
ATOM     63  H   UNL     1       2.118  -4.995  26.051  0.00  0.00    +0.210 HD
ENDBRANCH  58  62
BRANCH  57  64
ATOM     64  O   UNL     1       2.251  -6.951  22.469  0.00  0.00    -0.384 OA
ATOM     65  H   UNL     1       2.516  -6.523  21.635  0.00  0.00    +0.210 HD
ENDBRANCH  57  64
ENDBRANCH  52  56
ENDBRANCH  39  52
ENDBRANCH  38  40
ENDBRANCH   1  38
TORSDOF 20
ENDMDL
MODEL 8
REMARK VINA RESULT:      -6.7      2.368     10.525
REMARK  Name = 
REMARK  22 active torsions:
REMARK  status: ('A' for Active; 'I' for Inactive)
REMARK    1  A    between atoms: C_1  and  C_2
REMARK    2  A    between atoms: C_4  and  O_68
REMARK    3  A    between atoms: C_6  and  O_67
REMARK    4  A    between atoms: C_8  and  O_66
REMARK    5  A    between atoms: C_10  and  O_13
REMARK    6  A    between atoms: O_13  and  C_14
REMARK    7  A    between atoms: C_16  and  O_65
REMARK    8  A    between atoms: C_18  and  O_64
REMARK    9  A    between atoms: C_20  and  C_62
REMARK   10  A    between atoms: C_23  and  O_25
REMARK   11  A    between atoms: O_25  and  C_26
REMARK   12  A    between atoms: C_27  and  C_54
REMARK   13  A    between atoms: C_31  and  O_38
REMARK   14  A    between atoms: C_33  and  O_37
REMARK   15  A    between atoms: O_38  and  C_39
REMARK   16  A    between atoms: C_41  and  O_53
REMARK   17  A    between atoms: C_43  and  O_52
REMARK   18  A    between atoms: C_45  and  O_51
REMARK   19  A    between atoms: C_47  and  C_50
REMARK   20  A    between atoms: C_56  and  O_61
REMARK   21  A    between atoms: C_57  and  O_60
REMARK   22  A    between atoms: C_62  and  O_63
REMARK                            x       y       z     vdW  Elec       q    Type
REMARK                         _______ _______ _______ _____ _____    ______ ____
ROOT
ATOM      1  C   UNL     1       5.717  -2.164  26.680  0.00  0.00    +0.214 A 
ATOM      2  C   UNL     1       5.360  -0.951  27.482  0.00  0.00    +0.238 A 
ATOM      3  O   UNL     1       4.949  -1.078  28.631  0.00  0.00    -0.283 OA
ATOM      4  C   UNL     1       5.532   0.379  26.816  0.00  0.00    +0.109 A 
ATOM      5  C   UNL     1       5.816   0.375  25.458  0.00  0.00    +0.147 A 
ATOM      6  C   UNL     1       6.032   1.570  24.757  0.00  0.00    +0.093 A 
ATOM      7  C   UNL     1       5.961   2.809  25.399  0.00  0.00    +0.131 A 
ATOM      8  C   UNL     1       5.619   2.837  26.750  0.00  0.00    +0.092 A 
ATOM      9  O   UNL     1       5.871  -0.766  24.711  0.00  0.00    -0.451 OA
ATOM     10  C   UNL     1       5.394   1.630  27.446  0.00  0.00    +0.135 A 
ATOM     11  C   UNL     1       5.880  -2.001  25.342  0.00  0.00    +0.181 A 
ENDROOT
BRANCH  11  12
ATOM     12  C   UNL     1       6.160  -3.043  24.325  0.00  0.00    +0.025 A 
ATOM     13  C   UNL     1       7.118  -4.018  24.658  0.00  0.00    +0.015 A 
ATOM     14  C   UNL     1       7.568  -4.950  23.723  0.00  0.00    +0.050 A 
ATOM     15  C   UNL     1       7.066  -4.908  22.437  0.00  0.00    +0.158 A 
ATOM     16  C   UNL     1       6.105  -3.966  22.084  0.00  0.00    +0.159 A 
ATOM     17  C   UNL     1       5.659  -3.014  23.010  0.00  0.00    +0.060 A 
BRANCH  16  18
ATOM     18  O   UNL     1       5.646  -4.009  20.796  0.00  0.00    -0.503 OA
ATOM     19  H   UNL     1       5.591  -4.940  20.523  0.00  0.00    +0.292 HD
ENDBRANCH  16  18
BRANCH  15  20
ATOM     20  O   UNL     1       7.540  -5.797  21.516  0.00  0.00    -0.503 OA
ATOM     21  H   UNL     1       7.134  -5.526  20.669  0.00  0.00    +0.292 HD
ENDBRANCH  15  20
ENDBRANCH  11  12
BRANCH  10  22
ATOM     22  O   UNL     1       5.032   1.725  28.759  0.00  0.00    -0.506 OA
ATOM     23  H   UNL     1       4.377   2.433  28.871  0.00  0.00    +0.292 HD
ENDBRANCH  10  22
BRANCH   7  24
ATOM     24  O   UNL     1       6.137   3.900  24.594  0.00  0.00    -0.461 OA
BRANCH  24  25
ATOM     25  C   UNL     1       7.403   4.577  24.587  0.00  0.00    +0.339 C 
ATOM     26  O   UNL     1       7.327   6.001  24.759  0.00  0.00    -0.334 OA
ATOM     27  C   UNL     1       6.666   6.735  23.720  0.00  0.00    +0.150 C 
ATOM     28  C   UNL     1       5.202   6.953  24.091  0.00  0.00    +0.041 C 
ATOM     29  C   UNL     1       7.007   6.313  22.268  0.00  0.00    +0.174 C 
ATOM     30  C   UNL     1       7.348   4.827  22.061  0.00  0.00    +0.180 C 
ATOM     31  C   UNL     1       8.139   4.273  23.255  0.00  0.00    +0.214 C 
BRANCH  31  32
ATOM     32  O   UNL     1       9.473   4.808  23.247  0.00  0.00    -0.383 OA
ATOM     33  H   UNL     1       9.668   5.155  22.357  0.00  0.00    +0.210 HD
ENDBRANCH  31  32
BRANCH  30  34
ATOM     34  O   UNL     1       6.163   4.066  21.814  0.00  0.00    -0.386 OA
ATOM     35  H   UNL     1       5.576   4.623  21.269  0.00  0.00    +0.210 HD
ENDBRANCH  30  34
BRANCH  29  36
ATOM     36  O   UNL     1       6.050   6.786  21.320  0.00  0.00    -0.387 OA
ATOM     37  H   UNL     1       5.672   5.997  20.885  0.00  0.00    +0.210 HD
ENDBRANCH  29  36
ENDBRANCH  24  25
ENDBRANCH   7  24
BRANCH   1  38
ATOM     38  O   UNL     1       5.696  -3.391  27.336  0.00  0.00    -0.453 OA
BRANCH  38  40
ATOM     39  C   UNL     1       4.590  -5.498  27.818  0.00  0.00    +0.221 C 
ATOM     40  C   UNL     1       4.438  -3.949  27.804  0.00  0.00    +0.340 C 
ATOM     41  O   UNL     1       4.031  -3.429  29.071  0.00  0.00    -0.331 OA
ATOM     42  C   UNL     1       2.839  -3.983  29.653  0.00  0.00    +0.179 C 
ATOM     43  C   UNL     1       2.904  -5.514  29.726  0.00  0.00    +0.177 C 
ATOM     44  C   UNL     1       3.320  -6.128  28.396  0.00  0.00    +0.180 C 
BRANCH  44  45
ATOM     45  O   UNL     1       3.524  -7.541  28.598  0.00  0.00    -0.386 OA
ATOM     46  H   UNL     1       4.042  -7.841  27.822  0.00  0.00    +0.210 HD
ENDBRANCH  44  45
BRANCH  43  47
ATOM     47  O   UNL     1       1.652  -6.079  30.130  0.00  0.00    -0.386 OA
ATOM     48  H   UNL     1       0.978  -5.608  29.596  0.00  0.00    +0.210 HD
ENDBRANCH  43  47
BRANCH  42  49
ATOM     49  C   UNL     1       1.554  -3.435  29.007  0.00  0.00    +0.190 C 
BRANCH  49  50
ATOM     50  O   UNL     1       0.532  -3.252  29.989  0.00  0.00    -0.392 OA
ATOM     51  H   UNL     1      -0.231  -3.796  29.725  0.00  0.00    +0.210 HD
ENDBRANCH  49  50
ENDBRANCH  42  49
BRANCH  39  52
ATOM     52  O   UNL     1       4.741  -6.161  26.545  0.00  0.00    -0.337 OA
BRANCH  52  56
ATOM     53  C   UNL     1       0.616  -5.996  25.607  0.00  0.00    +0.041 C 
ATOM     54  C   UNL     1       1.544  -7.121  25.158  0.00  0.00    +0.149 C 
ATOM     55  O   UNL     1       2.760  -7.128  25.917  0.00  0.00    -0.343 OA
ATOM     56  C   UNL     1       3.686  -6.080  25.591  0.00  0.00    +0.282 C 
ATOM     57  C   UNL     1       4.130  -6.222  24.115  0.00  0.00    +0.201 C 
ATOM     58  C   UNL     1       2.897  -6.158  23.196  0.00  0.00    +0.179 C 
ATOM     59  C   UNL     1       1.820  -7.157  23.643  0.00  0.00    +0.174 C 
BRANCH  59  60
ATOM     60  O   UNL     1       2.278  -8.480  23.302  0.00  0.00    -0.387 OA
ATOM     61  H   UNL     1       3.005  -8.695  23.924  0.00  0.00    +0.210 HD
ENDBRANCH  59  60
BRANCH  58  62
ATOM     62  O   UNL     1       2.396  -4.831  23.055  0.00  0.00    -0.386 OA
ATOM     63  H   UNL     1       2.461  -4.325  23.884  0.00  0.00    +0.210 HD
ENDBRANCH  58  62
BRANCH  57  64
ATOM     64  O   UNL     1       4.847  -7.457  23.911  0.00  0.00    -0.384 OA
ATOM     65  H   UNL     1       5.613  -7.463  24.512  0.00  0.00    +0.210 HD
ENDBRANCH  57  64
ENDBRANCH  52  56
ENDBRANCH  39  52
ENDBRANCH  38  40
ENDBRANCH   1  38
TORSDOF 20
ENDMDL
MODEL 9
REMARK VINA RESULT:      -6.6      1.567      1.857
REMARK  Name = 
REMARK  22 active torsions:
REMARK  status: ('A' for Active; 'I' for Inactive)
REMARK    1  A    between atoms: C_1  and  C_2
REMARK    2  A    between atoms: C_4  and  O_68
REMARK    3  A    between atoms: C_6  and  O_67
REMARK    4  A    between atoms: C_8  and  O_66
REMARK    5  A    between atoms: C_10  and  O_13
REMARK    6  A    between atoms: O_13  and  C_14
REMARK    7  A    between atoms: C_16  and  O_65
REMARK    8  A    between atoms: C_18  and  O_64
REMARK    9  A    between atoms: C_20  and  C_62
REMARK   10  A    between atoms: C_23  and  O_25
REMARK   11  A    between atoms: O_25  and  C_26
REMARK   12  A    between atoms: C_27  and  C_54
REMARK   13  A    between atoms: C_31  and  O_38
REMARK   14  A    between atoms: C_33  and  O_37
REMARK   15  A    between atoms: O_38  and  C_39
REMARK   16  A    between atoms: C_41  and  O_53
REMARK   17  A    between atoms: C_43  and  O_52
REMARK   18  A    between atoms: C_45  and  O_51
REMARK   19  A    between atoms: C_47  and  C_50
REMARK   20  A    between atoms: C_56  and  O_61
REMARK   21  A    between atoms: C_57  and  O_60
REMARK   22  A    between atoms: C_62  and  O_63
REMARK                            x       y       z     vdW  Elec       q    Type
REMARK                         _______ _______ _______ _____ _____    ______ ____
ROOT
ATOM      1  C   UNL     1       7.005  -0.527  25.609  0.00  0.00    +0.214 A 
ATOM      2  C   UNL     1       7.328  -1.559  24.574  0.00  0.00    +0.238 A 
ATOM      3  O   UNL     1       8.356  -1.460  23.912  0.00  0.00    -0.283 OA
ATOM      4  C   UNL     1       6.350  -2.681  24.405  0.00  0.00    +0.109 A 
ATOM      5  C   UNL     1       5.139  -2.570  25.073  0.00  0.00    +0.147 A 
ATOM      6  C   UNL     1       4.177  -3.588  25.006  0.00  0.00    +0.093 A 
ATOM      7  C   UNL     1       4.399  -4.747  24.258  0.00  0.00    +0.131 A 
ATOM      8  C   UNL     1       5.585  -4.850  23.532  0.00  0.00    +0.092 A 
ATOM      9  O   UNL     1       4.787  -1.472  25.802  0.00  0.00    -0.451 OA
ATOM     10  C   UNL     1       6.544  -3.817  23.597  0.00  0.00    +0.135 A 
ATOM     11  C   UNL     1       5.740  -0.511  26.101  0.00  0.00    +0.181 A 
ENDROOT
BRANCH  11  12
ATOM     12  C   UNL     1       5.151   0.446  27.068  0.00  0.00    +0.025 A 
ATOM     13  C   UNL     1       3.751   0.583  27.059  0.00  0.00    +0.015 A 
ATOM     14  C   UNL     1       3.107   1.562  27.816  0.00  0.00    +0.050 A 
ATOM     15  C   UNL     1       3.863   2.422  28.587  0.00  0.00    +0.158 A 
ATOM     16  C   UNL     1       5.249   2.298  28.629  0.00  0.00    +0.159 A 
ATOM     17  C   UNL     1       5.908   1.331  27.859  0.00  0.00    +0.060 A 
BRANCH  16  18
ATOM     18  O   UNL     1       5.919   3.177  29.436  0.00  0.00    -0.503 OA
ATOM     19  H   UNL     1       5.710   2.964  30.360  0.00  0.00    +0.292 HD
ENDBRANCH  16  18
BRANCH  15  20
ATOM     20  O   UNL     1       3.231   3.403  29.294  0.00  0.00    -0.503 OA
ATOM     21  H   UNL     1       3.932   4.045  29.520  0.00  0.00    +0.292 HD
ENDBRANCH  15  20
ENDBRANCH  11  12
BRANCH  10  22
ATOM     22  O   UNL     1       7.671  -3.962  22.839  0.00  0.00    -0.506 OA
ATOM     23  H   UNL     1       7.727  -3.243  22.189  0.00  0.00    +0.292 HD
ENDBRANCH  10  22
BRANCH   7  24
ATOM     24  O   UNL     1       3.362  -5.638  24.229  0.00  0.00    -0.461 OA
BRANCH  24  25
ATOM     25  C   UNL     1       2.102  -5.240  23.667  0.00  0.00    +0.339 C 
ATOM     26  O   UNL     1       1.043  -5.068  24.621  0.00  0.00    -0.334 OA
ATOM     27  C   UNL     1       0.621  -6.243  25.324  0.00  0.00    +0.150 C 
ATOM     28  C   UNL     1       1.351  -6.336  26.661  0.00  0.00    +0.041 C 
ATOM     29  C   UNL     1       0.472  -7.529  24.472  0.00  0.00    +0.174 C 
ATOM     30  C   UNL     1       1.424  -7.653  23.269  0.00  0.00    +0.180 C 
ATOM     31  C   UNL     1       1.660  -6.286  22.610  0.00  0.00    +0.214 C 
BRANCH  31  32
ATOM     32  O   UNL     1       0.475  -5.871  21.910  0.00  0.00    -0.383 OA
ATOM     33  H   UNL     1       0.591  -4.949  21.614  0.00  0.00    +0.210 HD
ENDBRANCH  31  32
BRANCH  30  34
ATOM     34  O   UNL     1       2.653  -8.270  23.661  0.00  0.00    -0.386 OA
ATOM     35  H   UNL     1       2.429  -9.147  24.024  0.00  0.00    +0.210 HD
ENDBRANCH  30  34
BRANCH  29  36
ATOM     36  O   UNL     1       0.444  -8.714  25.266  0.00  0.00    -0.387 OA
ATOM     37  H   UNL     1       0.201  -8.440  26.172  0.00  0.00    +0.210 HD
ENDBRANCH  29  36
ENDBRANCH  24  25
ENDBRANCH   7  24
BRANCH   1  38
ATOM     38  O   UNL     1       7.973   0.437  25.871  0.00  0.00    -0.453 OA
BRANCH  38  40
ATOM     39  C   UNL     1       8.541   2.709  25.228  0.00  0.00    +0.221 C 
ATOM     40  C   UNL     1       8.543   1.217  24.785  0.00  0.00    +0.340 C 
ATOM     41  O   UNL     1       9.840   0.767  24.391  0.00  0.00    -0.331 OA
ATOM     42  C   UNL     1      10.519   1.528  23.378  0.00  0.00    +0.179 C 
ATOM     43  C   UNL     1      10.582   3.017  23.737  0.00  0.00    +0.177 C 
ATOM     44  C   UNL     1       9.221   3.560  24.152  0.00  0.00    +0.180 C 
BRANCH  44  45
ATOM     45  O   UNL     1       9.402   4.906  24.637  0.00  0.00    -0.386 OA
ATOM     46  H   UNL     1      10.371   5.055  24.630  0.00  0.00    +0.210 HD
ENDBRANCH  44  45
BRANCH  43  47
ATOM     47  O   UNL     1      11.088   3.803  22.653  0.00  0.00    -0.386 OA
ATOM     48  H   UNL     1      10.313   4.306  22.323  0.00  0.00    +0.210 HD
ENDBRANCH  43  47
BRANCH  42  49
ATOM     49  C   UNL     1       9.982   1.242  21.964  0.00  0.00    +0.190 C 
BRANCH  49  50
ATOM     50  O   UNL     1       9.886  -0.166  21.734  0.00  0.00    -0.392 OA
ATOM     51  H   UNL     1      10.772  -0.547  21.864  0.00  0.00    +0.210 HD
ENDBRANCH  49  50
ENDBRANCH  42  49
BRANCH  39  52
ATOM     52  O   UNL     1       7.259   3.349  25.397  0.00  0.00    -0.337 OA
BRANCH  52  56
ATOM     53  C   UNL     1       7.083   5.966  22.075  0.00  0.00    +0.041 C 
ATOM     54  C   UNL     1       6.094   6.002  23.237  0.00  0.00    +0.149 C 
ATOM     55  O   UNL     1       6.600   5.290  24.374  0.00  0.00    -0.343 OA
ATOM     56  C   UNL     1       6.582   3.860  24.253  0.00  0.00    +0.282 C 
ATOM     57  C   UNL     1       5.122   3.372  24.088  0.00  0.00    +0.201 C 
ATOM     58  C   UNL     1       4.496   4.027  22.843  0.00  0.00    +0.179 C 
ATOM     59  C   UNL     1       4.665   5.552  22.875  0.00  0.00    +0.174 C 
BRANCH  59  60
ATOM     60  O   UNL     1       3.765   6.075  23.872  0.00  0.00    -0.387 OA
ATOM     61  H   UNL     1       3.649   5.369  24.543  0.00  0.00    +0.210 HD
ENDBRANCH  59  60
BRANCH  58  62
ATOM     62  O   UNL     1       4.967   3.444  21.631  0.00  0.00    -0.386 OA
ATOM     63  H   UNL     1       5.907   3.640  21.471  0.00  0.00    +0.210 HD
ENDBRANCH  58  62
BRANCH  57  64
ATOM     64  O   UNL     1       4.343   3.677  25.262  0.00  0.00    -0.384 OA
ATOM     65  H   UNL     1       3.923   4.545  25.128  0.00  0.00    +0.210 HD
ENDBRANCH  57  64
ENDBRANCH  52  56
ENDBRANCH  39  52
ENDBRANCH  38  40
ENDBRANCH   1  38
TORSDOF 20
ENDMDL
