MODEL 1
REMARK VINA RESULT:      -4.8      0.000      0.000
REMARK  Name = 
REMARK  31 active torsions:
REMARK  status: ('A' for Active; 'I' for Inactive)
REMARK    1  A    between atoms: C_1  and  C_2
REMARK    2  A    between atoms: C_3  and  O_86
REMARK    3  A    between atoms: C_5  and  O_85
REMARK    4  A    between atoms: C_6  and  O_84
REMARK    5  A    between atoms: C_8  and  O_11
REMARK    6  A    between atoms: O_11  and  C_12
REMARK    7  A    between atoms: C_12  and  C_13
REMARK    8  A    between atoms: C_14  and  O_83
REMARK    9  A    between atoms: C_16  and  O_71
REMARK   10  A    between atoms: C_18  and  O_57
REMARK   11  A    between atoms: C_19  and  O_22
REMARK   12  A    between atoms: O_22  and  C_23
REMARK   13  A    between atoms: C_24  and  C_49
REMARK   14  A    between atoms: C_28  and  O_35
REMARK   15  A    between atoms: C_30  and  O_34
REMARK   16  A    between atoms: O_35  and  C_36
REMARK   17  A    between atoms: C_38  and  O_48
REMARK   18  A    between atoms: C_40  and  O_47
REMARK   19  A    between atoms: C_41  and  O_46
REMARK   20  A    between atoms: C_43  and  C_45
REMARK   21  A    between atoms: C_51  and  O_56
REMARK   22  A    between atoms: C_52  and  O_55
REMARK   23  A    between atoms: O_57  and  C_58
REMARK   24  A    between atoms: C_60  and  O_70
REMARK   25  A    between atoms: C_62  and  O_69
REMARK   26  A    between atoms: C_63  and  O_68
REMARK   27  A    between atoms: C_65  and  C_67
REMARK   28  A    between atoms: O_71  and  C_72
REMARK   29  A    between atoms: C_72  and  C_74
REMARK   30  A    between atoms: C_75  and  C_76
REMARK   31  A    between atoms: C_79  and  O_82
REMARK                            x       y       z     vdW  Elec       q    Type
REMARK                         _______ _______ _______ _____ _____    ______ ____
ROOT
ATOM      1  C   UNL     1       6.567   4.939  28.222  0.00  0.00    +0.180 C 
ATOM      2  O   UNL     1       6.743   3.580  28.674  0.00  0.00    -0.331 OA
ATOM      3  C   UNL     1       6.473   2.501  27.760  0.00  0.00    +0.341 C 
ATOM      4  C   UNL     1       5.074   2.672  27.039  0.00  0.00    +0.233 C 
ATOM      5  C   UNL     1       5.137   4.029  26.325  0.00  0.00    +0.242 C 
ATOM      6  C   UNL     1       5.268   5.150  27.372  0.00  0.00    +0.189 C 
ENDROOT
BRANCH   6   7
ATOM      7  O   UNL     1       4.122   5.210  28.231  0.00  0.00    -0.385 OA
ATOM      8  H   UNL     1       3.317   5.085  27.687  0.00  0.00    +0.210 HD
ENDBRANCH   6   7
BRANCH   4   9
ATOM      9  O   UNL     1       3.948   2.556  27.964  0.00  0.00    -0.335 OA
BRANCH   9  10
ATOM     10  C   UNL     1       2.647   2.997  27.506  0.00  0.00    +0.282 C 
ATOM     11  O   UNL     1       1.792   3.299  28.622  0.00  0.00    -0.343 OA
ATOM     12  C   UNL     1       1.456   2.160  29.419  0.00  0.00    +0.149 C 
ATOM     13  C   UNL     1       0.454   2.611  30.485  0.00  0.00    +0.041 C 
ATOM     14  C   UNL     1       0.846   1.004  28.606  0.00  0.00    +0.174 C 
ATOM     15  C   UNL     1       1.664   0.719  27.340  0.00  0.00    +0.179 C 
ATOM     16  C   UNL     1       1.892   2.022  26.578  0.00  0.00    +0.201 C 
BRANCH  16  17
ATOM     17  O   UNL     1       2.539   1.728  25.333  0.00  0.00    -0.384 OA
ATOM     18  H   UNL     1       2.997   2.541  25.049  0.00  0.00    +0.210 HD
ENDBRANCH  16  17
BRANCH  15  19
ATOM     19  O   UNL     1       0.958  -0.208  26.502  0.00  0.00    -0.386 OA
ATOM     20  H   UNL     1       0.237   0.309  26.088  0.00  0.00    +0.210 HD
ENDBRANCH  15  19
BRANCH  14  21
ATOM     21  O   UNL     1       0.743  -0.140  29.461  0.00  0.00    -0.387 OA
ATOM     22  H   UNL     1       0.637  -0.927  28.889  0.00  0.00    +0.210 HD
ENDBRANCH  14  21
ENDBRANCH   9  10
ENDBRANCH   4   9
BRANCH   5  23
ATOM     23  O   UNL     1       3.990   4.192  25.442  0.00  0.00    -0.453 OA
BRANCH  23  24
ATOM     24  C   UNL     1       4.268   4.234  24.101  0.00  0.00    +0.332 C 
ATOM     25  O   UNL     1       3.753   4.983  23.289  0.00  0.00    -0.246 OA
BRANCH  24  26
ATOM     26  C   UNL     1       5.354   3.276  23.837  0.00  0.00    +0.092 C 
ATOM     27  C   UNL     1       5.681   3.002  22.569  0.00  0.00    +0.015 C 
BRANCH  27  28
ATOM     28  C   UNL     1       6.725   2.027  22.265  0.00  0.00    -0.025 A 
ATOM     29  C   UNL     1       7.920   2.429  21.658  0.00  0.00    +0.011 A 
ATOM     30  C   UNL     1       8.941   1.507  21.424  0.00  0.00    +0.046 A 
ATOM     31  C   UNL     1       8.762   0.168  21.792  0.00  0.00    +0.117 A 
ATOM     32  C   UNL     1       7.572  -0.254  22.365  0.00  0.00    +0.046 A 
ATOM     33  C   UNL     1       6.552   0.667  22.602  0.00  0.00    +0.011 A 
BRANCH  31  34
ATOM     34  O   UNL     1       9.800  -0.687  21.573  0.00  0.00    -0.507 OA
ATOM     35  H   UNL     1       9.441  -1.526  21.243  0.00  0.00    +0.292 HD
ENDBRANCH  31  34
ENDBRANCH  27  28
ENDBRANCH  24  26
ENDBRANCH  23  24
ENDBRANCH   5  23
BRANCH   3  36
ATOM     36  O   UNL     1       6.445   1.224  28.429  0.00  0.00    -0.453 OA
BRANCH  36  37
ATOM     37  C   UNL     1       5.856   0.059  27.951  0.00  0.00    +0.214 A 
ATOM     38  C   UNL     1       4.628  -0.591  28.488  0.00  0.00    +0.238 A 
ATOM     39  O   UNL     1       3.927  -0.014  29.306  0.00  0.00    -0.283 OA
ATOM     40  C   UNL     1       4.248  -1.935  27.934  0.00  0.00    +0.109 A 
ATOM     41  C   UNL     1       4.872  -2.363  26.776  0.00  0.00    +0.147 A 
ATOM     42  C   UNL     1       4.518  -3.555  26.128  0.00  0.00    +0.093 A 
ATOM     43  C   UNL     1       3.566  -4.408  26.682  0.00  0.00    +0.131 A 
ATOM     44  C   UNL     1       2.943  -4.009  27.868  0.00  0.00    +0.092 A 
ATOM     45  O   UNL     1       5.897  -1.661  26.213  0.00  0.00    -0.451 OA
ATOM     46  C   UNL     1       3.299  -2.796  28.492  0.00  0.00    +0.135 A 
ATOM     47  C   UNL     1       6.383  -0.554  26.871  0.00  0.00    +0.181 A 
BRANCH  47  48
ATOM     48  C   UNL     1       7.526  -0.005  26.166  0.00  0.00    +0.025 A 
ATOM     49  C   UNL     1       8.590  -0.865  25.875  0.00  0.00    +0.015 A 
ATOM     50  C   UNL     1       9.765  -0.354  25.350  0.00  0.00    +0.050 A 
ATOM     51  C   UNL     1       9.829   0.999  25.047  0.00  0.00    +0.158 A 
ATOM     52  C   UNL     1       8.751   1.848  25.290  0.00  0.00    +0.159 A 
ATOM     53  C   UNL     1       7.602   1.364  25.884  0.00  0.00    +0.060 A 
BRANCH  52  54
ATOM     54  O   UNL     1       8.752   3.157  24.903  0.00  0.00    -0.503 OA
ATOM     55  H   UNL     1       8.056   3.246  24.227  0.00  0.00    +0.292 HD
ENDBRANCH  52  54
BRANCH  51  56
ATOM     56  O   UNL     1      10.930   1.478  24.397  0.00  0.00    -0.503 OA
ATOM     57  H   UNL     1      11.676   1.019  24.838  0.00  0.00    +0.292 HD
ENDBRANCH  51  56
ENDBRANCH  47  48
BRANCH  46  58
ATOM     58  O   UNL     1       2.830  -2.552  29.745  0.00  0.00    -0.506 OA
ATOM     59  H   UNL     1       2.827  -1.599  29.955  0.00  0.00    +0.292 HD
ENDBRANCH  46  58
BRANCH  43  60
ATOM     60  O   UNL     1       3.217  -5.651  26.192  0.00  0.00    -0.461 OA
BRANCH  60  61
ATOM     61  C   UNL     1       1.893  -5.787  25.637  0.00  0.00    +0.339 C 
ATOM     62  O   UNL     1       1.082  -6.644  26.445  0.00  0.00    -0.334 OA
ATOM     63  C   UNL     1       1.583  -7.989  26.475  0.00  0.00    +0.150 C 
ATOM     64  C   UNL     1       0.766  -8.758  27.506  0.00  0.00    +0.041 C 
ATOM     65  C   UNL     1       1.492  -8.625  25.081  0.00  0.00    +0.174 C 
ATOM     66  C   UNL     1       2.264  -7.775  24.059  0.00  0.00    +0.180 C 
ATOM     67  C   UNL     1       1.874  -6.294  24.167  0.00  0.00    +0.214 C 
BRANCH  67  68
ATOM     68  O   UNL     1       2.695  -5.498  23.307  0.00  0.00    -0.383 OA
ATOM     69  H   UNL     1       2.683  -4.583  23.636  0.00  0.00    +0.210 HD
ENDBRANCH  67  68
BRANCH  66  70
ATOM     70  O   UNL     1       1.996  -8.271  22.730  0.00  0.00    -0.386 OA
ATOM     71  H   UNL     1       2.265  -9.203  22.684  0.00  0.00    +0.210 HD
ENDBRANCH  66  70
BRANCH  65  72
ATOM     72  O   UNL     1       1.967  -9.974  25.104  0.00  0.00    -0.387 OA
ATOM     73  H   UNL     1       1.691 -10.383  25.944  0.00  0.00    +0.210 HD
ENDBRANCH  65  72
ENDBRANCH  60  61
ENDBRANCH  43  60
ENDBRANCH  36  37
ENDBRANCH   3  36
BRANCH   1  74
ATOM     74  C   UNL     1       7.773   5.561  27.458  0.00  0.00    +0.197 C 
BRANCH  74  75
ATOM     75  O   UNL     1       7.463   6.580  26.522  0.00  0.00    -0.346 OA
BRANCH  75  79
ATOM     76  C   UNL     1       7.503   6.820  22.244  0.00  0.00    +0.041 C 
ATOM     77  C   UNL     1       8.170   5.731  23.076  0.00  0.00    +0.149 C 
ATOM     78  O   UNL     1       7.684   5.748  24.421  0.00  0.00    -0.343 OA
ATOM     79  C   UNL     1       8.203   6.758  25.315  0.00  0.00    +0.282 C 
ATOM     80  C   UNL     1       9.746   6.627  25.382  0.00  0.00    +0.201 C 
ATOM     81  C   UNL     1      10.296   6.798  23.947  0.00  0.00    +0.179 C 
ATOM     82  C   UNL     1       9.694   5.761  22.997  0.00  0.00    +0.174 C 
BRANCH  80  83
ATOM     83  O   UNL     1      10.190   5.356  25.900  0.00  0.00    -0.384 OA
ATOM     84  H   UNL     1      10.481   4.854  25.127  0.00  0.00    +0.210 HD
ENDBRANCH  80  83
BRANCH  81  85
ATOM     85  O   UNL     1      11.725   6.630  23.911  0.00  0.00    -0.386 OA
ATOM     86  H   UNL     1      12.045   7.317  23.287  0.00  0.00    +0.210 HD
ENDBRANCH  81  85
BRANCH  82  87
ATOM     87  O   UNL     1      10.254   4.481  23.329  0.00  0.00    -0.387 OA
ATOM     88  H   UNL     1       9.935   4.281  24.244  0.00  0.00    +0.210 HD
ENDBRANCH  82  87
ENDBRANCH  75  79
ENDBRANCH  74  75
ENDBRANCH   1  74
TORSDOF 28
ENDMDL
MODEL 2
REMARK VINA RESULT:      -3.7      1.721      2.617
REMARK  Name = 
REMARK  31 active torsions:
REMARK  status: ('A' for Active; 'I' for Inactive)
REMARK    1  A    between atoms: C_1  and  C_2
REMARK    2  A    between atoms: C_3  and  O_86
REMARK    3  A    between atoms: C_5  and  O_85
REMARK    4  A    between atoms: C_6  and  O_84
REMARK    5  A    between atoms: C_8  and  O_11
REMARK    6  A    between atoms: O_11  and  C_12
REMARK    7  A    between atoms: C_12  and  C_13
REMARK    8  A    between atoms: C_14  and  O_83
REMARK    9  A    between atoms: C_16  and  O_71
REMARK   10  A    between atoms: C_18  and  O_57
REMARK   11  A    between atoms: C_19  and  O_22
REMARK   12  A    between atoms: O_22  and  C_23
REMARK   13  A    between atoms: C_24  and  C_49
REMARK   14  A    between atoms: C_28  and  O_35
REMARK   15  A    between atoms: C_30  and  O_34
REMARK   16  A    between atoms: O_35  and  C_36
REMARK   17  A    between atoms: C_38  and  O_48
REMARK   18  A    between atoms: C_40  and  O_47
REMARK   19  A    between atoms: C_41  and  O_46
REMARK   20  A    between atoms: C_43  and  C_45
REMARK   21  A    between atoms: C_51  and  O_56
REMARK   22  A    between atoms: C_52  and  O_55
REMARK   23  A    between atoms: O_57  and  C_58
REMARK   24  A    between atoms: C_60  and  O_70
REMARK   25  A    between atoms: C_62  and  O_69
REMARK   26  A    between atoms: C_63  and  O_68
REMARK   27  A    between atoms: C_65  and  C_67
REMARK   28  A    between atoms: O_71  and  C_72
REMARK   29  A    between atoms: C_72  and  C_74
REMARK   30  A    between atoms: C_75  and  C_76
REMARK   31  A    between atoms: C_79  and  O_82
REMARK                            x       y       z     vdW  Elec       q    Type
REMARK                         _______ _______ _______ _____ _____    ______ ____
ROOT
ATOM      1  C   UNL     1       7.851   5.167  26.339  0.00  0.00    +0.180 C 
ATOM      2  O   UNL     1       7.362   4.108  27.188  0.00  0.00    -0.331 OA
ATOM      3  C   UNL     1       6.631   3.019  26.594  0.00  0.00    +0.341 C 
ATOM      4  C   UNL     1       5.487   3.532  25.627  0.00  0.00    +0.233 C 
ATOM      5  C   UNL     1       6.191   4.397  24.572  0.00  0.00    +0.242 C 
ATOM      6  C   UNL     1       6.817   5.626  25.256  0.00  0.00    +0.189 C 
ENDROOT
BRANCH   6   7
ATOM      7  O   UNL     1       5.820   6.466  25.852  0.00  0.00    -0.385 OA
ATOM      8  H   UNL     1       5.076   6.564  25.222  0.00  0.00    +0.210 HD
ENDBRANCH   6   7
BRANCH   4   9
ATOM      9  O   UNL     1       4.424   4.239  26.340  0.00  0.00    -0.335 OA
BRANCH   9  10
ATOM     10  C   UNL     1       3.328   4.775  25.562  0.00  0.00    +0.282 C 
ATOM     11  O   UNL     1       2.819   5.978  26.164  0.00  0.00    -0.343 OA
ATOM     12  C   UNL     1       2.206   5.772  27.440  0.00  0.00    +0.149 C 
ATOM     13  C   UNL     1       1.610   7.107  27.896  0.00  0.00    +0.041 C 
ATOM     14  C   UNL     1       1.099   4.704  27.420  0.00  0.00    +0.174 C 
ATOM     15  C   UNL     1       1.558   3.438  26.685  0.00  0.00    +0.179 C 
ATOM     16  C   UNL     1       2.137   3.821  25.326  0.00  0.00    +0.201 C 
BRANCH  16  17
ATOM     17  O   UNL     1       2.439   2.627  24.592  0.00  0.00    -0.384 OA
ATOM     18  H   UNL     1       3.083   2.870  23.901  0.00  0.00    +0.210 HD
ENDBRANCH  16  17
BRANCH  15  19
ATOM     19  O   UNL     1       0.443   2.552  26.497  0.00  0.00    -0.386 OA
ATOM     20  H   UNL     1       0.732   1.688  26.855  0.00  0.00    +0.210 HD
ENDBRANCH  15  19
BRANCH  14  21
ATOM     21  O   UNL     1       0.706   4.440  28.772  0.00  0.00    -0.387 OA
ATOM     22  H   UNL     1       0.239   5.234  29.104  0.00  0.00    +0.210 HD
ENDBRANCH  14  21
ENDBRANCH   9  10
ENDBRANCH   4   9
BRANCH   5  23
ATOM     23  O   UNL     1       5.268   4.739  23.498  0.00  0.00    -0.453 OA
BRANCH  23  24
ATOM     24  C   UNL     1       4.963   3.727  22.626  0.00  0.00    +0.332 C 
ATOM     25  O   UNL     1       3.908   3.591  22.031  0.00  0.00    -0.246 OA
BRANCH  24  26
ATOM     26  C   UNL     1       6.164   2.888  22.473  0.00  0.00    +0.092 C 
ATOM     27  C   UNL     1       6.013   1.582  22.227  0.00  0.00    +0.015 C 
BRANCH  27  28
ATOM     28  C   UNL     1       7.177   0.708  22.111  0.00  0.00    -0.025 A 
ATOM     29  C   UNL     1       8.335   1.149  21.459  0.00  0.00    +0.011 A 
ATOM     30  C   UNL     1       9.468   0.337  21.402  0.00  0.00    +0.046 A 
ATOM     31  C   UNL     1       9.442  -0.931  21.994  0.00  0.00    +0.117 A 
ATOM     32  C   UNL     1       8.293  -1.397  22.616  0.00  0.00    +0.046 A 
ATOM     33  C   UNL     1       7.160  -0.585  22.676  0.00  0.00    +0.011 A 
BRANCH  31  34
ATOM     34  O   UNL     1      10.583  -1.673  21.942  0.00  0.00    -0.507 OA
ATOM     35  H   UNL     1      11.328  -1.076  21.765  0.00  0.00    +0.292 HD
ENDBRANCH  31  34
ENDBRANCH  27  28
ENDBRANCH  24  26
ENDBRANCH  23  24
ENDBRANCH   5  23
BRANCH   3  36
ATOM     36  O   UNL     1       5.996   2.191  27.589  0.00  0.00    -0.453 OA
BRANCH  36  37
ATOM     37  C   UNL     1       5.301   1.011  27.353  0.00  0.00    +0.214 A 
ATOM     38  C   UNL     1       3.872   0.749  27.686  0.00  0.00    +0.238 A 
ATOM     39  O   UNL     1       3.140   1.661  28.039  0.00  0.00    -0.283 OA
ATOM     40  C   UNL     1       3.355  -0.649  27.499  0.00  0.00    +0.109 A 
ATOM     41  C   UNL     1       4.124  -1.537  26.769  0.00  0.00    +0.147 A 
ATOM     42  C   UNL     1       3.685  -2.832  26.457  0.00  0.00    +0.093 A 
ATOM     43  C   UNL     1       2.473  -3.307  26.949  0.00  0.00    +0.131 A 
ATOM     44  C   UNL     1       1.691  -2.436  27.714  0.00  0.00    +0.092 A 
ATOM     45  O   UNL     1       5.377  -1.213  26.337  0.00  0.00    -0.451 OA
ATOM     46  C   UNL     1       2.142  -1.131  27.999  0.00  0.00    +0.135 A 
ATOM     47  C   UNL     1       5.921  -0.008  26.724  0.00  0.00    +0.181 A 
BRANCH  47  48
ATOM     48  C   UNL     1       7.285   0.109  26.247  0.00  0.00    +0.025 A 
ATOM     49  C   UNL     1       8.210  -0.855  26.663  0.00  0.00    +0.015 A 
ATOM     50  C   UNL     1       9.553  -0.696  26.366  0.00  0.00    +0.050 A 
ATOM     51  C   UNL     1       9.941   0.385  25.585  0.00  0.00    +0.158 A 
ATOM     52  C   UNL     1       9.013   1.319  25.129  0.00  0.00    +0.159 A 
ATOM     53  C   UNL     1       7.683   1.212  25.482  0.00  0.00    +0.060 A 
BRANCH  52  54
ATOM     54  O   UNL     1       9.355   2.328  24.274  0.00  0.00    -0.503 OA
ATOM     55  H   UNL     1       8.589   2.929  24.236  0.00  0.00    +0.292 HD
ENDBRANCH  52  54
BRANCH  51  56
ATOM     56  O   UNL     1      11.239   0.466  25.171  0.00  0.00    -0.503 OA
ATOM     57  H   UNL     1      11.553   1.311  25.555  0.00  0.00    +0.292 HD
ENDBRANCH  51  56
ENDBRANCH  47  48
BRANCH  46  58
ATOM     58  O   UNL     1       1.458  -0.398  28.917  0.00  0.00    -0.506 OA
ATOM     59  H   UNL     1       1.708   0.546  28.892  0.00  0.00    +0.292 HD
ENDBRANCH  46  58
BRANCH  43  60
ATOM     60  O   UNL     1       1.990  -4.593  26.797  0.00  0.00    -0.461 OA
BRANCH  60  61
ATOM     61  C   UNL     1       2.786  -5.660  27.351  0.00  0.00    +0.339 C 
ATOM     62  O   UNL     1       3.975  -5.867  26.583  0.00  0.00    -0.334 OA
ATOM     63  C   UNL     1       3.683  -6.310  25.249  0.00  0.00    +0.150 C 
ATOM     64  C   UNL     1       4.993  -6.311  24.471  0.00  0.00    +0.041 C 
ATOM     65  C   UNL     1       3.033  -7.700  25.278  0.00  0.00    +0.174 C 
ATOM     66  C   UNL     1       1.757  -7.672  26.137  0.00  0.00    +0.180 C 
ATOM     67  C   UNL     1       2.024  -7.007  27.495  0.00  0.00    +0.214 C 
BRANCH  67  68
ATOM     68  O   UNL     1       0.803  -6.866  28.229  0.00  0.00    -0.383 OA
ATOM     69  H   UNL     1       0.278  -6.162  27.810  0.00  0.00    +0.210 HD
ENDBRANCH  67  68
BRANCH  66  70
ATOM     70  O   UNL     1       1.279  -9.020  26.321  0.00  0.00    -0.386 OA
ATOM     71  H   UNL     1       0.963  -9.360  25.467  0.00  0.00    +0.210 HD
ENDBRANCH  66  70
BRANCH  65  72
ATOM     72  O   UNL     1       2.759  -8.163  23.952  0.00  0.00    -0.387 OA
ATOM     73  H   UNL     1       1.797  -8.124  23.805  0.00  0.00    +0.210 HD
ENDBRANCH  65  72
ENDBRANCH  60  61
ENDBRANCH  43  60
ENDBRANCH  36  37
ENDBRANCH   3  36
BRANCH   1  74
ATOM     74  C   UNL     1       9.220   4.901  25.645  0.00  0.00    +0.197 C 
BRANCH  74  75
ATOM     75  O   UNL     1       9.733   5.956  24.848  0.00  0.00    -0.346 OA
BRANCH  75  79
ATOM     76  C   UNL     1      11.189   3.345  21.778  0.00  0.00    +0.041 C 
ATOM     77  C   UNL     1      11.984   3.817  22.990  0.00  0.00    +0.149 C 
ATOM     78  O   UNL     1      11.118   4.381  23.979  0.00  0.00    -0.343 OA
ATOM     79  C   UNL     1      10.634   5.725  23.766  0.00  0.00    +0.282 C 
ATOM     80  C   UNL     1      11.845   6.680  23.613  0.00  0.00    +0.201 C 
ATOM     81  C   UNL     1      12.690   6.180  22.417  0.00  0.00    +0.179 C 
ATOM     82  C   UNL     1      13.147   4.736  22.627  0.00  0.00    +0.174 C 
BRANCH  80  83
ATOM     83  O   UNL     1      12.686   6.730  24.784  0.00  0.00    -0.384 OA
ATOM     84  H   UNL     1      12.852   7.669  24.939  0.00  0.00    +0.210 HD
ENDBRANCH  80  83
BRANCH  81  85
ATOM     85  O   UNL     1      13.873   6.981  22.242  0.00  0.00    -0.386 OA
ATOM     86  H   UNL     1      14.587   6.338  22.041  0.00  0.00    +0.210 HD
ENDBRANCH  81  85
BRANCH  82  87
ATOM     87  O   UNL     1      14.148   4.735  23.658  0.00  0.00    -0.387 OA
ATOM     88  H   UNL     1      14.572   3.843  23.614  0.00  0.00    +0.210 HD
ENDBRANCH  82  87
ENDBRANCH  75  79
ENDBRANCH  74  75
ENDBRANCH   1  74
TORSDOF 28
ENDMDL
MODEL 3
REMARK VINA RESULT:      -3.3      2.253      6.407
REMARK  Name = 
REMARK  31 active torsions:
REMARK  status: ('A' for Active; 'I' for Inactive)
REMARK    1  A    between atoms: C_1  and  C_2
REMARK    2  A    between atoms: C_3  and  O_86
REMARK    3  A    between atoms: C_5  and  O_85
REMARK    4  A    between atoms: C_6  and  O_84
REMARK    5  A    between atoms: C_8  and  O_11
REMARK    6  A    between atoms: O_11  and  C_12
REMARK    7  A    between atoms: C_12  and  C_13
REMARK    8  A    between atoms: C_14  and  O_83
REMARK    9  A    between atoms: C_16  and  O_71
REMARK   10  A    between atoms: C_18  and  O_57
REMARK   11  A    between atoms: C_19  and  O_22
REMARK   12  A    between atoms: O_22  and  C_23
REMARK   13  A    between atoms: C_24  and  C_49
REMARK   14  A    between atoms: C_28  and  O_35
REMARK   15  A    between atoms: C_30  and  O_34
REMARK   16  A    between atoms: O_35  and  C_36
REMARK   17  A    between atoms: C_38  and  O_48
REMARK   18  A    between atoms: C_40  and  O_47
REMARK   19  A    between atoms: C_41  and  O_46
REMARK   20  A    between atoms: C_43  and  C_45
REMARK   21  A    between atoms: C_51  and  O_56
REMARK   22  A    between atoms: C_52  and  O_55
REMARK   23  A    between atoms: O_57  and  C_58
REMARK   24  A    between atoms: C_60  and  O_70
REMARK   25  A    between atoms: C_62  and  O_69
REMARK   26  A    between atoms: C_63  and  O_68
REMARK   27  A    between atoms: C_65  and  C_67
REMARK   28  A    between atoms: O_71  and  C_72
REMARK   29  A    between atoms: C_72  and  C_74
REMARK   30  A    between atoms: C_75  and  C_76
REMARK   31  A    between atoms: C_79  and  O_82
REMARK                            x       y       z     vdW  Elec       q    Type
REMARK                         _______ _______ _______ _____ _____    ______ ____
ROOT
ATOM      1  C   UNL     1       8.015   0.768  25.830  0.00  0.00    +0.180 C 
ATOM      2  O   UNL     1       6.664   0.423  26.200  0.00  0.00    -0.331 OA
ATOM      3  C   UNL     1       5.752  -0.018  25.176  0.00  0.00    +0.341 C 
ATOM      4  C   UNL     1       5.757   0.947  23.922  0.00  0.00    +0.233 C 
ATOM      5  C   UNL     1       7.209   0.977  23.426  0.00  0.00    +0.242 C 
ATOM      6  C   UNL     1       8.105   1.605  24.508  0.00  0.00    +0.189 C 
ENDROOT
BRANCH   6   7
ATOM      7  O   UNL     1       7.750   2.970  24.765  0.00  0.00    -0.385 OA
ATOM      8  H   UNL     1       8.498   3.543  24.497  0.00  0.00    +0.210 HD
ENDBRANCH   6   7
BRANCH   4   9
ATOM      9  O   UNL     1       5.224   2.273  24.232  0.00  0.00    -0.335 OA
BRANCH   9  10
ATOM     10  C   UNL     1       4.709   3.068  23.137  0.00  0.00    +0.282 C 
ATOM     11  O   UNL     1       5.576   4.185  22.870  0.00  0.00    -0.343 OA
ATOM     12  C   UNL     1       5.633   5.141  23.932  0.00  0.00    +0.149 C 
ATOM     13  C   UNL     1       6.489   6.319  23.459  0.00  0.00    +0.041 C 
ATOM     14  C   UNL     1       4.249   5.660  24.361  0.00  0.00    +0.174 C 
ATOM     15  C   UNL     1       3.254   4.508  24.549  0.00  0.00    +0.179 C 
ATOM     16  C   UNL     1       3.275   3.611  23.313  0.00  0.00    +0.201 C 
BRANCH  16  17
ATOM     17  O   UNL     1       2.250   2.617  23.439  0.00  0.00    -0.384 OA
ATOM     18  H   UNL     1       2.248   2.101  22.612  0.00  0.00    +0.210 HD
ENDBRANCH  16  17
BRANCH  15  19
ATOM     19  O   UNL     1       1.930   5.032  24.736  0.00  0.00    -0.386 OA
ATOM     20  H   UNL     1       2.032   6.006  24.737  0.00  0.00    +0.210 HD
ENDBRANCH  15  19
BRANCH  14  21
ATOM     21  O   UNL     1       4.412   6.442  25.550  0.00  0.00    -0.387 OA
ATOM     22  H   UNL     1       4.666   5.831  26.271  0.00  0.00    +0.210 HD
ENDBRANCH  14  21
ENDBRANCH   9  10
ENDBRANCH   4   9
BRANCH   5  23
ATOM     23  O   UNL     1       7.293   1.655  22.139  0.00  0.00    -0.453 OA
BRANCH  23  24
ATOM     24  C   UNL     1       8.540   1.720  21.576  0.00  0.00    +0.332 C 
ATOM     25  O   UNL     1       8.982   0.961  20.731  0.00  0.00    -0.246 OA
BRANCH  24  26
ATOM     26  C   UNL     1       9.213   2.915  22.111  0.00  0.00    +0.092 C 
ATOM     27  C   UNL     1      10.392   2.773  22.726  0.00  0.00    +0.015 C 
BRANCH  27  28
ATOM     28  C   UNL     1      11.071   3.927  23.307  0.00  0.00    -0.025 A 
ATOM     29  C   UNL     1      10.413   4.752  24.226  0.00  0.00    +0.011 A 
ATOM     30  C   UNL     1      11.082   5.819  24.828  0.00  0.00    +0.046 A 
ATOM     31  C   UNL     1      12.420   6.069  24.501  0.00  0.00    +0.117 A 
ATOM     32  C   UNL     1      13.079   5.282  23.568  0.00  0.00    +0.046 A 
ATOM     33  C   UNL     1      12.412   4.214  22.968  0.00  0.00    +0.011 A 
BRANCH  31  34
ATOM     34  O   UNL     1      13.040   7.101  25.139  0.00  0.00    -0.507 OA
ATOM     35  H   UNL     1      13.982   7.081  24.908  0.00  0.00    +0.292 HD
ENDBRANCH  31  34
ENDBRANCH  27  28
ENDBRANCH  24  26
ENDBRANCH  23  24
ENDBRANCH   5  23
BRANCH   3  36
ATOM     36  O   UNL     1       4.393  -0.075  25.655  0.00  0.00    -0.453 OA
BRANCH  36  37
ATOM     37  C   UNL     1       3.782  -1.164  26.265  0.00  0.00    +0.214 A 
ATOM     38  C   UNL     1       3.401  -2.444  25.606  0.00  0.00    +0.238 A 
ATOM     39  O   UNL     1       3.786  -2.698  24.474  0.00  0.00    -0.283 OA
ATOM     40  C   UNL     1       2.601  -3.432  26.405  0.00  0.00    +0.109 A 
ATOM     41  C   UNL     1       2.507  -3.242  27.772  0.00  0.00    +0.147 A 
ATOM     42  C   UNL     1       1.865  -4.159  28.617  0.00  0.00    +0.093 A 
ATOM     43  C   UNL     1       1.217  -5.274  28.091  0.00  0.00    +0.131 A 
ATOM     44  C   UNL     1       1.274  -5.471  26.708  0.00  0.00    +0.092 A 
ATOM     45  O   UNL     1       3.007  -2.126  28.376  0.00  0.00    -0.451 OA
ATOM     46  C   UNL     1       1.942  -4.547  25.879  0.00  0.00    +0.135 A 
ATOM     47  C   UNL     1       3.529  -1.124  27.589  0.00  0.00    +0.181 A 
BRANCH  47  48
ATOM     48  C   UNL     1       3.918   0.011  28.405  0.00  0.00    +0.025 A 
ATOM     49  C   UNL     1       2.989   1.042  28.579  0.00  0.00    +0.015 A 
ATOM     50  C   UNL     1       3.369   2.213  29.212  0.00  0.00    +0.050 A 
ATOM     51  C   UNL     1       4.652   2.304  29.735  0.00  0.00    +0.158 A 
ATOM     52  C   UNL     1       5.563   1.257  29.606  0.00  0.00    +0.159 A 
ATOM     53  C   UNL     1       5.219   0.115  28.911  0.00  0.00    +0.060 A 
BRANCH  52  54
ATOM     54  O   UNL     1       6.791   1.282  30.203  0.00  0.00    -0.503 OA
ATOM     55  H   UNL     1       6.948   2.205  30.472  0.00  0.00    +0.292 HD
ENDBRANCH  52  54
BRANCH  51  56
ATOM     56  O   UNL     1       4.983   3.397  30.484  0.00  0.00    -0.503 OA
ATOM     57  H   UNL     1       4.627   3.185  31.372  0.00  0.00    +0.292 HD
ENDBRANCH  51  56
ENDBRANCH  47  48
BRANCH  46  58
ATOM     58  O   UNL     1       1.790  -4.660  24.532  0.00  0.00    -0.506 OA
ATOM     59  H   UNL     1       1.050  -4.116  24.201  0.00  0.00    +0.292 HD
ENDBRANCH  46  58
BRANCH  43  60
ATOM     60  O   UNL     1       0.466  -6.183  28.811  0.00  0.00    -0.461 OA
BRANCH  60  61
ATOM     61  C   UNL     1       1.058  -7.475  29.053  0.00  0.00    +0.339 C 
ATOM     62  O   UNL     1       2.169  -7.372  29.948  0.00  0.00    -0.334 OA
ATOM     63  C   UNL     1       3.242  -6.600  29.387  0.00  0.00    +0.150 C 
ATOM     64  C   UNL     1       4.278  -6.393  30.485  0.00  0.00    +0.041 C 
ATOM     65  C   UNL     1       3.835  -7.317  28.166  0.00  0.00    +0.174 C 
ATOM     66  C   UNL     1       2.739  -7.575  27.118  0.00  0.00    +0.180 C 
ATOM     67  C   UNL     1       1.503  -8.218  27.762  0.00  0.00    +0.214 C 
BRANCH  67  68
ATOM     68  O   UNL     1       0.444  -8.329  26.806  0.00  0.00    -0.383 OA
ATOM     69  H   UNL     1      -0.367  -7.973  27.208  0.00  0.00    +0.210 HD
ENDBRANCH  67  68
BRANCH  66  70
ATOM     70  O   UNL     1       3.267  -8.426  26.080  0.00  0.00    -0.386 OA
ATOM     71  H   UNL     1       3.371  -7.902  25.268  0.00  0.00    +0.210 HD
ENDBRANCH  66  70
BRANCH  65  72
ATOM     72  O   UNL     1       4.921  -6.569  27.613  0.00  0.00    -0.387 OA
ATOM     73  H   UNL     1       5.747  -7.058  27.775  0.00  0.00    +0.210 HD
ENDBRANCH  65  72
ENDBRANCH  60  61
ENDBRANCH  43  60
ENDBRANCH  36  37
ENDBRANCH   3  36
BRANCH   1  74
ATOM     74  C   UNL     1       9.018  -0.420  25.740  0.00  0.00    +0.197 C 
BRANCH  74  75
ATOM     75  O   UNL     1       8.764  -1.376  24.724  0.00  0.00    -0.346 OA
BRANCH  75  79
ATOM     76  C   UNL     1       8.341  -5.393  23.292  0.00  0.00    +0.041 C 
ATOM     77  C   UNL     1       7.270  -4.600  24.032  0.00  0.00    +0.149 C 
ATOM     78  O   UNL     1       7.596  -3.208  24.060  0.00  0.00    -0.343 OA
ATOM     79  C   UNL     1       8.591  -2.764  25.010  0.00  0.00    +0.282 C 
ATOM     80  C   UNL     1       8.137  -3.162  26.437  0.00  0.00    +0.201 C 
ATOM     81  C   UNL     1       7.964  -4.698  26.466  0.00  0.00    +0.179 C 
ATOM     82  C   UNL     1       6.953  -5.161  25.416  0.00  0.00    +0.174 C 
BRANCH  80  83
ATOM     83  O   UNL     1       6.892  -2.548  26.833  0.00  0.00    -0.384 OA
ATOM     84  H   UNL     1       7.143  -1.737  27.294  0.00  0.00    +0.210 HD
ENDBRANCH  80  83
BRANCH  81  85
ATOM     85  O   UNL     1       7.484  -5.147  27.747  0.00  0.00    -0.386 OA
ATOM     86  H   UNL     1       7.123  -4.342  28.178  0.00  0.00    +0.210 HD
ENDBRANCH  81  85
BRANCH  82  87
ATOM     87  O   UNL     1       5.646  -4.754  25.851  0.00  0.00    -0.387 OA
ATOM     88  H   UNL     1       5.766  -4.427  26.777  0.00  0.00    +0.210 HD
ENDBRANCH  82  87
ENDBRANCH  75  79
ENDBRANCH  74  75
ENDBRANCH   1  74
TORSDOF 28
ENDMDL
MODEL 4
REMARK VINA RESULT:      -3.3      2.193      9.396
REMARK  Name = 
REMARK  31 active torsions:
REMARK  status: ('A' for Active; 'I' for Inactive)
REMARK    1  A    between atoms: C_1  and  C_2
REMARK    2  A    between atoms: C_3  and  O_86
REMARK    3  A    between atoms: C_5  and  O_85
REMARK    4  A    between atoms: C_6  and  O_84
REMARK    5  A    between atoms: C_8  and  O_11
REMARK    6  A    between atoms: O_11  and  C_12
REMARK    7  A    between atoms: C_12  and  C_13
REMARK    8  A    between atoms: C_14  and  O_83
REMARK    9  A    between atoms: C_16  and  O_71
REMARK   10  A    between atoms: C_18  and  O_57
REMARK   11  A    between atoms: C_19  and  O_22
REMARK   12  A    between atoms: O_22  and  C_23
REMARK   13  A    between atoms: C_24  and  C_49
REMARK   14  A    between atoms: C_28  and  O_35
REMARK   15  A    between atoms: C_30  and  O_34
REMARK   16  A    between atoms: O_35  and  C_36
REMARK   17  A    between atoms: C_38  and  O_48
REMARK   18  A    between atoms: C_40  and  O_47
REMARK   19  A    between atoms: C_41  and  O_46
REMARK   20  A    between atoms: C_43  and  C_45
REMARK   21  A    between atoms: C_51  and  O_56
REMARK   22  A    between atoms: C_52  and  O_55
REMARK   23  A    between atoms: O_57  and  C_58
REMARK   24  A    between atoms: C_60  and  O_70
REMARK   25  A    between atoms: C_62  and  O_69
REMARK   26  A    between atoms: C_63  and  O_68
REMARK   27  A    between atoms: C_65  and  C_67
REMARK   28  A    between atoms: O_71  and  C_72
REMARK   29  A    between atoms: C_72  and  C_74
REMARK   30  A    between atoms: C_75  and  C_76
REMARK   31  A    between atoms: C_79  and  O_82
REMARK                            x       y       z     vdW  Elec       q    Type
REMARK                         _______ _______ _______ _____ _____    ______ ____
ROOT
ATOM      1  C   UNL     1       7.360  -2.375  23.064  0.00  0.00    +0.180 C 
ATOM      2  O   UNL     1       6.264  -1.561  23.532  0.00  0.00    -0.331 OA
ATOM      3  C   UNL     1       5.836  -1.690  24.901  0.00  0.00    +0.341 C 
ATOM      4  C   UNL     1       5.626  -3.203  25.316  0.00  0.00    +0.233 C 
ATOM      5  C   UNL     1       6.973  -3.894  25.067  0.00  0.00    +0.242 C 
ATOM      6  C   UNL     1       7.293  -3.859  23.562  0.00  0.00    +0.189 C 
ENDROOT
BRANCH   6   7
ATOM      7  O   UNL     1       6.328  -4.591  22.796  0.00  0.00    -0.385 OA
ATOM      8  H   UNL     1       6.438  -4.359  21.851  0.00  0.00    +0.210 HD
ENDBRANCH   6   7
BRANCH   4   9
ATOM      9  O   UNL     1       4.513  -3.830  24.606  0.00  0.00    -0.335 OA
BRANCH   9  10
ATOM     10  C   UNL     1       3.477  -4.465  25.395  0.00  0.00    +0.282 C 
ATOM     11  O   UNL     1       3.611  -5.896  25.349  0.00  0.00    -0.343 OA
ATOM     12  C   UNL     1       3.385  -6.458  24.053  0.00  0.00    +0.149 C 
ATOM     13  C   UNL     1       3.440  -7.982  24.186  0.00  0.00    +0.041 C 
ATOM     14  C   UNL     1       2.033  -6.052  23.439  0.00  0.00    +0.174 C 
ATOM     15  C   UNL     1       1.794  -4.542  23.566  0.00  0.00    +0.179 C 
ATOM     16  C   UNL     1       2.025  -4.110  25.013  0.00  0.00    +0.201 C 
BRANCH  16  17
ATOM     17  O   UNL     1       1.669  -2.728  25.151  0.00  0.00    -0.384 OA
ATOM     18  H   UNL     1       1.598  -2.545  26.106  0.00  0.00    +0.210 HD
ENDBRANCH  16  17
BRANCH  15  19
ATOM     19  O   UNL     1       0.446  -4.228  23.183  0.00  0.00    -0.386 OA
ATOM     20  H   UNL     1       0.134  -5.000  22.668  0.00  0.00    +0.210 HD
ENDBRANCH  15  19
BRANCH  14  21
ATOM     21  O   UNL     1       2.008  -6.498  22.079  0.00  0.00    -0.387 OA
ATOM     22  H   UNL     1       1.077  -6.703  21.853  0.00  0.00    +0.210 HD
ENDBRANCH  14  21
ENDBRANCH   9  10
ENDBRANCH   4   9
BRANCH   5  23
ATOM     23  O   UNL     1       6.965  -5.240  25.626  0.00  0.00    -0.453 OA
BRANCH  23  24
ATOM     24  C   UNL     1       7.275  -5.337  26.956  0.00  0.00    +0.332 C 
ATOM     25  O   UNL     1       8.388  -5.218  27.440  0.00  0.00    -0.246 OA
BRANCH  24  26
ATOM     26  C   UNL     1       6.018  -5.526  27.699  0.00  0.00    +0.092 C 
ATOM     27  C   UNL     1       5.460  -6.742  27.727  0.00  0.00    +0.015 C 
BRANCH  27  28
ATOM     28  C   UNL     1       4.191  -6.961  28.417  0.00  0.00    -0.025 A 
ATOM     29  C   UNL     1       3.006  -7.126  27.692  0.00  0.00    +0.011 A 
ATOM     30  C   UNL     1       1.805  -7.397  28.348  0.00  0.00    +0.046 A 
ATOM     31  C   UNL     1       1.787  -7.495  29.745  0.00  0.00    +0.117 A 
ATOM     32  C   UNL     1       2.946  -7.301  30.482  0.00  0.00    +0.046 A 
ATOM     33  C   UNL     1       4.147  -7.033  29.826  0.00  0.00    +0.011 A 
BRANCH  31  34
ATOM     34  O   UNL     1       0.598  -7.793  30.338  0.00  0.00    -0.507 OA
ATOM     35  H   UNL     1      -0.066  -7.156  30.030  0.00  0.00    +0.292 HD
ENDBRANCH  31  34
ENDBRANCH  27  28
ENDBRANCH  24  26
ENDBRANCH  23  24
ENDBRANCH   5  23
BRANCH   3  36
ATOM     36  O   UNL     1       4.586  -1.013  25.140  0.00  0.00    -0.453 OA
BRANCH  36  37
ATOM     37  C   UNL     1       4.431   0.277  25.634  0.00  0.00    +0.214 A 
ATOM     38  C   UNL     1       4.729   1.542  24.905  0.00  0.00    +0.238 A 
ATOM     39  O   UNL     1       4.967   1.526  23.707  0.00  0.00    -0.283 OA
ATOM     40  C   UNL     1       4.650   2.828  25.676  0.00  0.00    +0.109 A 
ATOM     41  C   UNL     1       4.036   2.810  26.915  0.00  0.00    +0.147 A 
ATOM     42  C   UNL     1       3.827   3.975  27.668  0.00  0.00    +0.093 A 
ATOM     43  C   UNL     1       4.311   5.203  27.224  0.00  0.00    +0.131 A 
ATOM     44  C   UNL     1       4.960   5.240  25.987  0.00  0.00    +0.092 A 
ATOM     45  O   UNL     1       3.627   1.646  27.495  0.00  0.00    -0.451 OA
ATOM     46  C   UNL     1       5.143   4.060  25.237  0.00  0.00    +0.135 A 
ATOM     47  C   UNL     1       3.924   0.454  26.871  0.00  0.00    +0.181 A 
BRANCH  47  48
ATOM     48  C   UNL     1       3.493  -0.666  27.685  0.00  0.00    +0.025 A 
ATOM     49  C   UNL     1       4.476  -1.514  28.205  0.00  0.00    +0.015 A 
ATOM     50  C   UNL     1       4.108  -2.683  28.851  0.00  0.00    +0.050 A 
ATOM     51  C   UNL     1       2.757  -2.945  29.039  0.00  0.00    +0.158 A 
ATOM     52  C   UNL     1       1.778  -2.075  28.565  0.00  0.00    +0.159 A 
ATOM     53  C   UNL     1       2.132  -0.946  27.854  0.00  0.00    +0.060 A 
BRANCH  52  54
ATOM     54  O   UNL     1       0.451  -2.258  28.831  0.00  0.00    -0.503 OA
ATOM     55  H   UNL     1       0.162  -3.013  28.288  0.00  0.00    +0.292 HD
ENDBRANCH  52  54
BRANCH  51  56
ATOM     56  O   UNL     1       2.395  -4.020  29.799  0.00  0.00    -0.503 OA
ATOM     57  H   UNL     1       3.245  -4.345  30.161  0.00  0.00    +0.292 HD
ENDBRANCH  51  56
ENDBRANCH  47  48
BRANCH  46  58
ATOM     58  O   UNL     1       5.962   4.105  24.152  0.00  0.00    -0.506 OA
ATOM     59  H   UNL     1       6.893   4.256  24.403  0.00  0.00    +0.292 HD
ENDBRANCH  46  58
BRANCH  43  60
ATOM     60  O   UNL     1       4.258   6.391  27.927  0.00  0.00    -0.461 OA
BRANCH  60  61
ATOM     61  C   UNL     1       5.154   6.528  29.048  0.00  0.00    +0.339 C 
ATOM     62  O   UNL     1       6.497   6.752  28.610  0.00  0.00    -0.334 OA
ATOM     63  C   UNL     1       7.021   5.629  27.885  0.00  0.00    +0.150 C 
ATOM     64  C   UNL     1       8.367   6.047  27.306  0.00  0.00    +0.041 C 
ATOM     65  C   UNL     1       7.148   4.409  28.809  0.00  0.00    +0.174 C 
ATOM     66  C   UNL     1       5.783   4.071  29.431  0.00  0.00    +0.180 C 
ATOM     67  C   UNL     1       5.126   5.323  30.030  0.00  0.00    +0.214 C 
BRANCH  67  68
ATOM     68  O   UNL     1       3.803   5.022  30.485  0.00  0.00    -0.383 OA
ATOM     69  H   UNL     1       3.684   4.057  30.457  0.00  0.00    +0.210 HD
ENDBRANCH  67  68
BRANCH  66  70
ATOM     70  O   UNL     1       5.962   3.062  30.447  0.00  0.00    -0.386 OA
ATOM     71  H   UNL     1       6.241   2.235  30.020  0.00  0.00    +0.210 HD
ENDBRANCH  66  70
BRANCH  65  72
ATOM     72  O   UNL     1       7.691   3.291  28.103  0.00  0.00    -0.387 OA
ATOM     73  H   UNL     1       7.155   3.139  27.305  0.00  0.00    +0.210 HD
ENDBRANCH  65  72
ENDBRANCH  60  61
ENDBRANCH  43  60
ENDBRANCH  36  37
ENDBRANCH   3  36
BRANCH   1  74
ATOM     74  C   UNL     1       8.786  -1.815  23.344  0.00  0.00    +0.197 C 
BRANCH  74  75
ATOM     75  O   UNL     1       8.868  -0.755  24.283  0.00  0.00    -0.346 OA
BRANCH  75  79
ATOM     76  C   UNL     1       7.488   2.087  21.388  0.00  0.00    +0.041 C 
ATOM     77  C   UNL     1       8.929   1.933  21.860  0.00  0.00    +0.149 C 
ATOM     78  O   UNL     1       9.109   0.693  22.550  0.00  0.00    -0.343 OA
ATOM     79  C   UNL     1       8.646   0.606  23.916  0.00  0.00    +0.282 C 
ATOM     80  C   UNL     1       9.341   1.708  24.755  0.00  0.00    +0.201 C 
ATOM     81  C   UNL     1       8.993   3.074  24.120  0.00  0.00    +0.179 C 
ATOM     82  C   UNL     1       9.435   3.133  22.656  0.00  0.00    +0.174 C 
BRANCH  80  83
ATOM     83  O   UNL     1      10.777   1.572  24.801  0.00  0.00    -0.384 OA
ATOM     84  H   UNL     1      10.938   0.673  25.117  0.00  0.00    +0.210 HD
ENDBRANCH  80  83
BRANCH  81  85
ATOM     85  O   UNL     1       9.652   4.154  24.807  0.00  0.00    -0.386 OA
ATOM     86  H   UNL     1      10.607   4.028  24.621  0.00  0.00    +0.210 HD
ENDBRANCH  81  85
BRANCH  82  87
ATOM     87  O   UNL     1      10.869   3.203  22.630  0.00  0.00    -0.387 OA
ATOM     88  H   UNL     1      11.148   3.277  23.577  0.00  0.00    +0.210 HD
ENDBRANCH  82  87
ENDBRANCH  75  79
ENDBRANCH  74  75
ENDBRANCH   1  74
TORSDOF 28
ENDMDL
MODEL 5
REMARK VINA RESULT:      -3.2      2.708      8.990
REMARK  Name = 
REMARK  31 active torsions:
REMARK  status: ('A' for Active; 'I' for Inactive)
REMARK    1  A    between atoms: C_1  and  C_2
REMARK    2  A    between atoms: C_3  and  O_86
REMARK    3  A    between atoms: C_5  and  O_85
REMARK    4  A    between atoms: C_6  and  O_84
REMARK    5  A    between atoms: C_8  and  O_11
REMARK    6  A    between atoms: O_11  and  C_12
REMARK    7  A    between atoms: C_12  and  C_13
REMARK    8  A    between atoms: C_14  and  O_83
REMARK    9  A    between atoms: C_16  and  O_71
REMARK   10  A    between atoms: C_18  and  O_57
REMARK   11  A    between atoms: C_19  and  O_22
REMARK   12  A    between atoms: O_22  and  C_23
REMARK   13  A    between atoms: C_24  and  C_49
REMARK   14  A    between atoms: C_28  and  O_35
REMARK   15  A    between atoms: C_30  and  O_34
REMARK   16  A    between atoms: O_35  and  C_36
REMARK   17  A    between atoms: C_38  and  O_48
REMARK   18  A    between atoms: C_40  and  O_47
REMARK   19  A    between atoms: C_41  and  O_46
REMARK   20  A    between atoms: C_43  and  C_45
REMARK   21  A    between atoms: C_51  and  O_56
REMARK   22  A    between atoms: C_52  and  O_55
REMARK   23  A    between atoms: O_57  and  C_58
REMARK   24  A    between atoms: C_60  and  O_70
REMARK   25  A    between atoms: C_62  and  O_69
REMARK   26  A    between atoms: C_63  and  O_68
REMARK   27  A    between atoms: C_65  and  C_67
REMARK   28  A    between atoms: O_71  and  C_72
REMARK   29  A    between atoms: C_72  and  C_74
REMARK   30  A    between atoms: C_75  and  C_76
REMARK   31  A    between atoms: C_79  and  O_82
REMARK                            x       y       z     vdW  Elec       q    Type
REMARK                         _______ _______ _______ _____ _____    ______ ____
ROOT
ATOM      1  C   UNL     1       9.229  -0.855  23.338  0.00  0.00    +0.180 C 
ATOM      2  O   UNL     1       7.866  -0.700  23.784  0.00  0.00    -0.331 OA
ATOM      3  C   UNL     1       7.438  -1.391  24.973  0.00  0.00    +0.341 C 
ATOM      4  C   UNL     1       7.846  -2.921  24.947  0.00  0.00    +0.233 C 
ATOM      5  C   UNL     1       9.372  -2.943  24.785  0.00  0.00    +0.242 C 
ATOM      6  C   UNL     1       9.749  -2.331  23.424  0.00  0.00    +0.189 C 
ENDROOT
BRANCH   6   7
ATOM      7  O   UNL     1       9.228  -3.101  22.333  0.00  0.00    -0.385 OA
ATOM      8  H   UNL     1       8.471  -2.616  21.943  0.00  0.00    +0.210 HD
ENDBRANCH   6   7
BRANCH   4   9
ATOM      9  O   UNL     1       7.143  -3.671  23.907  0.00  0.00    -0.335 OA
BRANCH   9  10
ATOM     10  C   UNL     1       5.791  -3.269  23.578  0.00  0.00    +0.282 C 
ATOM     11  O   UNL     1       4.859  -4.316  23.897  0.00  0.00    -0.343 OA
ATOM     12  C   UNL     1       5.020  -5.496  23.104  0.00  0.00    +0.149 C 
ATOM     13  C   UNL     1       3.892  -6.465  23.469  0.00  0.00    +0.041 C 
ATOM     14  C   UNL     1       4.984  -5.224  21.590  0.00  0.00    +0.174 C 
ATOM     15  C   UNL     1       5.880  -4.037  21.215  0.00  0.00    +0.179 C 
ATOM     16  C   UNL     1       5.550  -2.847  22.113  0.00  0.00    +0.201 C 
BRANCH  16  17
ATOM     17  O   UNL     1       6.294  -1.705  21.669  0.00  0.00    -0.384 OA
ATOM     18  H   UNL     1       6.945  -2.023  21.016  0.00  0.00    +0.210 HD
ENDBRANCH  16  17
BRANCH  15  19
ATOM     19  O   UNL     1       5.660  -3.674  19.843  0.00  0.00    -0.386 OA
ATOM     20  H   UNL     1       4.826  -4.118  19.585  0.00  0.00    +0.210 HD
ENDBRANCH  15  19
BRANCH  14  21
ATOM     21  O   UNL     1       5.356  -6.428  20.909  0.00  0.00    -0.387 OA
ATOM     22  H   UNL     1       4.549  -6.792  20.492  0.00  0.00    +0.210 HD
ENDBRANCH  14  21
ENDBRANCH   9  10
ENDBRANCH   4   9
BRANCH   5  23
ATOM     23  O   UNL     1       9.884  -4.293  24.976  0.00  0.00    -0.453 OA
BRANCH  23  24
ATOM     24  C   UNL     1       9.853  -4.770  26.259  0.00  0.00    +0.332 C 
ATOM     25  O   UNL     1      10.698  -4.572  27.115  0.00  0.00    -0.246 OA
BRANCH  24  26
ATOM     26  C   UNL     1       8.581  -5.489  26.441  0.00  0.00    +0.092 C 
ATOM     27  C   UNL     1       7.752  -5.100  27.416  0.00  0.00    +0.015 C 
BRANCH  27  28
ATOM     28  C   UNL     1       6.500  -5.813  27.656  0.00  0.00    -0.025 A 
ATOM     29  C   UNL     1       6.204  -6.324  28.924  0.00  0.00    +0.011 A 
ATOM     30  C   UNL     1       4.982  -6.951  29.168  0.00  0.00    +0.046 A 
ATOM     31  C   UNL     1       4.049  -7.076  28.131  0.00  0.00    +0.117 A 
ATOM     32  C   UNL     1       4.339  -6.604  26.860  0.00  0.00    +0.046 A 
ATOM     33  C   UNL     1       5.559  -5.975  26.616  0.00  0.00    +0.011 A 
BRANCH  31  34
ATOM     34  O   UNL     1       2.857  -7.665  28.426  0.00  0.00    -0.507 OA
ATOM     35  H   UNL     1       2.997  -8.290  29.156  0.00  0.00    +0.292 HD
ENDBRANCH  31  34
ENDBRANCH  27  28
ENDBRANCH  24  26
ENDBRANCH  23  24
ENDBRANCH   5  23
BRANCH   3  36
ATOM     36  O   UNL     1       6.007  -1.343  25.137  0.00  0.00    -0.453 OA
BRANCH  36  37
ATOM     37  C   UNL     1       5.235  -0.196  25.276  0.00  0.00    +0.214 A 
ATOM     38  C   UNL     1       5.331   1.037  24.445  0.00  0.00    +0.238 A 
ATOM     39  O   UNL     1       6.003   1.047  23.425  0.00  0.00    -0.283 OA
ATOM     40  C   UNL     1       4.518   2.229  24.863  0.00  0.00    +0.109 A 
ATOM     41  C   UNL     1       3.520   2.040  25.803  0.00  0.00    +0.147 A 
ATOM     42  C   UNL     1       2.645   3.066  26.186  0.00  0.00    +0.093 A 
ATOM     43  C   UNL     1       2.802   4.357  25.687  0.00  0.00    +0.131 A 
ATOM     44  C   UNL     1       3.823   4.577  24.757  0.00  0.00    +0.092 A 
ATOM     45  O   UNL     1       3.352   0.846  26.439  0.00  0.00    -0.451 OA
ATOM     46  C   UNL     1       4.679   3.526  24.370  0.00  0.00    +0.135 A 
ATOM     47  C   UNL     1       4.261  -0.162  26.209  0.00  0.00    +0.181 A 
BRANCH  47  48
ATOM     48  C   UNL     1       3.968  -1.311  27.045  0.00  0.00    +0.025 A 
ATOM     49  C   UNL     1       3.285  -2.386  26.465  0.00  0.00    +0.015 A 
ATOM     50  C   UNL     1       2.843  -3.431  27.259  0.00  0.00    +0.050 A 
ATOM     51  C   UNL     1       3.163  -3.424  28.611  0.00  0.00    +0.158 A 
ATOM     52  C   UNL     1       3.885  -2.378  29.179  0.00  0.00    +0.159 A 
ATOM     53  C   UNL     1       4.266  -1.295  28.412  0.00  0.00    +0.060 A 
BRANCH  52  54
ATOM     54  O   UNL     1       4.301  -2.402  30.480  0.00  0.00    -0.503 OA
ATOM     55  H   UNL     1       5.274  -2.347  30.459  0.00  0.00    +0.292 HD
ENDBRANCH  52  54
BRANCH  51  56
ATOM     56  O   UNL     1       2.854  -4.520  29.365  0.00  0.00    -0.503 OA
ATOM     57  H   UNL     1       2.473  -4.137  30.183  0.00  0.00    +0.292 HD
ENDBRANCH  51  56
ENDBRANCH  47  48
BRANCH  46  58
ATOM     58  O   UNL     1       5.783   3.830  23.636  0.00  0.00    -0.506 OA
ATOM     59  H   UNL     1       5.719   3.491  22.723  0.00  0.00    +0.292 HD
ENDBRANCH  46  58
BRANCH  43  60
ATOM     60  O   UNL     1       2.072   5.464  26.072  0.00  0.00    -0.461 OA
BRANCH  60  61
ATOM     61  C   UNL     1       2.699   6.371  27.002  0.00  0.00    +0.339 C 
ATOM     62  O   UNL     1       3.991   5.897  27.390  0.00  0.00    -0.334 OA
ATOM     63  C   UNL     1       3.916   4.659  28.113  0.00  0.00    +0.150 C 
ATOM     64  C   UNL     1       5.341   4.154  28.304  0.00  0.00    +0.041 C 
ATOM     65  C   UNL     1       3.196   4.865  29.453  0.00  0.00    +0.174 C 
ATOM     66  C   UNL     1       1.793   5.448  29.217  0.00  0.00    +0.180 C 
ATOM     67  C   UNL     1       1.851   6.658  28.273  0.00  0.00    +0.214 C 
BRANCH  67  68
ATOM     68  O   UNL     1       0.530   7.107  27.955  0.00  0.00    -0.383 OA
ATOM     69  H   UNL     1       0.280   7.793  28.598  0.00  0.00    +0.210 HD
ENDBRANCH  67  68
BRANCH  66  70
ATOM     70  O   UNL     1       1.217   5.827  30.485  0.00  0.00    -0.386 OA
ATOM     71  H   UNL     1       0.338   6.209  30.327  0.00  0.00    +0.210 HD
ENDBRANCH  66  70
BRANCH  65  72
ATOM     72  O   UNL     1       3.135   3.643  30.192  0.00  0.00    -0.387 OA
ATOM     73  H   UNL     1       2.427   3.718  30.856  0.00  0.00    +0.210 HD
ENDBRANCH  65  72
ENDBRANCH  60  61
ENDBRANCH  43  60
ENDBRANCH  36  37
ENDBRANCH   3  36
BRANCH   1  74
ATOM     74  C   UNL     1      10.273   0.085  24.009  0.00  0.00    +0.197 C 
BRANCH  74  75
ATOM     75  O   UNL     1       9.778   0.948  25.020  0.00  0.00    -0.346 OA
BRANCH  75  79
ATOM     76  C   UNL     1       8.328   4.798  26.220  0.00  0.00    +0.041 C 
ATOM     77  C   UNL     1       8.201   4.200  24.823  0.00  0.00    +0.149 C 
ATOM     78  O   UNL     1       8.468   2.795  24.845  0.00  0.00    -0.343 OA
ATOM     79  C   UNL     1       9.847   2.370  24.909  0.00  0.00    +0.282 C 
ATOM     80  C   UNL     1      10.616   2.968  23.704  0.00  0.00    +0.201 C 
ATOM     81  C   UNL     1      10.488   4.508  23.782  0.00  0.00    +0.179 C 
ATOM     82  C   UNL     1       9.022   4.943  23.773  0.00  0.00    +0.174 C 
BRANCH  80  83
ATOM     83  O   UNL     1      10.111   2.526  22.426  0.00  0.00    -0.384 OA
ATOM     84  H   UNL     1       9.888   1.594  22.549  0.00  0.00    +0.210 HD
ENDBRANCH  80  83
BRANCH  81  85
ATOM     85  O   UNL     1      11.128   5.143  22.659  0.00  0.00    -0.386 OA
ATOM     86  H   UNL     1      12.039   4.778  22.646  0.00  0.00    +0.210 HD
ENDBRANCH  81  85
BRANCH  82  87
ATOM     87  O   UNL     1       8.501   4.715  22.454  0.00  0.00    -0.387 OA
ATOM     88  H   UNL     1       7.528   4.877  22.522  0.00  0.00    +0.210 HD
ENDBRANCH  82  87
ENDBRANCH  75  79
ENDBRANCH  74  75
ENDBRANCH   1  74
TORSDOF 28
ENDMDL
MODEL 6
REMARK VINA RESULT:      -3.0      2.379      9.325
REMARK  Name = 
REMARK  31 active torsions:
REMARK  status: ('A' for Active; 'I' for Inactive)
REMARK    1  A    between atoms: C_1  and  C_2
REMARK    2  A    between atoms: C_3  and  O_86
REMARK    3  A    between atoms: C_5  and  O_85
REMARK    4  A    between atoms: C_6  and  O_84
REMARK    5  A    between atoms: C_8  and  O_11
REMARK    6  A    between atoms: O_11  and  C_12
REMARK    7  A    between atoms: C_12  and  C_13
REMARK    8  A    between atoms: C_14  and  O_83
REMARK    9  A    between atoms: C_16  and  O_71
REMARK   10  A    between atoms: C_18  and  O_57
REMARK   11  A    between atoms: C_19  and  O_22
REMARK   12  A    between atoms: O_22  and  C_23
REMARK   13  A    between atoms: C_24  and  C_49
REMARK   14  A    between atoms: C_28  and  O_35
REMARK   15  A    between atoms: C_30  and  O_34
REMARK   16  A    between atoms: O_35  and  C_36
REMARK   17  A    between atoms: C_38  and  O_48
REMARK   18  A    between atoms: C_40  and  O_47
REMARK   19  A    between atoms: C_41  and  O_46
REMARK   20  A    between atoms: C_43  and  C_45
REMARK   21  A    between atoms: C_51  and  O_56
REMARK   22  A    between atoms: C_52  and  O_55
REMARK   23  A    between atoms: O_57  and  C_58
REMARK   24  A    between atoms: C_60  and  O_70
REMARK   25  A    between atoms: C_62  and  O_69
REMARK   26  A    between atoms: C_63  and  O_68
REMARK   27  A    between atoms: C_65  and  C_67
REMARK   28  A    between atoms: O_71  and  C_72
REMARK   29  A    between atoms: C_72  and  C_74
REMARK   30  A    between atoms: C_75  and  C_76
REMARK   31  A    between atoms: C_79  and  O_82
REMARK                            x       y       z     vdW  Elec       q    Type
REMARK                         _______ _______ _______ _____ _____    ______ ____
ROOT
ATOM      1  C   UNL     1       7.677  -2.605  22.183  0.00  0.00    +0.180 C 
ATOM      2  O   UNL     1       6.642  -1.840  22.837  0.00  0.00    -0.331 OA
ATOM      3  C   UNL     1       6.652  -1.740  24.273  0.00  0.00    +0.341 C 
ATOM      4  C   UNL     1       6.823  -3.154  24.965  0.00  0.00    +0.233 C 
ATOM      5  C   UNL     1       8.137  -3.729  24.418  0.00  0.00    +0.242 C 
ATOM      6  C   UNL     1       8.002  -3.958  22.902  0.00  0.00    +0.189 C 
ENDROOT
BRANCH   6   7
ATOM      7  O   UNL     1       6.993  -4.930  22.600  0.00  0.00    -0.385 OA
ATOM      8  H   UNL     1       6.226  -4.470  22.199  0.00  0.00    +0.210 HD
ENDBRANCH   6   7
BRANCH   4   9
ATOM      9  O   UNL     1       5.673  -4.029  24.744  0.00  0.00    -0.335 OA
BRANCH   9  10
ATOM     10  C   UNL     1       4.538  -3.487  24.026  0.00  0.00    +0.282 C 
ATOM     11  O   UNL     1       3.451  -3.215  24.927  0.00  0.00    -0.343 OA
ATOM     12  C   UNL     1       2.891  -4.385  25.530  0.00  0.00    +0.149 C 
ATOM     13  C   UNL     1       1.679  -3.953  26.360  0.00  0.00    +0.041 C 
ATOM     14  C   UNL     1       2.452  -5.448  24.508  0.00  0.00    +0.174 C 
ATOM     15  C   UNL     1       3.540  -5.692  23.454  0.00  0.00    +0.179 C 
ATOM     16  C   UNL     1       3.993  -4.355  22.872  0.00  0.00    +0.201 C 
BRANCH  16  17
ATOM     17  O   UNL     1       4.909  -4.599  21.797  0.00  0.00    -0.384 OA
ATOM     18  H   UNL     1       5.282  -5.490  21.935  0.00  0.00    +0.210 HD
ENDBRANCH  16  17
BRANCH  15  19
ATOM     19  O   UNL     1       3.022  -6.521  22.402  0.00  0.00    -0.386 OA
ATOM     20  H   UNL     1       2.516  -5.918  21.819  0.00  0.00    +0.210 HD
ENDBRANCH  15  19
BRANCH  14  21
ATOM     21  O   UNL     1       2.104  -6.640  25.222  0.00  0.00    -0.387 OA
ATOM     22  H   UNL     1       2.177  -7.390  24.597  0.00  0.00    +0.210 HD
ENDBRANCH  14  21
ENDBRANCH   9  10
ENDBRANCH   4   9
BRANCH   5  23
ATOM     23  O   UNL     1       8.512  -4.928  25.155  0.00  0.00    -0.453 OA
BRANCH  23  24
ATOM     24  C   UNL     1       8.708  -4.768  26.501  0.00  0.00    +0.332 C 
ATOM     25  O   UNL     1       9.550  -4.056  27.020  0.00  0.00    -0.246 OA
BRANCH  24  26
ATOM     26  C   UNL     1       7.668  -5.541  27.201  0.00  0.00    +0.092 C 
ATOM     27  C   UNL     1       6.579  -4.905  27.646  0.00  0.00    +0.015 C 
BRANCH  27  28
ATOM     28  C   UNL     1       5.545  -5.627  28.382  0.00  0.00    -0.025 A 
ATOM     29  C   UNL     1       4.490  -6.247  27.702  0.00  0.00    +0.011 A 
ATOM     30  C   UNL     1       3.536  -6.989  28.399  0.00  0.00    +0.046 A 
ATOM     31  C   UNL     1       3.633  -7.106  29.791  0.00  0.00    +0.117 A 
ATOM     32  C   UNL     1       4.653  -6.472  30.485  0.00  0.00    +0.046 A 
ATOM     33  C   UNL     1       5.608  -5.732  29.788  0.00  0.00    +0.011 A 
BRANCH  31  34
ATOM     34  O   UNL     1       2.698  -7.868  30.424  0.00  0.00    -0.507 OA
ATOM     35  H   UNL     1       1.825  -7.475  30.265  0.00  0.00    +0.292 HD
ENDBRANCH  31  34
ENDBRANCH  27  28
ENDBRANCH  24  26
ENDBRANCH  23  24
ENDBRANCH   5  23
BRANCH   3  36
ATOM     36  O   UNL     1       5.428  -1.172  24.781  0.00  0.00    -0.453 OA
BRANCH  36  37
ATOM     37  C   UNL     1       5.164   0.181  24.962  0.00  0.00    +0.214 A 
ATOM     38  C   UNL     1       5.457   1.273  23.992  0.00  0.00    +0.238 A 
ATOM     39  O   UNL     1       5.799   1.012  22.849  0.00  0.00    -0.283 OA
ATOM     40  C   UNL     1       5.245   2.688  24.447  0.00  0.00    +0.109 A 
ATOM     41  C   UNL     1       4.527   2.899  25.611  0.00  0.00    +0.147 A 
ATOM     42  C   UNL     1       4.193   4.182  26.067  0.00  0.00    +0.093 A 
ATOM     43  C   UNL     1       4.648   5.314  25.396  0.00  0.00    +0.131 A 
ATOM     44  C   UNL     1       5.400   5.125  24.232  0.00  0.00    +0.092 A 
ATOM     45  O   UNL     1       4.132   1.864  26.406  0.00  0.00    -0.451 OA
ATOM     46  C   UNL     1       5.708   3.826  23.780  0.00  0.00    +0.135 A 
ATOM     47  C   UNL     1       4.543   0.588  26.088  0.00  0.00    +0.181 A 
BRANCH  47  48
ATOM     48  C   UNL     1       4.103  -0.354  27.099  0.00  0.00    +0.025 A 
ATOM     49  C   UNL     1       4.992  -1.362  27.486  0.00  0.00    +0.015 A 
ATOM     50  C   UNL     1       4.562  -2.376  28.325  0.00  0.00    +0.050 A 
ATOM     51  C   UNL     1       3.270  -2.321  28.831  0.00  0.00    +0.158 A 
ATOM     52  C   UNL     1       2.399  -1.290  28.485  0.00  0.00    +0.159 A 
ATOM     53  C   UNL     1       2.793  -0.315  27.590  0.00  0.00    +0.060 A 
BRANCH  52  54
ATOM     54  O   UNL     1       1.164  -1.159  29.051  0.00  0.00    -0.503 OA
ATOM     55  H   UNL     1       0.924  -2.037  29.398  0.00  0.00    +0.292 HD
ENDBRANCH  52  54
BRANCH  51  56
ATOM     56  O   UNL     1       2.891  -3.238  29.769  0.00  0.00    -0.503 OA
ATOM     57  H   UNL     1       3.670  -3.827  29.845  0.00  0.00    +0.292 HD
ENDBRANCH  51  56
ENDBRANCH  47  48
BRANCH  46  58
ATOM     58  O   UNL     1       6.614   3.690  22.776  0.00  0.00    -0.506 OA
ATOM     59  H   UNL     1       6.323   3.040  22.107  0.00  0.00    +0.292 HD
ENDBRANCH  46  58
BRANCH  43  60
ATOM     60  O   UNL     1       4.473   6.621  25.809  0.00  0.00    -0.461 OA
BRANCH  60  61
ATOM     61  C   UNL     1       5.362   7.108  26.834  0.00  0.00    +0.339 C 
ATOM     62  O   UNL     1       6.729   6.985  26.431  0.00  0.00    -0.334 OA
ATOM     63  C   UNL     1       7.118   5.614  26.260  0.00  0.00    +0.150 C 
ATOM     64  C   UNL     1       8.514   5.609  25.649  0.00  0.00    +0.041 C 
ATOM     65  C   UNL     1       7.077   4.874  27.604  0.00  0.00    +0.174 C 
ATOM     66  C   UNL     1       5.671   4.972  28.220  0.00  0.00    +0.180 C 
ATOM     67  C   UNL     1       5.168   6.423  28.216  0.00  0.00    +0.214 C 
BRANCH  67  68
ATOM     68  O   UNL     1       3.811   6.481  28.666  0.00  0.00    -0.383 OA
ATOM     69  H   UNL     1       3.595   5.631  29.088  0.00  0.00    +0.210 HD
ENDBRANCH  67  68
BRANCH  66  70
ATOM     70  O   UNL     1       5.707   4.455  29.567  0.00  0.00    -0.386 OA
ATOM     71  H   UNL     1       5.122   3.681  29.621  0.00  0.00    +0.210 HD
ENDBRANCH  66  70
BRANCH  65  72
ATOM     72  O   UNL     1       7.486   3.513  27.450  0.00  0.00    -0.387 OA
ATOM     73  H   UNL     1       6.722   2.995  27.140  0.00  0.00    +0.210 HD
ENDBRANCH  65  72
ENDBRANCH  60  61
ENDBRANCH  43  60
ENDBRANCH  36  37
ENDBRANCH   3  36
BRANCH   1  74
ATOM     74  C   UNL     1       9.011  -1.847  21.914  0.00  0.00    +0.197 C 
BRANCH  74  75
ATOM     75  O   UNL     1       9.930  -1.797  22.992  0.00  0.00    -0.346 OA
BRANCH  75  79
ATOM     76  C   UNL     1       8.761   0.518  26.403  0.00  0.00    +0.041 C 
ATOM     77  C   UNL     1       8.592   0.939  24.948  0.00  0.00    +0.149 C 
ATOM     78  O   UNL     1       8.757  -0.180  24.073  0.00  0.00    -0.343 OA
ATOM     79  C   UNL     1      10.102  -0.628  23.794  0.00  0.00    +0.282 C 
ATOM     80  C   UNL     1      10.913   0.550  23.197  0.00  0.00    +0.201 C 
ATOM     81  C   UNL     1      10.897   1.703  24.228  0.00  0.00    +0.179 C 
ATOM     82  C   UNL     1       9.466   2.129  24.560  0.00  0.00    +0.174 C 
BRANCH  80  83
ATOM     83  O   UNL     1      10.379   1.038  21.949  0.00  0.00    -0.384 OA
ATOM     84  H   UNL     1      11.139   1.387  21.465  0.00  0.00    +0.210 HD
ENDBRANCH  80  83
BRANCH  81  85
ATOM     85  O   UNL     1      11.582   2.864  23.724  0.00  0.00    -0.386 OA
ATOM     86  H   UNL     1      12.490   2.554  23.520  0.00  0.00    +0.210 HD
ENDBRANCH  81  85
BRANCH  82  87
ATOM     87  O   UNL     1       8.931   2.810  23.414  0.00  0.00    -0.387 OA
ATOM     88  H   UNL     1       8.768   2.106  22.739  0.00  0.00    +0.210 HD
ENDBRANCH  82  87
ENDBRANCH  75  79
ENDBRANCH  74  75
ENDBRANCH   1  74
TORSDOF 28
ENDMDL
MODEL 7
REMARK VINA RESULT:      -2.8      2.367      9.604
REMARK  Name = 
REMARK  31 active torsions:
REMARK  status: ('A' for Active; 'I' for Inactive)
REMARK    1  A    between atoms: C_1  and  C_2
REMARK    2  A    between atoms: C_3  and  O_86
REMARK    3  A    between atoms: C_5  and  O_85
REMARK    4  A    between atoms: C_6  and  O_84
REMARK    5  A    between atoms: C_8  and  O_11
REMARK    6  A    between atoms: O_11  and  C_12
REMARK    7  A    between atoms: C_12  and  C_13
REMARK    8  A    between atoms: C_14  and  O_83
REMARK    9  A    between atoms: C_16  and  O_71
REMARK   10  A    between atoms: C_18  and  O_57
REMARK   11  A    between atoms: C_19  and  O_22
REMARK   12  A    between atoms: O_22  and  C_23
REMARK   13  A    between atoms: C_24  and  C_49
REMARK   14  A    between atoms: C_28  and  O_35
REMARK   15  A    between atoms: C_30  and  O_34
REMARK   16  A    between atoms: O_35  and  C_36
REMARK   17  A    between atoms: C_38  and  O_48
REMARK   18  A    between atoms: C_40  and  O_47
REMARK   19  A    between atoms: C_41  and  O_46
REMARK   20  A    between atoms: C_43  and  C_45
REMARK   21  A    between atoms: C_51  and  O_56
REMARK   22  A    between atoms: C_52  and  O_55
REMARK   23  A    between atoms: O_57  and  C_58
REMARK   24  A    between atoms: C_60  and  O_70
REMARK   25  A    between atoms: C_62  and  O_69
REMARK   26  A    between atoms: C_63  and  O_68
REMARK   27  A    between atoms: C_65  and  C_67
REMARK   28  A    between atoms: O_71  and  C_72
REMARK   29  A    between atoms: C_72  and  C_74
REMARK   30  A    between atoms: C_75  and  C_76
REMARK   31  A    between atoms: C_79  and  O_82
REMARK                            x       y       z     vdW  Elec       q    Type
REMARK                         _______ _______ _______ _____ _____    ______ ____
ROOT
ATOM      1  C   UNL     1       3.354  -3.469  25.072  0.00  0.00    +0.180 C 
ATOM      2  O   UNL     1       4.467  -2.631  25.449  0.00  0.00    -0.331 OA
ATOM      3  C   UNL     1       4.822  -2.528  26.841  0.00  0.00    +0.341 C 
ATOM      4  C   UNL     1       3.563  -2.226  27.752  0.00  0.00    +0.233 C 
ATOM      5  C   UNL     1       2.577  -3.373  27.492  0.00  0.00    +0.242 C 
ATOM      6  C   UNL     1       2.118  -3.329  26.024  0.00  0.00    +0.189 C 
ENDROOT
BRANCH   6   7
ATOM      7  O   UNL     1       1.403  -2.122  25.728  0.00  0.00    -0.385 OA
ATOM      8  H   UNL     1       2.027  -1.480  25.329  0.00  0.00    +0.210 HD
ENDBRANCH   6   7
BRANCH   4   9
ATOM      9  O   UNL     1       2.992  -0.904  27.501  0.00  0.00    -0.335 OA
BRANCH   9  10
ATOM     10  C   UNL     1       1.669  -0.629  28.019  0.00  0.00    +0.282 C 
ATOM     11  O   UNL     1       0.905   0.143  27.076  0.00  0.00    -0.343 OA
ATOM     12  C   UNL     1       1.418   1.460  26.854  0.00  0.00    +0.149 C 
ATOM     13  C   UNL     1       0.443   2.195  25.931  0.00  0.00    +0.041 C 
ATOM     14  C   UNL     1       1.599   2.271  28.149  0.00  0.00    +0.174 C 
ATOM     15  C   UNL     1       2.312   1.447  29.229  0.00  0.00    +0.179 C 
ATOM     16  C   UNL     1       1.615   0.096  29.381  0.00  0.00    +0.201 C 
BRANCH  16  17
ATOM     17  O   UNL     1       2.201  -0.612  30.481  0.00  0.00    -0.384 OA
ATOM     18  H   UNL     1       2.095  -1.564  30.299  0.00  0.00    +0.210 HD
ENDBRANCH  16  17
BRANCH  15  19
ATOM     19  O   UNL     1       2.273   2.147  30.482  0.00  0.00    -0.386 OA
ATOM     20  H   UNL     1       2.697   1.548  31.130  0.00  0.00    +0.210 HD
ENDBRANCH  15  19
BRANCH  14  21
ATOM     21  O   UNL     1       2.301   3.477  27.828  0.00  0.00    -0.387 OA
ATOM     22  H   UNL     1       2.873   3.697  28.591  0.00  0.00    +0.210 HD
ENDBRANCH  14  21
ENDBRANCH   9  10
ENDBRANCH   4   9
BRANCH   5  23
ATOM     23  O   UNL     1       1.477  -3.323  28.446  0.00  0.00    -0.453 OA
BRANCH  23  24
ATOM     24  C   UNL     1       1.064  -4.529  28.948  0.00  0.00    +0.332 C 
ATOM     25  O   UNL     1       0.957  -4.811  30.130  0.00  0.00    -0.246 OA
BRANCH  24  26
ATOM     26  C   UNL     1       0.694  -5.387  27.811  0.00  0.00    +0.092 C 
ATOM     27  C   UNL     1       1.447  -6.458  27.537  0.00  0.00    +0.015 C 
BRANCH  27  28
ATOM     28  C   UNL     1       1.137  -7.311  26.393  0.00  0.00    -0.025 A 
ATOM     29  C   UNL     1       0.807  -6.748  25.155  0.00  0.00    +0.011 A 
ATOM     30  C   UNL     1       0.572  -7.562  24.046  0.00  0.00    +0.046 A 
ATOM     31  C   UNL     1       0.659  -8.953  24.178  0.00  0.00    +0.117 A 
ATOM     32  C   UNL     1       0.954  -9.529  25.404  0.00  0.00    +0.046 A 
ATOM     33  C   UNL     1       1.192  -8.717  26.513  0.00  0.00    +0.011 A 
BRANCH  31  34
ATOM     34  O   UNL     1       0.454  -9.704  23.060  0.00  0.00    -0.507 OA
ATOM     35  H   UNL     1       0.498 -10.641  23.309  0.00  0.00    +0.292 HD
ENDBRANCH  31  34
ENDBRANCH  27  28
ENDBRANCH  24  26
ENDBRANCH  23  24
ENDBRANCH   5  23
BRANCH   3  36
ATOM     36  O   UNL     1       5.772  -1.469  27.076  0.00  0.00    -0.453 OA
BRANCH  36  37
ATOM     37  C   UNL     1       6.063  -0.420  26.213  0.00  0.00    +0.214 A 
ATOM     38  C   UNL     1       5.358   0.892  26.151  0.00  0.00    +0.238 A 
ATOM     39  O   UNL     1       4.559   1.208  27.019  0.00  0.00    -0.283 OA
ATOM     40  C   UNL     1       5.720   1.828  25.034  0.00  0.00    +0.109 A 
ATOM     41  C   UNL     1       6.867   1.565  24.307  0.00  0.00    +0.147 A 
ATOM     42  C   UNL     1       7.342   2.430  23.311  0.00  0.00    +0.093 A 
ATOM     43  C   UNL     1       6.619   3.566  22.955  0.00  0.00    +0.131 A 
ATOM     44  C   UNL     1       5.441   3.838  23.658  0.00  0.00    +0.092 A 
ATOM     45  O   UNL     1       7.587   0.422  24.495  0.00  0.00    -0.451 OA
ATOM     46  C   UNL     1       4.993   2.965  24.669  0.00  0.00    +0.135 A 
ATOM     47  C   UNL     1       7.103  -0.533  25.361  0.00  0.00    +0.181 A 
BRANCH  47  48
ATOM     48  C   UNL     1       7.955  -1.706  25.352  0.00  0.00    +0.025 A 
ATOM     49  C   UNL     1       8.899  -1.822  24.326  0.00  0.00    +0.015 A 
ATOM     50  C   UNL     1       9.622  -2.994  24.183  0.00  0.00    +0.050 A 
ATOM     51  C   UNL     1       9.448  -4.005  25.120  0.00  0.00    +0.158 A 
ATOM     52  C   UNL     1       8.544  -3.870  26.172  0.00  0.00    +0.159 A 
ATOM     53  C   UNL     1       7.764  -2.736  26.280  0.00  0.00    +0.060 A 
BRANCH  52  54
ATOM     54  O   UNL     1       8.435  -4.803  27.162  0.00  0.00    -0.503 OA
ATOM     55  H   UNL     1       7.642  -5.332  26.957  0.00  0.00    +0.292 HD
ENDBRANCH  52  54
BRANCH  51  56
ATOM     56  O   UNL     1      10.261  -5.100  25.065  0.00  0.00    -0.503 OA
ATOM     57  H   UNL     1      10.694  -5.024  24.189  0.00  0.00    +0.292 HD
ENDBRANCH  51  56
ENDBRANCH  47  48
BRANCH  46  58
ATOM     58  O   UNL     1       3.743   3.149  25.173  0.00  0.00    -0.506 OA
ATOM     59  H   UNL     1       3.762   3.585  26.047  0.00  0.00    +0.292 HD
ENDBRANCH  46  58
BRANCH  43  60
ATOM     60  O   UNL     1       6.932   4.429  21.923  0.00  0.00    -0.461 OA
BRANCH  60  61
ATOM     61  C   UNL     1       7.451   5.724  22.287  0.00  0.00    +0.339 C 
ATOM     62  O   UNL     1       8.824   5.636  22.676  0.00  0.00    -0.334 OA
ATOM     63  C   UNL     1       8.998   4.849  23.864  0.00  0.00    +0.150 C 
ATOM     64  C   UNL     1      10.495   4.663  24.074  0.00  0.00    +0.041 C 
ATOM     65  C   UNL     1       8.331   5.537  25.064  0.00  0.00    +0.174 C 
ATOM     66  C   UNL     1       6.839   5.776  24.777  0.00  0.00    +0.180 C 
ATOM     67  C   UNL     1       6.641   6.437  23.406  0.00  0.00    +0.214 C 
BRANCH  67  68
ATOM     68  O   UNL     1       5.248   6.530  23.094  0.00  0.00    -0.383 OA
ATOM     69  H   UNL     1       5.161   6.908  22.202  0.00  0.00    +0.210 HD
ENDBRANCH  67  68
BRANCH  66  70
ATOM     70  O   UNL     1       6.282   6.602  25.820  0.00  0.00    -0.386 OA
ATOM     71  H   UNL     1       5.322   6.670  25.686  0.00  0.00    +0.210 HD
ENDBRANCH  66  70
BRANCH  65  72
ATOM     72  O   UNL     1       8.518   4.773  26.258  0.00  0.00    -0.387 OA
ATOM     73  H   UNL     1       9.444   4.474  26.291  0.00  0.00    +0.210 HD
ENDBRANCH  65  72
ENDBRANCH  60  61
ENDBRANCH  43  60
ENDBRANCH  36  37
ENDBRANCH   3  36
BRANCH   1  74
ATOM     74  C   UNL     1       3.677  -4.981  24.888  0.00  0.00    +0.197 C 
BRANCH  74  75
ATOM     75  O   UNL     1       5.052  -5.328  24.860  0.00  0.00    -0.346 OA
BRANCH  75  79
ATOM     76  C   UNL     1       6.300  -2.273  22.127  0.00  0.00    +0.041 C 
ATOM     77  C   UNL     1       5.662  -3.602  21.738  0.00  0.00    +0.149 C 
ATOM     78  O   UNL     1       5.058  -4.227  22.873  0.00  0.00    -0.343 OA
ATOM     79  C   UNL     1       5.923  -4.909  23.810  0.00  0.00    +0.282 C 
ATOM     80  C   UNL     1       6.726  -5.997  23.054  0.00  0.00    +0.201 C 
ATOM     81  C   UNL     1       7.534  -5.296  21.936  0.00  0.00    +0.179 C 
ATOM     82  C   UNL     1       6.613  -4.529  20.986  0.00  0.00    +0.174 C 
BRANCH  80  83
ATOM     83  O   UNL     1       5.893  -7.012  22.455  0.00  0.00    -0.384 OA
ATOM     84  H   UNL     1       5.573  -7.547  23.194  0.00  0.00    +0.210 HD
ENDBRANCH  80  83
BRANCH  81  85
ATOM     85  O   UNL     1       8.266  -6.249  21.144  0.00  0.00    -0.386 OA
ATOM     86  H   UNL     1       8.934  -6.628  21.756  0.00  0.00    +0.210 HD
ENDBRANCH  81  85
BRANCH  82  87
ATOM     87  O   UNL     1       5.886  -5.490  20.204  0.00  0.00    -0.387 OA
ATOM     88  H   UNL     1       6.574  -6.054  19.772  0.00  0.00    +0.210 HD
ENDBRANCH  82  87
ENDBRANCH  75  79
ENDBRANCH  74  75
ENDBRANCH   1  74
TORSDOF 28
ENDMDL
MODEL 8
REMARK VINA RESULT:      -2.1      2.541      8.219
REMARK  Name = 
REMARK  31 active torsions:
REMARK  status: ('A' for Active; 'I' for Inactive)
REMARK    1  A    between atoms: C_1  and  C_2
REMARK    2  A    between atoms: C_3  and  O_86
REMARK    3  A    between atoms: C_5  and  O_85
REMARK    4  A    between atoms: C_6  and  O_84
REMARK    5  A    between atoms: C_8  and  O_11
REMARK    6  A    between atoms: O_11  and  C_12
REMARK    7  A    between atoms: C_12  and  C_13
REMARK    8  A    between atoms: C_14  and  O_83
REMARK    9  A    between atoms: C_16  and  O_71
REMARK   10  A    between atoms: C_18  and  O_57
REMARK   11  A    between atoms: C_19  and  O_22
REMARK   12  A    between atoms: O_22  and  C_23
REMARK   13  A    between atoms: C_24  and  C_49
REMARK   14  A    between atoms: C_28  and  O_35
REMARK   15  A    between atoms: C_30  and  O_34
REMARK   16  A    between atoms: O_35  and  C_36
REMARK   17  A    between atoms: C_38  and  O_48
REMARK   18  A    between atoms: C_40  and  O_47
REMARK   19  A    between atoms: C_41  and  O_46
REMARK   20  A    between atoms: C_43  and  C_45
REMARK   21  A    between atoms: C_51  and  O_56
REMARK   22  A    between atoms: C_52  and  O_55
REMARK   23  A    between atoms: O_57  and  C_58
REMARK   24  A    between atoms: C_60  and  O_70
REMARK   25  A    between atoms: C_62  and  O_69
REMARK   26  A    between atoms: C_63  and  O_68
REMARK   27  A    between atoms: C_65  and  C_67
REMARK   28  A    between atoms: O_71  and  C_72
REMARK   29  A    between atoms: C_72  and  C_74
REMARK   30  A    between atoms: C_75  and  C_76
REMARK   31  A    between atoms: C_79  and  O_82
REMARK                            x       y       z     vdW  Elec       q    Type
REMARK                         _______ _______ _______ _____ _____    ______ ____
ROOT
ATOM      1  C   UNL     1       4.143  -2.518  24.189  0.00  0.00    +0.180 C 
ATOM      2  O   UNL     1       4.099  -1.474  25.184  0.00  0.00    -0.331 OA
ATOM      3  C   UNL     1       4.214  -1.831  26.574  0.00  0.00    +0.341 C 
ATOM      4  C   UNL     1       3.238  -3.014  26.965  0.00  0.00    +0.233 C 
ATOM      5  C   UNL     1       3.606  -4.181  26.038  0.00  0.00    +0.242 C 
ATOM      6  C   UNL     1       3.311  -3.787  24.580  0.00  0.00    +0.189 C 
ENDROOT
BRANCH   6   7
ATOM      7  O   UNL     1       1.914  -3.544  24.369  0.00  0.00    -0.385 OA
ATOM      8  H   UNL     1       1.690  -3.792  23.448  0.00  0.00    +0.210 HD
ENDBRANCH   6   7
BRANCH   4   9
ATOM      9  O   UNL     1       1.830  -2.630  26.880  0.00  0.00    -0.335 OA
BRANCH   9  10
ATOM     10  C   UNL     1       1.029  -2.725  28.083  0.00  0.00    +0.282 C 
ATOM     11  O   UNL     1       1.006  -1.467  28.778  0.00  0.00    -0.343 OA
ATOM     12  C   UNL     1       2.278  -1.069  29.298  0.00  0.00    +0.149 C 
ATOM     13  C   UNL     1       2.074   0.214  30.107  0.00  0.00    +0.041 C 
ATOM     14  C   UNL     1       2.931  -2.135  30.195  0.00  0.00    +0.174 C 
ATOM     15  C   UNL     1       2.878  -3.522  29.542  0.00  0.00    +0.179 C 
ATOM     16  C   UNL     1       1.450  -3.817  29.089  0.00  0.00    +0.201 C 
BRANCH  16  17
ATOM     17  O   UNL     1       1.381  -5.164  28.604  0.00  0.00    -0.384 OA
ATOM     18  H   UNL     1       0.441  -5.424  28.611  0.00  0.00    +0.210 HD
ENDBRANCH  16  17
BRANCH  15  19
ATOM     19  O   UNL     1       3.297  -4.521  30.484  0.00  0.00    -0.386 OA
ATOM     20  H   UNL     1       4.166  -4.218  30.819  0.00  0.00    +0.210 HD
ENDBRANCH  15  19
BRANCH  14  21
ATOM     21  O   UNL     1       4.270  -1.717  30.484  0.00  0.00    -0.387 OA
ATOM     22  H   UNL     1       4.459  -1.957  31.415  0.00  0.00    +0.210 HD
ENDBRANCH  14  21
ENDBRANCH   9  10
ENDBRANCH   4   9
BRANCH   5  23
ATOM     23  O   UNL     1       2.926  -5.398  26.459  0.00  0.00    -0.453 OA
BRANCH  23  24
ATOM     24  C   UNL     1       3.326  -6.552  25.839  0.00  0.00    +0.332 C 
ATOM     25  O   UNL     1       2.615  -7.510  25.588  0.00  0.00    -0.246 OA
BRANCH  24  26
ATOM     26  C   UNL     1       4.739  -6.392  25.459  0.00  0.00    +0.092 C 
ATOM     27  C   UNL     1       5.577  -5.799  26.317  0.00  0.00    +0.015 C 
BRANCH  27  28
ATOM     28  C   UNL     1       6.976  -5.583  25.961  0.00  0.00    -0.025 A 
ATOM     29  C   UNL     1       7.398  -5.699  24.631  0.00  0.00    +0.011 A 
ATOM     30  C   UNL     1       8.722  -5.433  24.282  0.00  0.00    +0.046 A 
ATOM     31  C   UNL     1       9.636  -5.056  25.273  0.00  0.00    +0.117 A 
ATOM     32  C   UNL     1       9.244  -4.967  26.600  0.00  0.00    +0.046 A 
ATOM     33  C   UNL     1       7.920  -5.231  26.950  0.00  0.00    +0.011 A 
BRANCH  31  34
ATOM     34  O   UNL     1      10.910  -4.774  24.878  0.00  0.00    -0.507 OA
ATOM     35  H   UNL     1      11.054  -3.818  24.969  0.00  0.00    +0.292 HD
ENDBRANCH  31  34
ENDBRANCH  27  28
ENDBRANCH  24  26
ENDBRANCH  23  24
ENDBRANCH   5  23
BRANCH   3  36
ATOM     36  O   UNL     1       3.897  -0.723  27.442  0.00  0.00    -0.453 OA
BRANCH  36  37
ATOM     37  C   UNL     1       3.582   0.570  27.041  0.00  0.00    +0.214 A 
ATOM     38  C   UNL     1       2.363   0.989  26.293  0.00  0.00    +0.238 A 
ATOM     39  O   UNL     1       1.433   0.211  26.138  0.00  0.00    -0.283 OA
ATOM     40  C   UNL     1       2.291   2.409  25.812  0.00  0.00    +0.109 A 
ATOM     41  C   UNL     1       3.200   3.318  26.323  0.00  0.00    +0.147 A 
ATOM     42  C   UNL     1       3.154   4.685  26.011  0.00  0.00    +0.093 A 
ATOM     43  C   UNL     1       2.225   5.172  25.095  0.00  0.00    +0.131 A 
ATOM     44  C   UNL     1       1.314   4.265  24.543  0.00  0.00    +0.092 A 
ATOM     45  O   UNL     1       4.221   2.929  27.138  0.00  0.00    -0.451 OA
ATOM     46  C   UNL     1       1.366   2.899  24.886  0.00  0.00    +0.135 A 
ATOM     47  C   UNL     1       4.405   1.585  27.376  0.00  0.00    +0.181 A 
BRANCH  47  48
ATOM     48  C   UNL     1       5.591   1.369  28.183  0.00  0.00    +0.025 A 
ATOM     49  C   UNL     1       5.629   1.944  29.457  0.00  0.00    +0.015 A 
ATOM     50  C   UNL     1       6.798   1.902  30.198  0.00  0.00    +0.050 A 
ATOM     51  C   UNL     1       7.889   1.212  29.685  0.00  0.00    +0.158 A 
ATOM     52  C   UNL     1       7.836   0.597  28.437  0.00  0.00    +0.159 A 
ATOM     53  C   UNL     1       6.700   0.697  27.657  0.00  0.00    +0.060 A 
BRANCH  52  54
ATOM     54  O   UNL     1       8.857  -0.175  27.960  0.00  0.00    -0.503 OA
ATOM     55  H   UNL     1       8.929  -0.938  28.560  0.00  0.00    +0.292 HD
ENDBRANCH  52  54
BRANCH  51  56
ATOM     56  O   UNL     1       8.993   1.047  30.473  0.00  0.00    -0.503 OA
ATOM     57  H   UNL     1       8.727   1.441  31.329  0.00  0.00    +0.292 HD
ENDBRANCH  51  56
ENDBRANCH  47  48
BRANCH  46  58
ATOM     58  O   UNL     1       0.610   2.025  24.170  0.00  0.00    -0.506 OA
ATOM     59  H   UNL     1      -0.344   2.137  24.345  0.00  0.00    +0.292 HD
ENDBRANCH  46  58
BRANCH  43  60
ATOM     60  O   UNL     1       2.155   6.471  24.632  0.00  0.00    -0.461 OA
BRANCH  60  61
ATOM     61  C   UNL     1       3.139   6.873  23.657  0.00  0.00    +0.339 C 
ATOM     62  O   UNL     1       2.790   6.405  22.351  0.00  0.00    -0.334 OA
ATOM     63  C   UNL     1       2.793   4.972  22.274  0.00  0.00    +0.150 C 
ATOM     64  C   UNL     1       2.226   4.586  20.914  0.00  0.00    +0.041 C 
ATOM     65  C   UNL     1       4.214   4.428  22.478  0.00  0.00    +0.174 C 
ATOM     66  C   UNL     1       4.776   4.906  23.827  0.00  0.00    +0.180 C 
ATOM     67  C   UNL     1       4.586   6.420  23.998  0.00  0.00    +0.214 C 
BRANCH  67  68
ATOM     68  O   UNL     1       4.990   6.829  25.308  0.00  0.00    -0.383 OA
ATOM     69  H   UNL     1       4.395   7.540  25.602  0.00  0.00    +0.210 HD
ENDBRANCH  67  68
BRANCH  66  70
ATOM     70  O   UNL     1       6.175   4.562  23.907  0.00  0.00    -0.386 OA
ATOM     71  H   UNL     1       6.620   5.193  24.497  0.00  0.00    +0.210 HD
ENDBRANCH  66  70
BRANCH  65  72
ATOM     72  O   UNL     1       4.234   3.002  22.380  0.00  0.00    -0.387 OA
ATOM     73  H   UNL     1       4.500   2.758  21.476  0.00  0.00    +0.210 HD
ENDBRANCH  65  72
ENDBRANCH  60  61
ENDBRANCH  43  60
ENDBRANCH  36  37
ENDBRANCH   3  36
BRANCH   1  74
ATOM     74  C   UNL     1       5.565  -2.968  23.742  0.00  0.00    +0.197 C 
BRANCH  74  75
ATOM     75  O   UNL     1       6.098  -2.313  22.602  0.00  0.00    -0.346 OA
BRANCH  75  79
ATOM     76  C   UNL     1      10.214  -1.614  23.566  0.00  0.00    +0.041 C 
ATOM     77  C   UNL     1       9.019  -1.015  24.299  0.00  0.00    +0.149 C 
ATOM     78  O   UNL     1       7.815  -1.707  23.960  0.00  0.00    -0.343 OA
ATOM     79  C   UNL     1       7.196  -1.405  22.690  0.00  0.00    +0.282 C 
ATOM     80  C   UNL     1       6.890   0.113  22.627  0.00  0.00    +0.201 C 
ATOM     81  C   UNL     1       8.227   0.870  22.805  0.00  0.00    +0.179 C 
ATOM     82  C   UNL     1       8.902   0.497  24.126  0.00  0.00    +0.174 C 
BRANCH  80  83
ATOM     83  O   UNL     1       5.969   0.554  23.645  0.00  0.00    -0.384 OA
ATOM     84  H   UNL     1       6.353   1.366  24.003  0.00  0.00    +0.210 HD
ENDBRANCH  80  83
BRANCH  81  85
ATOM     85  O   UNL     1       8.023   2.295  22.819  0.00  0.00    -0.386 OA
ATOM     86  H   UNL     1       7.736   2.519  21.907  0.00  0.00    +0.210 HD
ENDBRANCH  81  85
BRANCH  82  87
ATOM     87  O   UNL     1       8.138   1.082  25.193  0.00  0.00    -0.387 OA
ATOM     88  H   UNL     1       8.706   1.804  25.560  0.00  0.00    +0.210 HD
ENDBRANCH  82  87
ENDBRANCH  75  79
ENDBRANCH  74  75
ENDBRANCH   1  74
TORSDOF 28
ENDMDL
