MODEL 1
REMARK VINA RESULT:      -8.4      0.000      0.000
REMARK  Name = 
REMARK  12 active torsions:
REMARK  status: ('A' for Active; 'I' for Inactive)
REMARK    1  A    between atoms: C_3  and  O_37
REMARK    2  A    between atoms: C_4  and  O_36
REMARK    3  A    between atoms: C_6  and  C_7
REMARK    4  A    between atoms: C_8  and  O_35
REMARK    5  A    between atoms: C_15  and  O_34
REMARK    6  A    between atoms: C_17  and  O_18
REMARK    7  A    between atoms: O_18  and  C_19
REMARK    8  A    between atoms: C_21  and  O_33
REMARK    9  A    between atoms: C_22  and  O_32
REMARK   10  A    between atoms: C_24  and  O_31
REMARK   11  A    between atoms: C_26  and  C_28
REMARK   12  A    between atoms: C_28  and  O_30
REMARK                            x       y       z     vdW  Elec       q    Type
REMARK                         _______ _______ _______ _____ _____    ______ ____
ROOT
ATOM      1  C   UNL     1       8.247  -0.104  23.990  0.00  0.00    +0.181 A 
ATOM      2  O   UNL     1       9.181  -1.064  24.374  0.00  0.00    -0.451 OA
ATOM      3  C   UNL     1       8.817  -2.389  24.391  0.00  0.00    +0.147 A 
ATOM      4  C   UNL     1       9.784  -3.269  24.878  0.00  0.00    +0.092 A 
ATOM      5  C   UNL     1       9.482  -4.624  24.953  0.00  0.00    +0.124 A 
ATOM      6  C   UNL     1       8.219  -5.104  24.614  0.00  0.00    +0.092 A 
ATOM      7  C   UNL     1       7.240  -4.236  24.114  0.00  0.00    +0.142 A 
ATOM      8  C   UNL     1       7.572  -2.868  23.952  0.00  0.00    +0.110 A 
ATOM      9  C   UNL     1       6.702  -1.883  23.280  0.00  0.00    +0.238 A 
ATOM     10  O   UNL     1       5.769  -2.246  22.576  0.00  0.00    -0.283 OA
ATOM     11  C   UNL     1       7.045  -0.433  23.467  0.00  0.00    +0.208 A 
ENDROOT
BRANCH   1  13
ATOM     12  C   UNL     1       8.162   2.218  24.989  0.00  0.00    +0.015 A 
ATOM     13  C   UNL     1       8.780   1.283  24.132  0.00  0.00    +0.025 A 
ATOM     14  C   UNL     1       9.837   1.740  23.320  0.00  0.00    +0.060 A 
ATOM     15  C   UNL     1      10.200   3.086  23.335  0.00  0.00    +0.159 A 
ATOM     16  C   UNL     1       9.544   4.001  24.147  0.00  0.00    +0.158 A 
ATOM     17  C   UNL     1       8.542   3.570  25.000  0.00  0.00    +0.050 A 
BRANCH  15  18
ATOM     18  O   UNL     1      11.199   3.524  22.502  0.00  0.00    -0.503 OA
ATOM     19  H   UNL     1      11.745   2.725  22.325  0.00  0.00    +0.292 HD
ENDBRANCH  15  18
BRANCH  16  20
ATOM     20  O   UNL     1       9.896   5.319  24.049  0.00  0.00    -0.503 OA
ATOM     21  H   UNL     1       9.863   5.712  24.940  0.00  0.00    +0.292 HD
ENDBRANCH  16  20
ENDBRANCH   1  13
BRANCH   5  22
ATOM     22  O   UNL     1      10.413  -5.537  25.350  0.00  0.00    -0.507 OA
ATOM     23  H   UNL     1       9.987  -6.407  25.441  0.00  0.00    +0.292 HD
ENDBRANCH   5  22
BRANCH  11  24
ATOM     24  O   UNL     1       6.090   0.490  23.072  0.00  0.00    -0.501 OA
ATOM     25  H   UNL     1       5.649   0.845  23.861  0.00  0.00    +0.292 HD
ENDBRANCH  11  24
BRANCH   7  26
ATOM     26  O   UNL     1       6.020  -4.765  23.727  0.00  0.00    -0.460 OA
BRANCH  26  27
ATOM     27  C   UNL     1       4.953  -4.544  24.691  0.00  0.00    +0.340 C 
ATOM     28  O   UNL     1       5.339  -4.822  26.055  0.00  0.00    -0.322 OA
ATOM     29  C   UNL     1       5.395  -6.221  26.411  0.00  0.00    +0.261 C 
ATOM     30  C   UNL     1       4.081  -6.960  26.130  0.00  0.00    +0.185 C 
ATOM     31  C   UNL     1       3.741  -6.816  24.646  0.00  0.00    +0.180 C 
ATOM     32  C   UNL     1       3.681  -5.325  24.274  0.00  0.00    +0.214 C 
BRANCH  29  33
ATOM     33  C   UNL     1       5.721  -6.363  27.902  0.00  0.00    +0.337 C 
ATOM     34  O   UNL     1       6.281  -5.508  28.576  0.00  0.00    -0.248 OA
BRANCH  33  35
ATOM     35  O   UNL     1       5.297  -7.541  28.415  0.00  0.00    -0.479 OA
ATOM     36  H   UNL     1       5.994  -8.215  28.257  0.00  0.00    +0.295 HD
ENDBRANCH  33  35
ENDBRANCH  29  33
BRANCH  30  37
ATOM     37  O   UNL     1       3.016  -6.385  26.904  0.00  0.00    -0.386 OA
ATOM     38  H   UNL     1       3.208  -5.435  27.006  0.00  0.00    +0.210 HD
ENDBRANCH  30  37
BRANCH  31  39
ATOM     39  O   UNL     1       4.657  -7.559  23.839  0.00  0.00    -0.386 OA
ATOM     40  H   UNL     1       5.402  -6.998  23.557  0.00  0.00    +0.210 HD
ENDBRANCH  31  39
BRANCH  32  41
ATOM     41  O   UNL     1       3.375  -5.155  22.888  0.00  0.00    -0.383 OA
ATOM     42  H   UNL     1       2.499  -5.567  22.730  0.00  0.00    +0.210 HD
ENDBRANCH  32  41
ENDBRANCH  26  27
ENDBRANCH   7  26
TORSDOF 12
ENDMDL
MODEL 2
REMARK VINA RESULT:      -8.1      1.336      2.819
REMARK  Name = 
REMARK  12 active torsions:
REMARK  status: ('A' for Active; 'I' for Inactive)
REMARK    1  A    between atoms: C_3  and  O_37
REMARK    2  A    between atoms: C_4  and  O_36
REMARK    3  A    between atoms: C_6  and  C_7
REMARK    4  A    between atoms: C_8  and  O_35
REMARK    5  A    between atoms: C_15  and  O_34
REMARK    6  A    between atoms: C_17  and  O_18
REMARK    7  A    between atoms: O_18  and  C_19
REMARK    8  A    between atoms: C_21  and  O_33
REMARK    9  A    between atoms: C_22  and  O_32
REMARK   10  A    between atoms: C_24  and  O_31
REMARK   11  A    between atoms: C_26  and  C_28
REMARK   12  A    between atoms: C_28  and  O_30
REMARK                            x       y       z     vdW  Elec       q    Type
REMARK                         _______ _______ _______ _____ _____    ______ ____
ROOT
ATOM      1  C   UNL     1       7.787  -0.496  24.433  0.00  0.00    +0.181 A 
ATOM      2  O   UNL     1       8.722  -1.528  24.483  0.00  0.00    -0.451 OA
ATOM      3  C   UNL     1       8.302  -2.805  24.771  0.00  0.00    +0.147 A 
ATOM      4  C   UNL     1       9.316  -3.755  24.892  0.00  0.00    +0.092 A 
ATOM      5  C   UNL     1       8.973  -5.064  25.210  0.00  0.00    +0.124 A 
ATOM      6  C   UNL     1       7.652  -5.425  25.469  0.00  0.00    +0.092 A 
ATOM      7  C   UNL     1       6.622  -4.486  25.341  0.00  0.00    +0.142 A 
ATOM      8  C   UNL     1       6.956  -3.171  24.931  0.00  0.00    +0.110 A 
ATOM      9  C   UNL     1       5.960  -2.136  24.592  0.00  0.00    +0.238 A 
ATOM     10  O   UNL     1       4.793  -2.434  24.373  0.00  0.00    -0.283 OA
ATOM     11  C   UNL     1       6.456  -0.723  24.486  0.00  0.00    +0.208 A 
ENDROOT
BRANCH   1  13
ATOM     12  C   UNL     1       8.113   1.941  25.025  0.00  0.00    +0.015 A 
ATOM     13  C   UNL     1       8.432   0.832  24.213  0.00  0.00    +0.025 A 
ATOM     14  C   UNL     1       9.281   1.052  23.111  0.00  0.00    +0.060 A 
ATOM     15  C   UNL     1       9.727   2.341  22.817  0.00  0.00    +0.159 A 
ATOM     16  C   UNL     1       9.359   3.427  23.598  0.00  0.00    +0.158 A 
ATOM     17  C   UNL     1       8.575   3.233  24.723  0.00  0.00    +0.050 A 
BRANCH  15  18
ATOM     18  O   UNL     1      10.513   2.546  21.710  0.00  0.00    -0.503 OA
ATOM     19  H   UNL     1      11.423   2.655  22.068  0.00  0.00    +0.292 HD
ENDBRANCH  15  18
BRANCH  16  20
ATOM     20  O   UNL     1       9.764   4.672  23.203  0.00  0.00    -0.503 OA
ATOM     21  H   UNL     1      10.102   5.147  23.984  0.00  0.00    +0.292 HD
ENDBRANCH  16  20
ENDBRANCH   1  13
BRANCH   5  22
ATOM     22  O   UNL     1       9.914  -6.049  25.269  0.00  0.00    -0.507 OA
ATOM     23  H   UNL     1       9.529  -6.831  25.701  0.00  0.00    +0.292 HD
ENDBRANCH   5  22
BRANCH  11  24
ATOM     24  O   UNL     1       5.495   0.274  24.438  0.00  0.00    -0.501 OA
ATOM     25  H   UNL     1       4.730  -0.049  23.935  0.00  0.00    +0.292 HD
ENDBRANCH  11  24
BRANCH   7  26
ATOM     26  O   UNL     1       5.316  -4.902  25.543  0.00  0.00    -0.460 OA
BRANCH  26  27
ATOM     27  C   UNL     1       5.060  -6.265  25.106  0.00  0.00    +0.340 C 
ATOM     28  O   UNL     1       4.178  -6.350  23.964  0.00  0.00    -0.322 OA
ATOM     29  C   UNL     1       2.775  -6.160  24.250  0.00  0.00    +0.261 C 
ATOM     30  C   UNL     1       2.251  -7.118  25.327  0.00  0.00    +0.185 C 
ATOM     31  C   UNL     1       3.071  -6.922  26.603  0.00  0.00    +0.180 C 
ATOM     32  C   UNL     1       4.563  -7.128  26.293  0.00  0.00    +0.214 C 
BRANCH  29  33
ATOM     33  C   UNL     1       1.954  -6.371  22.974  0.00  0.00    +0.337 C 
ATOM     34  O   UNL     1       1.089  -5.605  22.568  0.00  0.00    -0.248 OA
BRANCH  33  35
ATOM     35  O   UNL     1       2.304  -7.499  22.312  0.00  0.00    -0.479 OA
ATOM     36  H   UNL     1       3.206  -7.760  22.605  0.00  0.00    +0.295 HD
ENDBRANCH  33  35
ENDBRANCH  29  33
BRANCH  30  37
ATOM     37  O   UNL     1       2.397  -8.478  24.891  0.00  0.00    -0.386 OA
ATOM     38  H   UNL     1       3.148  -8.864  25.379  0.00  0.00    +0.210 HD
ENDBRANCH  30  37
BRANCH  31  39
ATOM     39  O   UNL     1       2.792  -5.653  27.198  0.00  0.00    -0.386 OA
ATOM     40  H   UNL     1       1.841  -5.449  27.147  0.00  0.00    +0.210 HD
ENDBRANCH  31  39
BRANCH  32  41
ATOM     41  O   UNL     1       5.360  -6.941  27.465  0.00  0.00    -0.383 OA
ATOM     42  H   UNL     1       5.706  -6.024  27.439  0.00  0.00    +0.210 HD
ENDBRANCH  32  41
ENDBRANCH  26  27
ENDBRANCH   7  26
TORSDOF 12
ENDMDL
MODEL 3
REMARK VINA RESULT:      -7.8      1.434      2.939
REMARK  Name = 
REMARK  12 active torsions:
REMARK  status: ('A' for Active; 'I' for Inactive)
REMARK    1  A    between atoms: C_3  and  O_37
REMARK    2  A    between atoms: C_4  and  O_36
REMARK    3  A    between atoms: C_6  and  C_7
REMARK    4  A    between atoms: C_8  and  O_35
REMARK    5  A    between atoms: C_15  and  O_34
REMARK    6  A    between atoms: C_17  and  O_18
REMARK    7  A    between atoms: O_18  and  C_19
REMARK    8  A    between atoms: C_21  and  O_33
REMARK    9  A    between atoms: C_22  and  O_32
REMARK   10  A    between atoms: C_24  and  O_31
REMARK   11  A    between atoms: C_26  and  C_28
REMARK   12  A    between atoms: C_28  and  O_30
REMARK                            x       y       z     vdW  Elec       q    Type
REMARK                         _______ _______ _______ _____ _____    ______ ____
ROOT
ATOM      1  C   UNL     1       7.917  -0.244  24.345  0.00  0.00    +0.181 A 
ATOM      2  O   UNL     1       8.870  -1.248  24.505  0.00  0.00    -0.451 OA
ATOM      3  C   UNL     1       8.482  -2.476  24.985  0.00  0.00    +0.147 A 
ATOM      4  C   UNL     1       9.515  -3.388  25.200  0.00  0.00    +0.092 A 
ATOM      5  C   UNL     1       9.205  -4.643  25.713  0.00  0.00    +0.124 A 
ATOM      6  C   UNL     1       7.901  -4.978  26.070  0.00  0.00    +0.092 A 
ATOM      7  C   UNL     1       6.852  -4.078  25.851  0.00  0.00    +0.142 A 
ATOM      8  C   UNL     1       7.149  -2.831  25.247  0.00  0.00    +0.110 A 
ATOM      9  C   UNL     1       6.124  -1.865  24.804  0.00  0.00    +0.238 A 
ATOM     10  O   UNL     1       4.955  -2.204  24.674  0.00  0.00    -0.283 OA
ATOM     11  C   UNL     1       6.593  -0.476  24.481  0.00  0.00    +0.208 A 
ENDROOT
BRANCH   1  13
ATOM     12  C   UNL     1       9.429   1.102  22.828  0.00  0.00    +0.015 A 
ATOM     13  C   UNL     1       8.532   1.047  23.916  0.00  0.00    +0.025 A 
ATOM     14  C   UNL     1       8.338   2.226  24.663  0.00  0.00    +0.060 A 
ATOM     15  C   UNL     1       9.064   3.376  24.356  0.00  0.00    +0.159 A 
ATOM     16  C   UNL     1       9.980   3.395  23.314  0.00  0.00    +0.158 A 
ATOM     17  C   UNL     1      10.147   2.270  22.525  0.00  0.00    +0.050 A 
BRANCH  15  18
ATOM     18  O   UNL     1       8.899   4.502  25.125  0.00  0.00    -0.503 OA
ATOM     19  H   UNL     1       9.782   4.658  25.531  0.00  0.00    +0.292 HD
ENDBRANCH  15  18
BRANCH  16  20
ATOM     20  O   UNL     1      10.716   4.531  23.123  0.00  0.00    -0.503 OA
ATOM     21  H   UNL     1      10.148   5.197  22.695  0.00  0.00    +0.292 HD
ENDBRANCH  16  20
ENDBRANCH   1  13
BRANCH   5  22
ATOM     22  O   UNL     1      10.164  -5.599  25.873  0.00  0.00    -0.507 OA
ATOM     23  H   UNL     1       9.758  -6.476  25.766  0.00  0.00    +0.292 HD
ENDBRANCH   5  22
BRANCH  11  24
ATOM     24  O   UNL     1       5.615   0.494  24.330  0.00  0.00    -0.501 OA
ATOM     25  H   UNL     1       4.859   0.271  24.898  0.00  0.00    +0.292 HD
ENDBRANCH  11  24
BRANCH   7  26
ATOM     26  O   UNL     1       5.561  -4.476  26.160  0.00  0.00    -0.460 OA
BRANCH  26  27
ATOM     27  C   UNL     1       5.193  -5.764  25.594  0.00  0.00    +0.340 C 
ATOM     28  O   UNL     1       5.733  -5.991  24.272  0.00  0.00    -0.322 OA
ATOM     29  C   UNL     1       5.053  -5.304  23.199  0.00  0.00    +0.261 C 
ATOM     30  C   UNL     1       3.550  -5.608  23.156  0.00  0.00    +0.185 C 
ATOM     31  C   UNL     1       2.928  -5.216  24.497  0.00  0.00    +0.180 C 
ATOM     32  C   UNL     1       3.655  -5.951  25.636  0.00  0.00    +0.214 C 
BRANCH  29  33
ATOM     33  C   UNL     1       5.667  -5.710  21.855  0.00  0.00    +0.337 C 
ATOM     34  O   UNL     1       5.729  -4.984  20.871  0.00  0.00    -0.248 OA
BRANCH  33  35
ATOM     35  O   UNL     1       6.166  -6.968  21.871  0.00  0.00    -0.479 OA
ATOM     36  H   UNL     1       5.440  -7.590  21.647  0.00  0.00    +0.295 HD
ENDBRANCH  33  35
ENDBRANCH  29  33
BRANCH  30  37
ATOM     37  O   UNL     1       3.335  -7.011  22.942  0.00  0.00    -0.386 OA
ATOM     38  H   UNL     1       4.115  -7.359  22.471  0.00  0.00    +0.210 HD
ENDBRANCH  30  37
BRANCH  31  39
ATOM     39  O   UNL     1       2.922  -3.796  24.660  0.00  0.00    -0.386 OA
ATOM     40  H   UNL     1       3.806  -3.425  24.486  0.00  0.00    +0.210 HD
ENDBRANCH  31  39
BRANCH  32  41
ATOM     41  O   UNL     1       3.104  -5.597  26.906  0.00  0.00    -0.383 OA
ATOM     42  H   UNL     1       2.304  -5.057  26.737  0.00  0.00    +0.210 HD
ENDBRANCH  32  41
ENDBRANCH  26  27
ENDBRANCH   7  26
TORSDOF 12
ENDMDL
MODEL 4
REMARK VINA RESULT:      -7.8      2.065      9.150
REMARK  Name = 
REMARK  12 active torsions:
REMARK  status: ('A' for Active; 'I' for Inactive)
REMARK    1  A    between atoms: C_3  and  O_37
REMARK    2  A    between atoms: C_4  and  O_36
REMARK    3  A    between atoms: C_6  and  C_7
REMARK    4  A    between atoms: C_8  and  O_35
REMARK    5  A    between atoms: C_15  and  O_34
REMARK    6  A    between atoms: C_17  and  O_18
REMARK    7  A    between atoms: O_18  and  C_19
REMARK    8  A    between atoms: C_21  and  O_33
REMARK    9  A    between atoms: C_22  and  O_32
REMARK   10  A    between atoms: C_24  and  O_31
REMARK   11  A    between atoms: C_26  and  C_28
REMARK   12  A    between atoms: C_28  and  O_30
REMARK                            x       y       z     vdW  Elec       q    Type
REMARK                         _______ _______ _______ _____ _____    ______ ____
ROOT
ATOM      1  C   UNL     1       5.710  -3.503  24.415  0.00  0.00    +0.181 A 
ATOM      2  O   UNL     1       6.930  -3.547  23.744  0.00  0.00    -0.451 OA
ATOM      3  C   UNL     1       7.545  -2.371  23.385  0.00  0.00    +0.147 A 
ATOM      4  C   UNL     1       8.713  -2.510  22.636  0.00  0.00    +0.092 A 
ATOM      5  C   UNL     1       9.378  -1.365  22.211  0.00  0.00    +0.124 A 
ATOM      6  C   UNL     1       8.867  -0.094  22.464  0.00  0.00    +0.092 A 
ATOM      7  C   UNL     1       7.701   0.063  23.223  0.00  0.00    +0.142 A 
ATOM      8  C   UNL     1       7.068  -1.097  23.735  0.00  0.00    +0.110 A 
ATOM      9  C   UNL     1       5.939  -1.069  24.686  0.00  0.00    +0.238 A 
ATOM     10  O   UNL     1       5.666  -0.049  25.307  0.00  0.00    -0.283 OA
ATOM     11  C   UNL     1       5.183  -2.350  24.883  0.00  0.00    +0.208 A 
ENDROOT
BRANCH   1  13
ATOM     12  C   UNL     1       4.239  -5.435  23.705  0.00  0.00    +0.015 A 
ATOM     13  C   UNL     1       5.142  -4.867  24.630  0.00  0.00    +0.025 A 
ATOM     14  C   UNL     1       5.387  -5.575  25.823  0.00  0.00    +0.060 A 
ATOM     15  C   UNL     1       4.703  -6.761  26.086  0.00  0.00    +0.159 A 
ATOM     16  C   UNL     1       3.780  -7.277  25.186  0.00  0.00    +0.158 A 
ATOM     17  C   UNL     1       3.563  -6.635  23.979  0.00  0.00    +0.050 A 
BRANCH  15  18
ATOM     18  O   UNL     1       4.917  -7.413  27.275  0.00  0.00    -0.503 OA
ATOM     19  H   UNL     1       4.809  -8.367  27.060  0.00  0.00    +0.292 HD
ENDBRANCH  15  18
BRANCH  16  20
ATOM     20  O   UNL     1       3.086  -8.399  25.547  0.00  0.00    -0.503 OA
ATOM     21  H   UNL     1       3.241  -8.564  26.494  0.00  0.00    +0.292 HD
ENDBRANCH  16  20
ENDBRANCH   1  13
BRANCH   5  22
ATOM     22  O   UNL     1      10.562  -1.441  21.540  0.00  0.00    -0.507 OA
ATOM     23  H   UNL     1      10.740  -0.586  21.112  0.00  0.00    +0.292 HD
ENDBRANCH   5  22
BRANCH  11  24
ATOM     24  O   UNL     1       3.975  -2.265  25.555  0.00  0.00    -0.501 OA
ATOM     25  H   UNL     1       3.927  -2.980  26.211  0.00  0.00    +0.292 HD
ENDBRANCH  11  24
BRANCH   7  26
ATOM     26  O   UNL     1       7.262   1.346  23.507  0.00  0.00    -0.460 OA
BRANCH  26  27
ATOM     27  C   UNL     1       7.531   2.306  22.448  0.00  0.00    +0.340 C 
ATOM     28  O   UNL     1       8.772   3.026  22.621  0.00  0.00    -0.322 OA
ATOM     29  C   UNL     1       8.741   4.087  23.600  0.00  0.00    +0.261 C 
ATOM     30  C   UNL     1       7.632   5.113  23.332  0.00  0.00    +0.185 C 
ATOM     31  C   UNL     1       6.285   4.388  23.311  0.00  0.00    +0.180 C 
ATOM     32  C   UNL     1       6.324   3.260  22.266  0.00  0.00    +0.214 C 
BRANCH  29  33
ATOM     33  C   UNL     1      10.086   4.822  23.609  0.00  0.00    +0.337 C 
ATOM     34  O   UNL     1      10.251   5.967  24.012  0.00  0.00    -0.248 OA
BRANCH  33  35
ATOM     35  O   UNL     1      11.099   4.056  23.140  0.00  0.00    -0.479 OA
ATOM     36  H   UNL     1      11.847   4.648  22.901  0.00  0.00    +0.295 HD
ENDBRANCH  33  35
ENDBRANCH  29  33
BRANCH  30  37
ATOM     37  O   UNL     1       7.836   5.740  22.057  0.00  0.00    -0.386 OA
ATOM     38  H   UNL     1       7.681   6.695  22.171  0.00  0.00    +0.210 HD
ENDBRANCH  30  37
BRANCH  31  39
ATOM     39  O   UNL     1       5.933   3.930  24.618  0.00  0.00    -0.386 OA
ATOM     40  H   UNL     1       6.208   3.004  24.745  0.00  0.00    +0.210 HD
ENDBRANCH  31  39
BRANCH  32  41
ATOM     41  O   UNL     1       5.081   2.555  22.229  0.00  0.00    -0.383 OA
ATOM     42  H   UNL     1       5.212   1.764  21.663  0.00  0.00    +0.210 HD
ENDBRANCH  32  41
ENDBRANCH  26  27
ENDBRANCH   7  26
TORSDOF 12
ENDMDL
MODEL 5
REMARK VINA RESULT:      -7.7      2.056      3.574
REMARK  Name = 
REMARK  12 active torsions:
REMARK  status: ('A' for Active; 'I' for Inactive)
REMARK    1  A    between atoms: C_3  and  O_37
REMARK    2  A    between atoms: C_4  and  O_36
REMARK    3  A    between atoms: C_6  and  C_7
REMARK    4  A    between atoms: C_8  and  O_35
REMARK    5  A    between atoms: C_15  and  O_34
REMARK    6  A    between atoms: C_17  and  O_18
REMARK    7  A    between atoms: O_18  and  C_19
REMARK    8  A    between atoms: C_21  and  O_33
REMARK    9  A    between atoms: C_22  and  O_32
REMARK   10  A    between atoms: C_24  and  O_31
REMARK   11  A    between atoms: C_26  and  C_28
REMARK   12  A    between atoms: C_28  and  O_30
REMARK                            x       y       z     vdW  Elec       q    Type
REMARK                         _______ _______ _______ _____ _____    ______ ____
ROOT
ATOM      1  C   UNL     1       8.415  -1.605  24.225  0.00  0.00    +0.181 A 
ATOM      2  O   UNL     1       7.940  -2.349  23.147  0.00  0.00    -0.451 OA
ATOM      3  C   UNL     1       7.294  -3.538  23.382  0.00  0.00    +0.147 A 
ATOM      4  C   UNL     1       6.936  -4.260  22.243  0.00  0.00    +0.092 A 
ATOM      5  C   UNL     1       6.303  -5.488  22.399  0.00  0.00    +0.124 A 
ATOM      6  C   UNL     1       6.079  -6.033  23.662  0.00  0.00    +0.092 A 
ATOM      7  C   UNL     1       6.423  -5.317  24.815  0.00  0.00    +0.142 A 
ATOM      8  C   UNL     1       6.988  -4.026  24.663  0.00  0.00    +0.110 A 
ATOM      9  C   UNL     1       7.236  -3.098  25.784  0.00  0.00    +0.238 A 
ATOM     10  O   UNL     1       6.710  -3.276  26.875  0.00  0.00    -0.283 OA
ATOM     11  C   UNL     1       8.118  -1.916  25.505  0.00  0.00    +0.208 A 
ENDROOT
BRANCH   1  13
ATOM     12  C   UNL     1      10.311   0.049  24.493  0.00  0.00    +0.015 A 
ATOM     13  C   UNL     1       9.180  -0.402  23.780  0.00  0.00    +0.025 A 
ATOM     14  C   UNL     1       8.722   0.394  22.711  0.00  0.00    +0.060 A 
ATOM     15  C   UNL     1       9.342   1.610  22.428  0.00  0.00    +0.159 A 
ATOM     16  C   UNL     1      10.422   2.061  23.175  0.00  0.00    +0.158 A 
ATOM     17  C   UNL     1      10.932   1.272  24.192  0.00  0.00    +0.050 A 
BRANCH  15  18
ATOM     18  O   UNL     1       8.852   2.397  21.415  0.00  0.00    -0.503 OA
ATOM     19  H   UNL     1       8.041   2.808  21.789  0.00  0.00    +0.292 HD
ENDBRANCH  15  18
BRANCH  16  20
ATOM     20  O   UNL     1      10.927   3.300  22.895  0.00  0.00    -0.503 OA
ATOM     21  H   UNL     1      11.009   3.794  23.731  0.00  0.00    +0.292 HD
ENDBRANCH  16  20
ENDBRANCH   1  13
BRANCH   5  22
ATOM     22  O   UNL     1       5.865  -6.201  21.324  0.00  0.00    -0.507 OA
ATOM     23  H   UNL     1       4.897  -6.288  21.372  0.00  0.00    +0.292 HD
ENDBRANCH   5  22
BRANCH  11  24
ATOM     24  O   UNL     1       8.569  -1.202  26.604  0.00  0.00    -0.501 OA
ATOM     25  H   UNL     1       9.377  -1.622  26.944  0.00  0.00    +0.292 HD
ENDBRANCH  11  24
BRANCH   7  26
ATOM     26  O   UNL     1       6.124  -5.867  26.051  0.00  0.00    -0.460 OA
BRANCH  26  27
ATOM     27  C   UNL     1       4.748  -6.321  26.173  0.00  0.00    +0.340 C 
ATOM     28  O   UNL     1       3.780  -5.385  25.648  0.00  0.00    -0.322 OA
ATOM     29  C   UNL     1       3.498  -4.247  26.491  0.00  0.00    +0.261 C 
ATOM     30  C   UNL     1       3.052  -4.648  27.903  0.00  0.00    +0.185 C 
ATOM     31  C   UNL     1       4.145  -5.507  28.541  0.00  0.00    +0.180 C 
ATOM     32  C   UNL     1       4.440  -6.717  27.640  0.00  0.00    +0.214 C 
BRANCH  29  33
ATOM     33  C   UNL     1       2.392  -3.396  25.858  0.00  0.00    +0.337 C 
ATOM     34  O   UNL     1       2.293  -2.181  25.981  0.00  0.00    -0.248 OA
BRANCH  33  35
ATOM     35  O   UNL     1       1.533  -4.131  25.115  0.00  0.00    -0.479 OA
ATOM     36  H   UNL     1       2.030  -4.512  24.357  0.00  0.00    +0.295 HD
ENDBRANCH  33  35
ENDBRANCH  29  33
BRANCH  30  37
ATOM     37  O   UNL     1       1.842  -5.417  27.839  0.00  0.00    -0.386 OA
ATOM     38  H   UNL     1       1.171  -4.872  27.389  0.00  0.00    +0.210 HD
ENDBRANCH  30  37
BRANCH  31  39
ATOM     39  O   UNL     1       5.307  -4.725  28.826  0.00  0.00    -0.386 OA
ATOM     40  H   UNL     1       5.361  -4.521  29.777  0.00  0.00    +0.210 HD
ENDBRANCH  31  39
BRANCH  32  41
ATOM     41  O   UNL     1       5.467  -7.537  28.202  0.00  0.00    -0.383 OA
ATOM     42  H   UNL     1       5.102  -7.944  29.016  0.00  0.00    +0.210 HD
ENDBRANCH  32  41
ENDBRANCH  26  27
ENDBRANCH   7  26
TORSDOF 12
ENDMDL
MODEL 6
REMARK VINA RESULT:      -7.5      2.337      3.589
REMARK  Name = 
REMARK  12 active torsions:
REMARK  status: ('A' for Active; 'I' for Inactive)
REMARK    1  A    between atoms: C_3  and  O_37
REMARK    2  A    between atoms: C_4  and  O_36
REMARK    3  A    between atoms: C_6  and  C_7
REMARK    4  A    between atoms: C_8  and  O_35
REMARK    5  A    between atoms: C_15  and  O_34
REMARK    6  A    between atoms: C_17  and  O_18
REMARK    7  A    between atoms: O_18  and  C_19
REMARK    8  A    between atoms: C_21  and  O_33
REMARK    9  A    between atoms: C_22  and  O_32
REMARK   10  A    between atoms: C_24  and  O_31
REMARK   11  A    between atoms: C_26  and  C_28
REMARK   12  A    between atoms: C_28  and  O_30
REMARK                            x       y       z     vdW  Elec       q    Type
REMARK                         _______ _______ _______ _____ _____    ______ ____
ROOT
ATOM      1  C   UNL     1       7.468  -1.459  23.807  0.00  0.00    +0.181 A 
ATOM      2  O   UNL     1       7.512  -2.416  22.795  0.00  0.00    -0.451 OA
ATOM      3  C   UNL     1       6.595  -3.441  22.797  0.00  0.00    +0.147 A 
ATOM      4  C   UNL     1       6.771  -4.402  21.802  0.00  0.00    +0.092 A 
ATOM      5  C   UNL     1       5.901  -5.486  21.756  0.00  0.00    +0.124 A 
ATOM      6  C   UNL     1       4.905  -5.658  22.715  0.00  0.00    +0.092 A 
ATOM      7  C   UNL     1       4.709  -4.696  23.714  0.00  0.00    +0.142 A 
ATOM      8  C   UNL     1       5.536  -3.546  23.713  0.00  0.00    +0.110 A 
ATOM      9  C   UNL     1       5.328  -2.380  24.596  0.00  0.00    +0.238 A 
ATOM     10  O   UNL     1       4.265  -2.218  25.182  0.00  0.00    -0.283 OA
ATOM     11  C   UNL     1       6.456  -1.396  24.700  0.00  0.00    +0.208 A 
ENDROOT
BRANCH   1  13
ATOM     12  C   UNL     1       9.494  -0.296  24.780  0.00  0.00    +0.015 A 
ATOM     13  C   UNL     1       8.597  -0.488  23.706  0.00  0.00    +0.025 A 
ATOM     14  C   UNL     1       8.727   0.359  22.588  0.00  0.00    +0.060 A 
ATOM     15  C   UNL     1       9.673   1.383  22.591  0.00  0.00    +0.159 A 
ATOM     16  C   UNL     1      10.511   1.588  23.679  0.00  0.00    +0.158 A 
ATOM     17  C   UNL     1      10.448   0.734  24.767  0.00  0.00    +0.050 A 
BRANCH  15  18
ATOM     18  O   UNL     1       9.753   2.231  21.514  0.00  0.00    -0.503 OA
ATOM     19  H   UNL     1       8.825   2.322  21.200  0.00  0.00    +0.292 HD
ENDBRANCH  15  18
BRANCH  16  20
ATOM     20  O   UNL     1      11.357   2.662  23.648  0.00  0.00    -0.503 OA
ATOM     21  H   UNL     1      11.003   3.313  23.015  0.00  0.00    +0.292 HD
ENDBRANCH  16  20
ENDBRANCH   1  13
BRANCH   5  22
ATOM     22  O   UNL     1       5.980  -6.416  20.762  0.00  0.00    -0.507 OA
ATOM     23  H   UNL     1       5.147  -6.916  20.728  0.00  0.00    +0.292 HD
ENDBRANCH   5  22
BRANCH  11  24
ATOM     24  O   UNL     1       6.375  -0.460  25.718  0.00  0.00    -0.501 OA
ATOM     25  H   UNL     1       5.488  -0.497  26.112  0.00  0.00    +0.292 HD
ENDBRANCH  11  24
BRANCH   7  26
ATOM     26  O   UNL     1       3.666  -4.873  24.608  0.00  0.00    -0.460 OA
BRANCH  26  27
ATOM     27  C   UNL     1       3.890  -5.944  25.566  0.00  0.00    +0.340 C 
ATOM     28  O   UNL     1       3.373  -7.223  25.135  0.00  0.00    -0.322 OA
ATOM     29  C   UNL     1       1.944  -7.387  25.258  0.00  0.00    +0.261 C 
ATOM     30  C   UNL     1       1.435  -7.126  26.681  0.00  0.00    +0.185 C 
ATOM     31  C   UNL     1       1.831  -5.708  27.094  0.00  0.00    +0.180 C 
ATOM     32  C   UNL     1       3.354  -5.539  26.963  0.00  0.00    +0.214 C 
BRANCH  29  33
ATOM     33  C   UNL     1       1.551  -8.814  24.859  0.00  0.00    +0.337 C 
ATOM     34  O   UNL     1       0.611  -9.097  24.127  0.00  0.00    -0.248 OA
BRANCH  33  35
ATOM     35  O   UNL     1       2.378  -9.747  25.385  0.00  0.00    -0.479 OA
ATOM     36  H   UNL     1       2.070  -9.953  26.295  0.00  0.00    +0.295 HD
ENDBRANCH  33  35
ENDBRANCH  29  33
BRANCH  30  37
ATOM     37  O   UNL     1       2.033  -8.055  27.598  0.00  0.00    -0.386 OA
ATOM     38  H   UNL     1       2.549  -7.540  28.244  0.00  0.00    +0.210 HD
ENDBRANCH  30  37
BRANCH  31  39
ATOM     39  O   UNL     1       1.093  -4.736  26.350  0.00  0.00    -0.386 OA
ATOM     40  H   UNL     1       1.596  -3.905  26.275  0.00  0.00    +0.210 HD
ENDBRANCH  31  39
BRANCH  32  41
ATOM     41  O   UNL     1       3.756  -4.219  27.331  0.00  0.00    -0.383 OA
ATOM     42  H   UNL     1       3.022  -3.823  27.847  0.00  0.00    +0.210 HD
ENDBRANCH  32  41
ENDBRANCH  26  27
ENDBRANCH   7  26
TORSDOF 12
ENDMDL
MODEL 7
REMARK VINA RESULT:      -7.5      1.999      8.609
REMARK  Name = 
REMARK  12 active torsions:
REMARK  status: ('A' for Active; 'I' for Inactive)
REMARK    1  A    between atoms: C_3  and  O_37
REMARK    2  A    between atoms: C_4  and  O_36
REMARK    3  A    between atoms: C_6  and  C_7
REMARK    4  A    between atoms: C_8  and  O_35
REMARK    5  A    between atoms: C_15  and  O_34
REMARK    6  A    between atoms: C_17  and  O_18
REMARK    7  A    between atoms: O_18  and  C_19
REMARK    8  A    between atoms: C_21  and  O_33
REMARK    9  A    between atoms: C_22  and  O_32
REMARK   10  A    between atoms: C_24  and  O_31
REMARK   11  A    between atoms: C_26  and  C_28
REMARK   12  A    between atoms: C_28  and  O_30
REMARK                            x       y       z     vdW  Elec       q    Type
REMARK                         _______ _______ _______ _____ _____    ______ ____
ROOT
ATOM      1  C   UNL     1       4.676  -4.529  25.920  0.00  0.00    +0.181 A 
ATOM      2  O   UNL     1       5.899  -5.163  26.127  0.00  0.00    -0.451 OA
ATOM      3  C   UNL     1       7.046  -4.596  25.624  0.00  0.00    +0.147 A 
ATOM      4  C   UNL     1       8.209  -5.346  25.798  0.00  0.00    +0.092 A 
ATOM      5  C   UNL     1       9.406  -4.853  25.290  0.00  0.00    +0.124 A 
ATOM      6  C   UNL     1       9.451  -3.665  24.564  0.00  0.00    +0.092 A 
ATOM      7  C   UNL     1       8.294  -2.896  24.389  0.00  0.00    +0.142 A 
ATOM      8  C   UNL     1       7.088  -3.349  24.980  0.00  0.00    +0.110 A 
ATOM      9  C   UNL     1       5.842  -2.558  25.021  0.00  0.00    +0.238 A 
ATOM     10  O   UNL     1       5.855  -1.354  24.798  0.00  0.00    -0.283 OA
ATOM     11  C   UNL     1       4.585  -3.289  25.390  0.00  0.00    +0.208 A 
ENDROOT
BRANCH   1  13
ATOM     12  C   UNL     1       2.864  -4.970  27.629  0.00  0.00    +0.015 A 
ATOM     13  C   UNL     1       3.533  -5.336  26.442  0.00  0.00    +0.025 A 
ATOM     14  C   UNL     1       3.171  -6.555  25.836  0.00  0.00    +0.060 A 
ATOM     15  C   UNL     1       2.226  -7.384  26.442  0.00  0.00    +0.159 A 
ATOM     16  C   UNL     1       1.618  -7.030  27.638  0.00  0.00    +0.158 A 
ATOM     17  C   UNL     1       1.909  -5.810  28.225  0.00  0.00    +0.050 A 
BRANCH  15  18
ATOM     18  O   UNL     1       1.921  -8.591  25.865  0.00  0.00    -0.503 OA
ATOM     19  H   UNL     1       2.733  -9.134  25.978  0.00  0.00    +0.292 HD
ENDBRANCH  15  18
BRANCH  16  20
ATOM     20  O   UNL     1       0.764  -7.928  28.218  0.00  0.00    -0.503 OA
ATOM     21  H   UNL     1      -0.011  -7.442  28.553  0.00  0.00    +0.292 HD
ENDBRANCH  16  20
ENDBRANCH   1  13
BRANCH   5  22
ATOM     22  O   UNL     1      10.585  -5.506  25.495  0.00  0.00    -0.507 OA
ATOM     23  H   UNL     1      11.088  -5.044  26.188  0.00  0.00    +0.292 HD
ENDBRANCH   5  22
BRANCH  11  24
ATOM     24  O   UNL     1       3.389  -2.625  25.169  0.00  0.00    -0.501 OA
ATOM     25  H   UNL     1       3.178  -2.660  24.222  0.00  0.00    +0.292 HD
ENDBRANCH  11  24
BRANCH   7  26
ATOM     26  O   UNL     1       8.395  -1.690  23.716  0.00  0.00    -0.460 OA
BRANCH  26  27
ATOM     27  C   UNL     1       9.538  -0.886  24.120  0.00  0.00    +0.340 C 
ATOM     28  O   UNL     1       9.182   0.264  24.920  0.00  0.00    -0.322 OA
ATOM     29  C   UNL     1       8.633   1.381  24.189  0.00  0.00    +0.261 C 
ATOM     30  C   UNL     1       9.547   1.858  23.053  0.00  0.00    +0.185 C 
ATOM     31  C   UNL     1       9.800   0.689  22.100  0.00  0.00    +0.180 C 
ATOM     32  C   UNL     1      10.387  -0.497  22.883  0.00  0.00    +0.214 C 
BRANCH  29  33
ATOM     33  C   UNL     1       8.394   2.557  25.143  0.00  0.00    +0.337 C 
ATOM     34  O   UNL     1       8.650   3.726  24.884  0.00  0.00    -0.248 OA
BRANCH  33  35
ATOM     35  O   UNL     1       7.836   2.170  26.314  0.00  0.00    -0.479 OA
ATOM     36  H   UNL     1       8.042   2.850  26.992  0.00  0.00    +0.295 HD
ENDBRANCH  33  35
ENDBRANCH  29  33
BRANCH  30  37
ATOM     37  O   UNL     1      10.806   2.299  23.585  0.00  0.00    -0.386 OA
ATOM     38  H   UNL     1      11.507   1.961  22.998  0.00  0.00    +0.210 HD
ENDBRANCH  30  37
BRANCH  31  39
ATOM     39  O   UNL     1       8.612   0.352  21.380  0.00  0.00    -0.386 OA
ATOM     40  H   UNL     1       7.868   0.916  21.658  0.00  0.00    +0.210 HD
ENDBRANCH  31  39
BRANCH  32  41
ATOM     41  O   UNL     1      10.625  -1.612  22.022  0.00  0.00    -0.383 OA
ATOM     42  H   UNL     1      10.129  -2.374  22.387  0.00  0.00    +0.210 HD
ENDBRANCH  32  41
ENDBRANCH  26  27
ENDBRANCH   7  26
TORSDOF 12
ENDMDL
MODEL 8
REMARK VINA RESULT:      -7.4      1.397      2.757
REMARK  Name = 
REMARK  12 active torsions:
REMARK  status: ('A' for Active; 'I' for Inactive)
REMARK    1  A    between atoms: C_3  and  O_37
REMARK    2  A    between atoms: C_4  and  O_36
REMARK    3  A    between atoms: C_6  and  C_7
REMARK    4  A    between atoms: C_8  and  O_35
REMARK    5  A    between atoms: C_15  and  O_34
REMARK    6  A    between atoms: C_17  and  O_18
REMARK    7  A    between atoms: O_18  and  C_19
REMARK    8  A    between atoms: C_21  and  O_33
REMARK    9  A    between atoms: C_22  and  O_32
REMARK   10  A    between atoms: C_24  and  O_31
REMARK   11  A    between atoms: C_26  and  C_28
REMARK   12  A    between atoms: C_28  and  O_30
REMARK                            x       y       z     vdW  Elec       q    Type
REMARK                         _______ _______ _______ _____ _____    ______ ____
ROOT
ATOM      1  C   UNL     1       8.004  -0.549  23.966  0.00  0.00    +0.181 A 
ATOM      2  O   UNL     1       8.910  -1.591  24.149  0.00  0.00    -0.451 OA
ATOM      3  C   UNL     1       8.454  -2.812  24.586  0.00  0.00    +0.147 A 
ATOM      4  C   UNL     1       9.441  -3.767  24.831  0.00  0.00    +0.092 A 
ATOM      5  C   UNL     1       9.060  -5.019  25.302  0.00  0.00    +0.124 A 
ATOM      6  C   UNL     1       7.729  -5.311  25.591  0.00  0.00    +0.092 A 
ATOM      7  C   UNL     1       6.726  -4.367  25.341  0.00  0.00    +0.142 A 
ATOM      8  C   UNL     1       7.097  -3.121  24.777  0.00  0.00    +0.110 A 
ATOM      9  C   UNL     1       6.132  -2.108  24.306  0.00  0.00    +0.238 A 
ATOM     10  O   UNL     1       4.958  -2.401  24.115  0.00  0.00    -0.283 OA
ATOM     11  C   UNL     1       6.667  -0.733  24.035  0.00  0.00    +0.208 A 
ENDROOT
BRANCH   1  13
ATOM     12  C   UNL     1       9.656   0.761  22.568  0.00  0.00    +0.015 A 
ATOM     13  C   UNL     1       8.687   0.725  23.593  0.00  0.00    +0.025 A 
ATOM     14  C   UNL     1       8.479   1.903  24.337  0.00  0.00    +0.060 A 
ATOM     15  C   UNL     1       9.260   3.033  24.092  0.00  0.00    +0.159 A 
ATOM     16  C   UNL     1      10.244   3.031  23.114  0.00  0.00    +0.158 A 
ATOM     17  C   UNL     1      10.430   1.908  22.326  0.00  0.00    +0.050 A 
BRANCH  15  18
ATOM     18  O   UNL     1       9.079   4.156  24.860  0.00  0.00    -0.503 OA
ATOM     19  H   UNL     1       8.542   3.851  25.626  0.00  0.00    +0.292 HD
ENDBRANCH  15  18
BRANCH  16  20
ATOM     20  O   UNL     1      11.027   4.145  22.985  0.00  0.00    -0.503 OA
ATOM     21  H   UNL     1      11.659   3.993  22.259  0.00  0.00    +0.292 HD
ENDBRANCH  16  20
ENDBRANCH   1  13
BRANCH   5  22
ATOM     22  O   UNL     1       9.974  -6.013  25.488  0.00  0.00    -0.507 OA
ATOM     23  H   UNL     1       9.545  -6.757  25.946  0.00  0.00    +0.292 HD
ENDBRANCH   5  22
BRANCH  11  24
ATOM     24  O   UNL     1       5.734   0.276  23.858  0.00  0.00    -0.501 OA
ATOM     25  H   UNL     1       6.199   1.102  23.644  0.00  0.00    +0.292 HD
ENDBRANCH  11  24
BRANCH   7  26
ATOM     26  O   UNL     1       5.408  -4.721  25.581  0.00  0.00    -0.460 OA
BRANCH  26  27
ATOM     27  C   UNL     1       5.260  -5.880  26.447  0.00  0.00    +0.340 C 
ATOM     28  O   UNL     1       4.442  -6.927  25.878  0.00  0.00    -0.322 OA
ATOM     29  C   UNL     1       3.018  -6.691  25.919  0.00  0.00    +0.261 C 
ATOM     30  C   UNL     1       2.502  -6.403  27.335  0.00  0.00    +0.185 C 
ATOM     31  C   UNL     1       3.243  -5.188  27.892  0.00  0.00    +0.180 C 
ATOM     32  C   UNL     1       4.759  -5.444  27.848  0.00  0.00    +0.214 C 
BRANCH  29  33
ATOM     33  C   UNL     1       2.275  -7.917  25.374  0.00  0.00    +0.337 C 
ATOM     34  O   UNL     1       2.692  -8.642  24.480  0.00  0.00    -0.248 OA
BRANCH  33  35
ATOM     35  O   UNL     1       1.101  -8.137  26.010  0.00  0.00    -0.479 OA
ATOM     36  H   UNL     1       0.928  -7.376  26.608  0.00  0.00    +0.295 HD
ENDBRANCH  33  35
ENDBRANCH  29  33
BRANCH  30  37
ATOM     37  O   UNL     1       2.754  -7.528  28.191  0.00  0.00    -0.386 OA
ATOM     38  H   UNL     1       2.529  -7.261  29.101  0.00  0.00    +0.210 HD
ENDBRANCH  30  37
BRANCH  31  39
ATOM     39  O   UNL     1       2.857  -3.996  27.205  0.00  0.00    -0.386 OA
ATOM     40  H   UNL     1       2.117  -4.172  26.597  0.00  0.00    +0.210 HD
ENDBRANCH  31  39
BRANCH  32  41
ATOM     41  O   UNL     1       5.483  -4.321  28.353  0.00  0.00    -0.383 OA
ATOM     42  H   UNL     1       6.124  -4.659  29.013  0.00  0.00    +0.210 HD
ENDBRANCH  32  41
ENDBRANCH  26  27
ENDBRANCH   7  26
TORSDOF 12
ENDMDL
MODEL 9
REMARK VINA RESULT:      -7.3      2.320      8.702
REMARK  Name = 
REMARK  12 active torsions:
REMARK  status: ('A' for Active; 'I' for Inactive)
REMARK    1  A    between atoms: C_3  and  O_37
REMARK    2  A    between atoms: C_4  and  O_36
REMARK    3  A    between atoms: C_6  and  C_7
REMARK    4  A    between atoms: C_8  and  O_35
REMARK    5  A    between atoms: C_15  and  O_34
REMARK    6  A    between atoms: C_17  and  O_18
REMARK    7  A    between atoms: O_18  and  C_19
REMARK    8  A    between atoms: C_21  and  O_33
REMARK    9  A    between atoms: C_22  and  O_32
REMARK   10  A    between atoms: C_24  and  O_31
REMARK   11  A    between atoms: C_26  and  C_28
REMARK   12  A    between atoms: C_28  and  O_30
REMARK                            x       y       z     vdW  Elec       q    Type
REMARK                         _______ _______ _______ _____ _____    ______ ____
ROOT
ATOM      1  C   UNL     1       5.719  -3.517  24.401  0.00  0.00    +0.181 A 
ATOM      2  O   UNL     1       6.930  -3.574  23.715  0.00  0.00    -0.451 OA
ATOM      3  C   UNL     1       7.559  -2.405  23.358  0.00  0.00    +0.147 A 
ATOM      4  C   UNL     1       8.716  -2.556  22.594  0.00  0.00    +0.092 A 
ATOM      5  C   UNL     1       9.393  -1.418  22.170  0.00  0.00    +0.124 A 
ATOM      6  C   UNL     1       8.905  -0.142  22.440  0.00  0.00    +0.092 A 
ATOM      7  C   UNL     1       7.751   0.028  23.215  0.00  0.00    +0.142 A 
ATOM      8  C   UNL     1       7.106  -1.127  23.724  0.00  0.00    +0.110 A 
ATOM      9  C   UNL     1       5.989  -1.089  24.689  0.00  0.00    +0.238 A 
ATOM     10  O   UNL     1       5.740  -0.071  25.322  0.00  0.00    -0.283 OA
ATOM     11  C   UNL     1       5.215  -2.360  24.884  0.00  0.00    +0.208 A 
ENDROOT
BRANCH   1  13
ATOM     12  C   UNL     1       4.188  -5.408  23.707  0.00  0.00    +0.015 A 
ATOM     13  C   UNL     1       5.131  -4.873  24.611  0.00  0.00    +0.025 A 
ATOM     14  C   UNL     1       5.402  -5.607  25.783  0.00  0.00    +0.060 A 
ATOM     15  C   UNL     1       4.704  -6.785  26.048  0.00  0.00    +0.159 A 
ATOM     16  C   UNL     1       3.742  -7.267  25.171  0.00  0.00    +0.158 A 
ATOM     17  C   UNL     1       3.498  -6.600  23.983  0.00  0.00    +0.050 A 
BRANCH  15  18
ATOM     18  O   UNL     1       4.944  -7.461  27.218  0.00  0.00    -0.503 OA
ATOM     19  H   UNL     1       5.142  -6.757  27.877  0.00  0.00    +0.292 HD
ENDBRANCH  15  18
BRANCH  16  20
ATOM     20  O   UNL     1       3.039  -8.382  25.535  0.00  0.00    -0.503 OA
ATOM     21  H   UNL     1       3.459  -9.157  25.121  0.00  0.00    +0.292 HD
ENDBRANCH  16  20
ENDBRANCH   1  13
BRANCH   5  22
ATOM     22  O   UNL     1      10.568  -1.507  21.485  0.00  0.00    -0.507 OA
ATOM     23  H   UNL     1      10.387  -1.430  20.532  0.00  0.00    +0.292 HD
ENDBRANCH   5  22
BRANCH  11  24
ATOM     24  O   UNL     1       4.017  -2.261  25.572  0.00  0.00    -0.501 OA
ATOM     25  H   UNL     1       3.665  -1.362  25.466  0.00  0.00    +0.292 HD
ENDBRANCH  11  24
BRANCH   7  26
ATOM     26  O   UNL     1       7.337   1.315  23.515  0.00  0.00    -0.460 OA
BRANCH  26  27
ATOM     27  C   UNL     1       8.324   2.094  24.245  0.00  0.00    +0.340 C 
ATOM     28  O   UNL     1       8.031   2.224  25.655  0.00  0.00    -0.322 OA
ATOM     29  C   UNL     1       7.002   3.181  25.988  0.00  0.00    +0.261 C 
ATOM     30  C   UNL     1       7.290   4.582  25.432  0.00  0.00    +0.185 C 
ATOM     31  C   UNL     1       7.439   4.489  23.913  0.00  0.00    +0.180 C 
ATOM     32  C   UNL     1       8.536   3.470  23.564  0.00  0.00    +0.214 C 
BRANCH  29  33
ATOM     33  C   UNL     1       6.865   3.284  27.511  0.00  0.00    +0.337 C 
ATOM     34  O   UNL     1       7.192   2.406  28.300  0.00  0.00    -0.248 OA
BRANCH  33  35
ATOM     35  O   UNL     1       6.360   4.475  27.907  0.00  0.00    -0.479 OA
ATOM     36  H   UNL     1       6.965   5.185  27.595  0.00  0.00    +0.295 HD
ENDBRANCH  33  35
ENDBRANCH  29  33
BRANCH  30  37
ATOM     37  O   UNL     1       8.514   5.090  25.984  0.00  0.00    -0.386 OA
ATOM     38  H   UNL     1       9.231   4.867  25.362  0.00  0.00    +0.210 HD
ENDBRANCH  30  37
BRANCH  31  39
ATOM     39  O   UNL     1       6.184   4.196  23.295  0.00  0.00    -0.386 OA
ATOM     40  H   UNL     1       6.025   4.787  22.537  0.00  0.00    +0.210 HD
ENDBRANCH  31  39
BRANCH  32  41
ATOM     41  O   UNL     1       8.693   3.351  22.149  0.00  0.00    -0.383 OA
ATOM     42  H   UNL     1       9.648   3.213  21.972  0.00  0.00    +0.210 HD
ENDBRANCH  32  41
ENDBRANCH  26  27
ENDBRANCH   7  26
TORSDOF 12
ENDMDL
