MODEL 1
REMARK VINA RESULT:      -7.0      0.000      0.000
REMARK  Name = 
REMARK  8 active torsions:
REMARK  status: ('A' for Active; 'I' for Inactive)
REMARK    1  A    between atoms: C_1  and  O_2
REMARK    2  A    between atoms: O_2  and  C_3
REMARK    3  A    between atoms: C_4  and  O_24
REMARK    4  A    between atoms: C_7  and  C_9
REMARK    5  A    between atoms: C_10  and  O_22
REMARK    6  A    between atoms: C_14  and  O_21
REMARK    7  A    between atoms: C_16  and  O_20
REMARK    8  A    between atoms: O_22  and  C_23
REMARK                            x       y       z     vdW  Elec       q    Type
REMARK                         _______ _______ _______ _____ _____    ______ ____
ROOT
ATOM      1  C   UNL     1       7.928  -2.163  24.163  0.00  0.00    +0.181 A 
ATOM      2  O   UNL     1       7.153  -2.881  23.249  0.00  0.00    -0.451 OA
ATOM      3  C   UNL     1       6.500  -4.014  23.668  0.00  0.00    +0.147 A 
ATOM      4  C   UNL     1       6.648  -4.532  24.947  0.00  0.00    +0.109 A 
ATOM      5  C   UNL     1       5.948  -5.684  25.333  0.00  0.00    +0.135 A 
ATOM      6  C   UNL     1       5.091  -6.320  24.440  0.00  0.00    +0.091 A 
ATOM      7  C   UNL     1       4.953  -5.800  23.158  0.00  0.00    +0.124 A 
ATOM      8  C   UNL     1       7.536  -3.839  25.876  0.00  0.00    +0.238 A 
ATOM      9  O   UNL     1       7.731  -4.324  26.989  0.00  0.00    -0.283 OA
ATOM     10  C   UNL     1       5.653  -4.658  22.762  0.00  0.00    +0.092 A 
ATOM     11  C   UNL     1       8.148  -2.548  25.448  0.00  0.00    +0.211 A 
ENDROOT
BRANCH   1  14
ATOM     12  C   UNL     1       8.218   1.080  22.225  0.00  0.00    +0.162 A 
ATOM     13  C   UNL     1       7.659   0.008  22.927  0.00  0.00    +0.061 A 
ATOM     14  C   UNL     1       8.492  -0.942  23.552  0.00  0.00    +0.025 A 
ATOM     15  C   UNL     1       9.882  -0.748  23.548  0.00  0.00    +0.015 A 
ATOM     16  C   UNL     1      10.443   0.335  22.873  0.00  0.00    +0.050 A 
ATOM     17  C   UNL     1       9.612   1.221  22.200  0.00  0.00    +0.158 A 
BRANCH  12  19
ATOM     18  C   UNL     1       6.788   2.989  22.235  0.00  0.00    +0.277 C 
ATOM     19  O   UNL     1       7.544   2.032  21.504  0.00  0.00    -0.491 OA
ENDBRANCH  12  19
BRANCH  17  20
ATOM     20  O   UNL     1      10.193   2.233  21.485  0.00  0.00    -0.503 OA
ATOM     21  H   UNL     1      10.606   1.796  20.715  0.00  0.00    +0.292 HD
ENDBRANCH  17  20
ENDBRANCH   1  14
BRANCH   5  22
ATOM     22  O   UNL     1       6.051  -6.239  26.580  0.00  0.00    -0.506 OA
ATOM     23  H   UNL     1       6.788  -5.787  27.054  0.00  0.00    +0.292 HD
ENDBRANCH   5  22
BRANCH   7  24
ATOM     24  O   UNL     1       4.124  -6.392  22.250  0.00  0.00    -0.507 OA
ATOM     25  H   UNL     1       3.412  -6.851  22.724  0.00  0.00    +0.292 HD
ENDBRANCH   7  24
BRANCH  11  26
ATOM     26  O   UNL     1       8.867  -1.943  26.450  0.00  0.00    -0.488 OA
ATOM     27  C   UNL     1       8.437  -0.767  27.108  0.00  0.00    +0.277 C 
ENDBRANCH  11  26
TORSDOF 6
ENDMDL
MODEL 2
REMARK VINA RESULT:      -6.8      2.119      2.698
REMARK  Name = 
REMARK  8 active torsions:
REMARK  status: ('A' for Active; 'I' for Inactive)
REMARK    1  A    between atoms: C_1  and  O_2
REMARK    2  A    between atoms: O_2  and  C_3
REMARK    3  A    between atoms: C_4  and  O_24
REMARK    4  A    between atoms: C_7  and  C_9
REMARK    5  A    between atoms: C_10  and  O_22
REMARK    6  A    between atoms: C_14  and  O_21
REMARK    7  A    between atoms: C_16  and  O_20
REMARK    8  A    between atoms: O_22  and  C_23
REMARK                            x       y       z     vdW  Elec       q    Type
REMARK                         _______ _______ _______ _____ _____    ______ ____
ROOT
ATOM      1  C   UNL     1       7.816  -0.844  23.068  0.00  0.00    +0.181 A 
ATOM      2  O   UNL     1       6.747  -1.620  22.615  0.00  0.00    -0.451 OA
ATOM      3  C   UNL     1       6.786  -2.981  22.791  0.00  0.00    +0.147 A 
ATOM      4  C   UNL     1       7.888  -3.635  23.323  0.00  0.00    +0.109 A 
ATOM      5  C   UNL     1       7.873  -5.027  23.497  0.00  0.00    +0.135 A 
ATOM      6  C   UNL     1       6.751  -5.769  23.143  0.00  0.00    +0.091 A 
ATOM      7  C   UNL     1       5.652  -5.108  22.605  0.00  0.00    +0.124 A 
ATOM      8  C   UNL     1       9.048  -2.837  23.706  0.00  0.00    +0.238 A 
ATOM      9  O   UNL     1      10.058  -3.408  24.114  0.00  0.00    -0.283 OA
ATOM     10  C   UNL     1       5.661  -3.724  22.419  0.00  0.00    +0.092 A 
ATOM     11  C   UNL     1       8.951  -1.351  23.618  0.00  0.00    +0.211 A 
ENDROOT
BRANCH   1  14
ATOM     12  C   UNL     1       6.286   2.613  23.328  0.00  0.00    +0.162 A 
ATOM     13  C   UNL     1       6.619   1.291  23.637  0.00  0.00    +0.061 A 
ATOM     14  C   UNL     1       7.566   0.596  22.857  0.00  0.00    +0.025 A 
ATOM     15  C   UNL     1       8.244   1.275  21.832  0.00  0.00    +0.015 A 
ATOM     16  C   UNL     1       7.935   2.603  21.538  0.00  0.00    +0.050 A 
ATOM     17  C   UNL     1       6.947   3.248  22.269  0.00  0.00    +0.158 A 
BRANCH  12  19
ATOM     18  C   UNL     1       3.974   3.003  23.765  0.00  0.00    +0.277 C 
ATOM     19  O   UNL     1       5.332   3.385  23.940  0.00  0.00    -0.491 OA
ENDBRANCH  12  19
BRANCH  17  20
ATOM     20  O   UNL     1       6.613   4.527  21.911  0.00  0.00    -0.503 OA
ATOM     21  H   UNL     1       6.760   5.062  22.714  0.00  0.00    +0.292 HD
ENDBRANCH  17  20
ENDBRANCH   1  14
BRANCH   5  22
ATOM     22  O   UNL     1       8.928  -5.727  24.019  0.00  0.00    -0.506 OA
ATOM     23  H   UNL     1       9.456  -5.108  24.576  0.00  0.00    +0.292 HD
ENDBRANCH   5  22
BRANCH   7  24
ATOM     24  O   UNL     1       4.531  -5.797  22.243  0.00  0.00    -0.507 OA
ATOM     25  H   UNL     1       4.032  -6.033  23.043  0.00  0.00    +0.292 HD
ENDBRANCH   7  24
BRANCH  11  26
ATOM     26  O   UNL     1      10.064  -0.716  24.114  0.00  0.00    -0.488 OA
ATOM     27  C   UNL     1      10.040   0.090  25.276  0.00  0.00    +0.277 C 
ENDBRANCH  11  26
TORSDOF 6
ENDMDL
MODEL 3
REMARK VINA RESULT:      -6.7      1.888      7.111
REMARK  Name = 
REMARK  8 active torsions:
REMARK  status: ('A' for Active; 'I' for Inactive)
REMARK    1  A    between atoms: C_1  and  O_2
REMARK    2  A    between atoms: O_2  and  C_3
REMARK    3  A    between atoms: C_4  and  O_24
REMARK    4  A    between atoms: C_7  and  C_9
REMARK    5  A    between atoms: C_10  and  O_22
REMARK    6  A    between atoms: C_14  and  O_21
REMARK    7  A    between atoms: C_16  and  O_20
REMARK    8  A    between atoms: O_22  and  C_23
REMARK                            x       y       z     vdW  Elec       q    Type
REMARK                         _______ _______ _______ _____ _____    ______ ____
ROOT
ATOM      1  C   UNL     1       7.016  -3.730  24.194  0.00  0.00    +0.181 A 
ATOM      2  O   UNL     1       6.373  -2.510  23.975  0.00  0.00    -0.451 OA
ATOM      3  C   UNL     1       7.109  -1.430  23.553  0.00  0.00    +0.147 A 
ATOM      4  C   UNL     1       8.489  -1.474  23.416  0.00  0.00    +0.109 A 
ATOM      5  C   UNL     1       9.194  -0.348  22.965  0.00  0.00    +0.135 A 
ATOM      6  C   UNL     1       8.519   0.824  22.644  0.00  0.00    +0.091 A 
ATOM      7  C   UNL     1       7.137   0.864  22.790  0.00  0.00    +0.124 A 
ATOM      8  C   UNL     1       9.177  -2.720  23.739  0.00  0.00    +0.238 A 
ATOM      9  O   UNL     1      10.406  -2.753  23.689  0.00  0.00    -0.283 OA
ATOM     10  C   UNL     1       6.427  -0.249  23.246  0.00  0.00    +0.092 A 
ATOM     11  C   UNL     1       8.359  -3.917  24.085  0.00  0.00    +0.211 A 
ENDROOT
BRANCH   1  14
ATOM     12  C   UNL     1       5.245  -6.430  26.175  0.00  0.00    +0.162 A 
ATOM     13  C   UNL     1       6.055  -5.331  25.874  0.00  0.00    +0.061 A 
ATOM     14  C   UNL     1       6.057  -4.787  24.574  0.00  0.00    +0.025 A 
ATOM     15  C   UNL     1       5.169  -5.294  23.613  0.00  0.00    +0.015 A 
ATOM     16  C   UNL     1       4.339  -6.373  23.917  0.00  0.00    +0.050 A 
ATOM     17  C   UNL     1       4.403  -6.944  25.181  0.00  0.00    +0.158 A 
BRANCH  12  19
ATOM     18  C   UNL     1       5.578  -6.409  28.537  0.00  0.00    +0.277 C 
ATOM     19  O   UNL     1       5.195  -7.114  27.363  0.00  0.00    -0.491 OA
ENDBRANCH  12  19
BRANCH  17  20
ATOM     20  O   UNL     1       3.631  -8.047  25.429  0.00  0.00    -0.503 OA
ATOM     21  H   UNL     1       4.249  -8.803  25.391  0.00  0.00    +0.292 HD
ENDBRANCH  17  20
ENDBRANCH   1  14
BRANCH   5  22
ATOM     22  O   UNL     1      10.555  -0.332  22.808  0.00  0.00    -0.506 OA
ATOM     23  H   UNL     1      10.826  -1.198  22.421  0.00  0.00    +0.292 HD
ENDBRANCH   5  22
BRANCH   7  24
ATOM     24  O   UNL     1       6.435   1.994  22.487  0.00  0.00    -0.507 OA
ATOM     25  H   UNL     1       6.058   2.361  23.303  0.00  0.00    +0.292 HD
ENDBRANCH   7  24
BRANCH  11  26
ATOM     26  O   UNL     1       9.118  -5.049  24.255  0.00  0.00    -0.488 OA
ATOM     27  C   UNL     1       9.709  -5.406  25.489  0.00  0.00    +0.277 C 
ENDBRANCH  11  26
TORSDOF 6
ENDMDL
MODEL 4
REMARK VINA RESULT:      -6.7      1.285      1.372
REMARK  Name = 
REMARK  8 active torsions:
REMARK  status: ('A' for Active; 'I' for Inactive)
REMARK    1  A    between atoms: C_1  and  O_2
REMARK    2  A    between atoms: O_2  and  C_3
REMARK    3  A    between atoms: C_4  and  O_24
REMARK    4  A    between atoms: C_7  and  C_9
REMARK    5  A    between atoms: C_10  and  O_22
REMARK    6  A    between atoms: C_14  and  O_21
REMARK    7  A    between atoms: C_16  and  O_20
REMARK    8  A    between atoms: O_22  and  C_23
REMARK                            x       y       z     vdW  Elec       q    Type
REMARK                         _______ _______ _______ _____ _____    ______ ____
ROOT
ATOM      1  C   UNL     1       8.375  -1.308  24.313  0.00  0.00    +0.181 A 
ATOM      2  O   UNL     1       8.024  -1.976  23.138  0.00  0.00    -0.451 OA
ATOM      3  C   UNL     1       7.397  -3.195  23.223  0.00  0.00    +0.147 A 
ATOM      4  C   UNL     1       7.175  -3.840  24.431  0.00  0.00    +0.109 A 
ATOM      5  C   UNL     1       6.516  -5.077  24.466  0.00  0.00    +0.135 A 
ATOM      6  C   UNL     1       6.073  -5.673  23.290  0.00  0.00    +0.091 A 
ATOM      7  C   UNL     1       6.305  -5.025  22.081  0.00  0.00    +0.124 A 
ATOM      8  C   UNL     1       7.630  -3.189  25.656  0.00  0.00    +0.238 A 
ATOM      9  O   UNL     1       7.502  -3.779  26.728  0.00  0.00    -0.283 OA
ATOM     10  C   UNL     1       6.968  -3.797  22.036  0.00  0.00    +0.092 A 
ATOM     11  C   UNL     1       8.204  -1.816  25.563  0.00  0.00    +0.211 A 
ENDROOT
BRANCH   1  14
ATOM     12  C   UNL     1       8.871   2.188  22.940  0.00  0.00    +0.162 A 
ATOM     13  C   UNL     1       8.245   1.002  23.333  0.00  0.00    +0.061 A 
ATOM     14  C   UNL     1       8.971   0.013  24.027  0.00  0.00    +0.025 A 
ATOM     15  C   UNL     1      10.298   0.270  24.405  0.00  0.00    +0.015 A 
ATOM     16  C   UNL     1      10.919   1.464  24.039  0.00  0.00    +0.050 A 
ATOM     17  C   UNL     1      10.211   2.396  23.292  0.00  0.00    +0.158 A 
BRANCH  12  19
ATOM     18  C   UNL     1       6.904   3.304  22.183  0.00  0.00    +0.277 C 
ATOM     19  O   UNL     1       8.322   3.201  22.195  0.00  0.00    -0.491 OA
ENDBRANCH  12  19
BRANCH  17  20
ATOM     20  O   UNL     1      10.867   3.526  22.884  0.00  0.00    -0.503 OA
ATOM     21  H   UNL     1      11.814   3.289  22.897  0.00  0.00    +0.292 HD
ENDBRANCH  17  20
ENDBRANCH   1  14
BRANCH   5  22
ATOM     22  O   UNL     1       6.266  -5.759  25.627  0.00  0.00    -0.506 OA
ATOM     23  H   UNL     1       5.309  -5.996  25.640  0.00  0.00    +0.292 HD
ENDBRANCH   5  22
BRANCH   7  24
ATOM     24  O   UNL     1       5.888  -5.574  20.904  0.00  0.00    -0.507 OA
ATOM     25  H   UNL     1       5.956  -6.541  20.963  0.00  0.00    +0.292 HD
ENDBRANCH   7  24
BRANCH  11  26
ATOM     26  O   UNL     1       8.485  -1.273  26.793  0.00  0.00    -0.488 OA
ATOM     27  C   UNL     1       7.715  -0.240  27.377  0.00  0.00    +0.277 C 
ENDBRANCH  11  26
TORSDOF 6
ENDMDL
MODEL 5
REMARK VINA RESULT:      -6.6      2.396      7.135
REMARK  Name = 
REMARK  8 active torsions:
REMARK  status: ('A' for Active; 'I' for Inactive)
REMARK    1  A    between atoms: C_1  and  O_2
REMARK    2  A    between atoms: O_2  and  C_3
REMARK    3  A    between atoms: C_4  and  O_24
REMARK    4  A    between atoms: C_7  and  C_9
REMARK    5  A    between atoms: C_10  and  O_22
REMARK    6  A    between atoms: C_14  and  O_21
REMARK    7  A    between atoms: C_16  and  O_20
REMARK    8  A    between atoms: O_22  and  C_23
REMARK                            x       y       z     vdW  Elec       q    Type
REMARK                         _______ _______ _______ _____ _____    ______ ____
ROOT
ATOM      1  C   UNL     1       7.279  -0.491  23.520  0.00  0.00    +0.181 A 
ATOM      2  O   UNL     1       6.552   0.614  23.072  0.00  0.00    -0.451 OA
ATOM      3  C   UNL     1       7.155   1.848  23.046  0.00  0.00    +0.147 A 
ATOM      4  C   UNL     1       8.437   2.063  23.531  0.00  0.00    +0.109 A 
ATOM      5  C   UNL     1       9.016   3.339  23.467  0.00  0.00    +0.135 A 
ATOM      6  C   UNL     1       8.314   4.404  22.912  0.00  0.00    +0.091 A 
ATOM      7  C   UNL     1       7.027   4.183  22.434  0.00  0.00    +0.124 A 
ATOM      8  C   UNL     1       9.165   0.929  24.092  0.00  0.00    +0.238 A 
ATOM      9  O   UNL     1      10.274   1.118  24.588  0.00  0.00    -0.283 OA
ATOM     10  C   UNL     1       6.440   2.918  22.500  0.00  0.00    +0.092 A 
ATOM     11  C   UNL     1       8.546  -0.425  24.010  0.00  0.00    +0.211 A 
ENDROOT
BRANCH   1  14
ATOM     12  C   UNL     1       5.785  -3.685  22.136  0.00  0.00    +0.162 A 
ATOM     13  C   UNL     1       6.639  -2.591  22.299  0.00  0.00    +0.061 A 
ATOM     14  C   UNL     1       6.494  -1.736  23.410  0.00  0.00    +0.025 A 
ATOM     15  C   UNL     1       5.550  -2.049  24.401  0.00  0.00    +0.015 A 
ATOM     16  C   UNL     1       4.713  -3.156  24.256  0.00  0.00    +0.050 A 
ATOM     17  C   UNL     1       4.821  -3.945  23.119  0.00  0.00    +0.158 A 
BRANCH  12  19
ATOM     18  C   UNL     1       6.579  -5.707  21.151  0.00  0.00    +0.277 C 
ATOM     19  O   UNL     1       5.752  -4.553  21.074  0.00  0.00    -0.491 OA
ENDBRANCH  12  19
BRANCH  17  20
ATOM     20  O   UNL     1       3.939  -4.981  22.968  0.00  0.00    -0.503 OA
ATOM     21  H   UNL     1       3.499  -5.069  23.836  0.00  0.00    +0.292 HD
ENDBRANCH  17  20
ENDBRANCH   1  14
BRANCH   5  22
ATOM     22  O   UNL     1      10.276   3.612  23.927  0.00  0.00    -0.506 OA
ATOM     23  H   UNL     1      10.239   3.649  24.912  0.00  0.00    +0.292 HD
ENDBRANCH   5  22
BRANCH   7  24
ATOM     24  O   UNL     1       6.303   5.199  21.882  0.00  0.00    -0.507 OA
ATOM     25  H   UNL     1       6.067   5.834  22.578  0.00  0.00    +0.292 HD
ENDBRANCH   7  24
BRANCH  11  26
ATOM     26  O   UNL     1       9.378  -1.418  24.467  0.00  0.00    -0.488 OA
ATOM     27  C   UNL     1      10.103  -2.276  23.608  0.00  0.00    +0.277 C 
ENDBRANCH  11  26
TORSDOF 6
ENDMDL
MODEL 6
REMARK VINA RESULT:      -6.5      2.949      8.050
REMARK  Name = 
REMARK  8 active torsions:
REMARK  status: ('A' for Active; 'I' for Inactive)
REMARK    1  A    between atoms: C_1  and  O_2
REMARK    2  A    between atoms: O_2  and  C_3
REMARK    3  A    between atoms: C_4  and  O_24
REMARK    4  A    between atoms: C_7  and  C_9
REMARK    5  A    between atoms: C_10  and  O_22
REMARK    6  A    between atoms: C_14  and  O_21
REMARK    7  A    between atoms: C_16  and  O_20
REMARK    8  A    between atoms: O_22  and  C_23
REMARK                            x       y       z     vdW  Elec       q    Type
REMARK                         _______ _______ _______ _____ _____    ______ ____
ROOT
ATOM      1  C   UNL     1       8.933   1.340  23.641  0.00  0.00    +0.181 A 
ATOM      2  O   UNL     1      10.216   1.850  23.429  0.00  0.00    -0.451 OA
ATOM      3  C   UNL     1      10.425   3.203  23.540  0.00  0.00    +0.147 A 
ATOM      4  C   UNL     1       9.394   4.103  23.768  0.00  0.00    +0.109 A 
ATOM      5  C   UNL     1       9.662   5.474  23.889  0.00  0.00    +0.135 A 
ATOM      6  C   UNL     1      10.965   5.950  23.787  0.00  0.00    +0.091 A 
ATOM      7  C   UNL     1      11.993   5.043  23.552  0.00  0.00    +0.124 A 
ATOM      8  C   UNL     1       8.036   3.582  23.891  0.00  0.00    +0.238 A 
ATOM      9  O   UNL     1       7.103   4.373  24.024  0.00  0.00    -0.283 OA
ATOM     10  C   UNL     1      11.735   3.677  23.421  0.00  0.00    +0.092 A 
ATOM     11  C   UNL     1       7.836   2.105  23.885  0.00  0.00    +0.211 A 
ENDROOT
BRANCH   1  14
ATOM     12  C   UNL     1       7.938  -2.189  22.687  0.00  0.00    +0.162 A 
ATOM     13  C   UNL     1       8.050  -0.796  22.656  0.00  0.00    +0.061 A 
ATOM     14  C   UNL     1       8.916  -0.134  23.550  0.00  0.00    +0.025 A 
ATOM     15  C   UNL     1       9.736  -0.890  24.402  0.00  0.00    +0.015 A 
ATOM     16  C   UNL     1       9.647  -2.282  24.418  0.00  0.00    +0.050 A 
ATOM     17  C   UNL     1       8.736  -2.914  23.582  0.00  0.00    +0.158 A 
BRANCH  12  19
ATOM     18  C   UNL     1       5.710  -2.949  22.300  0.00  0.00    +0.277 C 
ATOM     19  O   UNL     1       7.086  -2.963  21.940  0.00  0.00    -0.491 OA
ENDBRANCH  12  19
BRANCH  17  20
ATOM     20  O   UNL     1       8.618  -4.275  23.669  0.00  0.00    -0.503 OA
ATOM     21  H   UNL     1       9.458  -4.578  24.064  0.00  0.00    +0.292 HD
ENDBRANCH  17  20
ENDBRANCH   1  14
BRANCH   5  22
ATOM     22  O   UNL     1       8.687   6.409  24.116  0.00  0.00    -0.506 OA
ATOM     23  H   UNL     1       7.870   6.116  23.647  0.00  0.00    +0.292 HD
ENDBRANCH   5  22
BRANCH   7  24
ATOM     24  O   UNL     1      13.285   5.466  23.444  0.00  0.00    -0.507 OA
ATOM     25  H   UNL     1      13.573   5.377  22.521  0.00  0.00    +0.292 HD
ENDBRANCH   7  24
BRANCH  11  26
ATOM     26  O   UNL     1       6.532   1.744  24.123  0.00  0.00    -0.488 OA
ATOM     27  C   UNL     1       6.080   1.261  25.373  0.00  0.00    +0.277 C 
ENDBRANCH  11  26
TORSDOF 6
ENDMDL
MODEL 7
REMARK VINA RESULT:      -6.4      2.086      6.719
REMARK  Name = 
REMARK  8 active torsions:
REMARK  status: ('A' for Active; 'I' for Inactive)
REMARK    1  A    between atoms: C_1  and  O_2
REMARK    2  A    between atoms: O_2  and  C_3
REMARK    3  A    between atoms: C_4  and  O_24
REMARK    4  A    between atoms: C_7  and  C_9
REMARK    5  A    between atoms: C_10  and  O_22
REMARK    6  A    between atoms: C_14  and  O_21
REMARK    7  A    between atoms: C_16  and  O_20
REMARK    8  A    between atoms: O_22  and  C_23
REMARK                            x       y       z     vdW  Elec       q    Type
REMARK                         _______ _______ _______ _____ _____    ______ ____
ROOT
ATOM      1  C   UNL     1       7.133  -1.689  23.851  0.00  0.00    +0.181 A 
ATOM      2  O   UNL     1       7.956  -1.053  22.919  0.00  0.00    -0.451 OA
ATOM      3  C   UNL     1       8.442   0.201  23.200  0.00  0.00    +0.147 A 
ATOM      4  C   UNL     1       8.078   0.906  24.338  0.00  0.00    +0.109 A 
ATOM      5  C   UNL     1       8.615   2.178  24.587  0.00  0.00    +0.135 A 
ATOM      6  C   UNL     1       9.523   2.747  23.701  0.00  0.00    +0.091 A 
ATOM      7  C   UNL     1       9.878   2.037  22.558  0.00  0.00    +0.124 A 
ATOM      8  C   UNL     1       7.140   0.284  25.267  0.00  0.00    +0.238 A 
ATOM      9  O   UNL     1       6.754   0.924  26.244  0.00  0.00    -0.283 OA
ATOM     10  C   UNL     1       9.343   0.774  22.297  0.00  0.00    +0.092 A 
ATOM     11  C   UNL     1       6.709  -1.120  25.011  0.00  0.00    +0.211 A 
ENDROOT
BRANCH   1  14
ATOM     12  C   UNL     1       5.080  -4.706  22.835  0.00  0.00    +0.162 A 
ATOM     13  C   UNL     1       5.432  -3.381  23.106  0.00  0.00    +0.061 A 
ATOM     14  C   UNL     1       6.768  -3.050  23.410  0.00  0.00    +0.025 A 
ATOM     15  C   UNL     1       7.757  -4.044  23.341  0.00  0.00    +0.015 A 
ATOM     16  C   UNL     1       7.414  -5.363  23.044  0.00  0.00    +0.050 A 
ATOM     17  C   UNL     1       6.082  -5.684  22.819  0.00  0.00    +0.158 A 
BRANCH  12  19
ATOM     18  C   UNL     1       2.881  -5.104  23.670  0.00  0.00    +0.277 C 
ATOM     19  O   UNL     1       3.817  -5.191  22.603  0.00  0.00    -0.491 OA
ENDBRANCH  12  19
BRANCH  17  20
ATOM     20  O   UNL     1       5.764  -6.998  22.602  0.00  0.00    -0.503 OA
ATOM     21  H   UNL     1       6.540  -7.375  22.144  0.00  0.00    +0.292 HD
ENDBRANCH  17  20
ENDBRANCH   1  14
BRANCH   5  22
ATOM     22  O   UNL     1       8.296   2.920  25.694  0.00  0.00    -0.506 OA
ATOM     23  H   UNL     1       7.569   3.538  25.445  0.00  0.00    +0.292 HD
ENDBRANCH   5  22
BRANCH   7  24
ATOM     24  O   UNL     1      10.764   2.557  21.661  0.00  0.00    -0.507 OA
ATOM     25  H   UNL     1      10.571   2.199  20.780  0.00  0.00    +0.292 HD
ENDBRANCH   7  24
BRANCH  11  26
ATOM     26  O   UNL     1       5.919  -1.625  26.015  0.00  0.00    -0.488 OA
ATOM     27  C   UNL     1       6.342  -2.656  26.887  0.00  0.00    +0.277 C 
ENDBRANCH  11  26
TORSDOF 6
ENDMDL
MODEL 8
REMARK VINA RESULT:      -6.4      2.028      6.863
REMARK  Name = 
REMARK  8 active torsions:
REMARK  status: ('A' for Active; 'I' for Inactive)
REMARK    1  A    between atoms: C_1  and  O_2
REMARK    2  A    between atoms: O_2  and  C_3
REMARK    3  A    between atoms: C_4  and  O_24
REMARK    4  A    between atoms: C_7  and  C_9
REMARK    5  A    between atoms: C_10  and  O_22
REMARK    6  A    between atoms: C_14  and  O_21
REMARK    7  A    between atoms: C_16  and  O_20
REMARK    8  A    between atoms: O_22  and  C_23
REMARK                            x       y       z     vdW  Elec       q    Type
REMARK                         _______ _______ _______ _____ _____    ______ ____
ROOT
ATOM      1  C   UNL     1       7.467  -1.669  23.038  0.00  0.00    +0.181 A 
ATOM      2  O   UNL     1       6.814  -0.485  22.685  0.00  0.00    -0.451 OA
ATOM      3  C   UNL     1       7.499   0.703  22.749  0.00  0.00    +0.147 A 
ATOM      4  C   UNL     1       8.795   0.793  23.238  0.00  0.00    +0.109 A 
ATOM      5  C   UNL     1       9.458   2.028  23.268  0.00  0.00    +0.135 A 
ATOM      6  C   UNL     1       8.828   3.178  22.805  0.00  0.00    +0.091 A 
ATOM      7  C   UNL     1       7.527   3.082  22.323  0.00  0.00    +0.124 A 
ATOM      8  C   UNL     1       9.446  -0.428  23.701  0.00  0.00    +0.238 A 
ATOM      9  O   UNL     1      10.568  -0.354  24.200  0.00  0.00    -0.283 OA
ATOM     10  C   UNL     1       6.856   1.859  22.297  0.00  0.00    +0.092 A 
ATOM     11  C   UNL     1       8.737  -1.727  23.520  0.00  0.00    +0.211 A 
ENDROOT
BRANCH   1  14
ATOM     12  C   UNL     1       4.724  -4.235  23.535  0.00  0.00    +0.162 A 
ATOM     13  C   UNL     1       5.451  -3.044  23.634  0.00  0.00    +0.061 A 
ATOM     14  C   UNL     1       6.598  -2.846  22.839  0.00  0.00    +0.025 A 
ATOM     15  C   UNL     1       6.946  -3.809  21.879  0.00  0.00    +0.015 A 
ATOM     16  C   UNL     1       6.207  -4.986  21.758  0.00  0.00    +0.050 A 
ATOM     17  C   UNL     1       5.124  -5.197  22.600  0.00  0.00    +0.158 A 
BRANCH  12  19
ATOM     18  C   UNL     1       3.872  -4.866  25.672  0.00  0.00    +0.277 C 
ATOM     19  O   UNL     1       3.642  -4.603  24.294  0.00  0.00    -0.491 OA
ENDBRANCH  12  19
BRANCH  17  20
ATOM     20  O   UNL     1       4.461  -6.392  22.509  0.00  0.00    -0.503 OA
ATOM     21  H   UNL     1       4.252  -6.495  21.561  0.00  0.00    +0.292 HD
ENDBRANCH  17  20
ENDBRANCH   1  14
BRANCH   5  22
ATOM     22  O   UNL     1      10.737   2.179  23.736  0.00  0.00    -0.506 OA
ATOM     23  H   UNL     1      10.745   2.947  24.354  0.00  0.00    +0.292 HD
ENDBRANCH   5  22
BRANCH   7  24
ATOM     24  O   UNL     1       6.871   4.185  21.860  0.00  0.00    -0.507 OA
ATOM     25  H   UNL     1       6.580   4.021  20.948  0.00  0.00    +0.292 HD
ENDBRANCH   7  24
BRANCH  11  26
ATOM     26  O   UNL     1       9.502  -2.807  23.890  0.00  0.00    -0.488 OA
ATOM     27  C   UNL     1       9.200  -3.621  25.006  0.00  0.00    +0.277 C 
ENDBRANCH  11  26
TORSDOF 6
ENDMDL
MODEL 9
REMARK VINA RESULT:      -6.4      1.829      3.736
REMARK  Name = 
REMARK  8 active torsions:
REMARK  status: ('A' for Active; 'I' for Inactive)
REMARK    1  A    between atoms: C_1  and  O_2
REMARK    2  A    between atoms: O_2  and  C_3
REMARK    3  A    between atoms: C_4  and  O_24
REMARK    4  A    between atoms: C_7  and  C_9
REMARK    5  A    between atoms: C_10  and  O_22
REMARK    6  A    between atoms: C_14  and  O_21
REMARK    7  A    between atoms: C_16  and  O_20
REMARK    8  A    between atoms: O_22  and  C_23
REMARK                            x       y       z     vdW  Elec       q    Type
REMARK                         _______ _______ _______ _____ _____    ______ ____
ROOT
ATOM      1  C   UNL     1       6.578  -3.599  24.118  0.00  0.00    +0.181 A 
ATOM      2  O   UNL     1       6.805  -3.683  25.493  0.00  0.00    -0.451 OA
ATOM      3  C   UNL     1       6.232  -4.708  26.206  0.00  0.00    +0.147 A 
ATOM      4  C   UNL     1       5.359  -5.621  25.631  0.00  0.00    +0.109 A 
ATOM      5  C   UNL     1       4.812  -6.660  26.398  0.00  0.00    +0.135 A 
ATOM      6  C   UNL     1       5.141  -6.793  27.742  0.00  0.00    +0.091 A 
ATOM      7  C   UNL     1       6.012  -5.871  28.314  0.00  0.00    +0.124 A 
ATOM      8  C   UNL     1       5.041  -5.477  24.214  0.00  0.00    +0.238 A 
ATOM      9  O   UNL     1       4.216  -6.236  23.707  0.00  0.00    -0.283 OA
ATOM     10  C   UNL     1       6.554  -4.827  27.561  0.00  0.00    +0.092 A 
ATOM     11  C   UNL     1       5.757  -4.433  23.425  0.00  0.00    +0.211 A 
ENDROOT
BRANCH   1  14
ATOM     12  C   UNL     1       7.414  -0.194  22.683  0.00  0.00    +0.162 A 
ATOM     13  C   UNL     1       6.750  -1.200  23.390  0.00  0.00    +0.061 A 
ATOM     14  C   UNL     1       7.329  -2.480  23.513  0.00  0.00    +0.025 A 
ATOM     15  C   UNL     1       8.618  -2.705  23.007  0.00  0.00    +0.015 A 
ATOM     16  C   UNL     1       9.296  -1.695  22.325  0.00  0.00    +0.050 A 
ATOM     17  C   UNL     1       8.681  -0.463  22.149  0.00  0.00    +0.158 A 
BRANCH  12  19
ATOM     18  C   UNL     1       6.694   1.920  23.520  0.00  0.00    +0.277 C 
ATOM     19  O   UNL     1       6.945   1.067  22.411  0.00  0.00    -0.491 OA
ENDBRANCH  12  19
BRANCH  17  20
ATOM     20  O   UNL     1       9.338   0.486  21.413  0.00  0.00    -0.503 OA
ATOM     21  H   UNL     1       9.691   0.008  20.638  0.00  0.00    +0.292 HD
ENDBRANCH  17  20
ENDBRANCH   1  14
BRANCH   5  22
ATOM     22  O   UNL     1       3.948  -7.592  25.886  0.00  0.00    -0.506 OA
ATOM     23  H   UNL     1       3.704  -7.310  24.973  0.00  0.00    +0.292 HD
ENDBRANCH   5  22
BRANCH   7  24
ATOM     24  O   UNL     1       6.361  -5.962  29.629  0.00  0.00    -0.507 OA
ATOM     25  H   UNL     1       7.175  -5.454  29.778  0.00  0.00    +0.292 HD
ENDBRANCH   7  24
BRANCH  11  26
ATOM     26  O   UNL     1       5.453  -4.477  22.086  0.00  0.00    -0.488 OA
ATOM     27  C   UNL     1       6.147  -5.293  21.163  0.00  0.00    +0.277 C 
ENDBRANCH  11  26
TORSDOF 6
ENDMDL
