MODEL 1
REMARK VINA RESULT:      -7.4      0.000      0.000
REMARK  Name = 
REMARK  7 active torsions:
REMARK  status: ('A' for Active; 'I' for Inactive)
REMARK    1  A    between atoms: C_3  and  O_26
REMARK    2  A    between atoms: C_4  and  O_25
REMARK    3  A    between atoms: C_6  and  C_7
REMARK    4  A    between atoms: C_8  and  O_20
REMARK    5  A    between atoms: C_14  and  O_18
REMARK    6  A    between atoms: O_20  and  S_21
REMARK    7  A    between atoms: O_26  and  S_27
REMARK                            x       y       z     vdW  Elec       q    Type
REMARK                         _______ _______ _______ _____ _____    ______ ____
ROOT
ATOM      1  C   UNL     1       6.789  -1.875  23.171  0.00  0.00    +0.184 A 
ATOM      2  O   UNL     1       6.265  -0.619  22.884  0.00  0.00    -0.451 OA
ATOM      3  C   UNL     1       7.090   0.448  22.647  0.00  0.00    +0.142 A 
ATOM      4  C   UNL     1       8.485   0.357  22.553  0.00  0.00    +0.060 A 
ATOM      5  C   UNL     1       9.282   1.530  22.275  0.00  0.00    -0.090 A 
ATOM      6  O   UNL     1      10.554   1.588  22.165  0.00  0.00    -0.873 OA
ATOM      7  C   UNL     1       8.550   2.731  22.122  0.00  0.00    +0.038 A 
ATOM      8  C   UNL     1       7.167   2.805  22.230  0.00  0.00    +0.120 A 
ATOM      9  C   UNL     1       9.054  -1.019  22.761  0.00  0.00    +0.237 A 
ATOM     10  O   UNL     1      10.246  -1.291  22.630  0.00  0.00    -0.283 OA
ATOM     11  C   UNL     1       6.428   1.671  22.490  0.00  0.00    +0.092 A 
ATOM     12  C   UNL     1       8.116  -2.140  23.150  0.00  0.00    +0.244 A 
ENDROOT
BRANCH   1  14
ATOM     13  C   UNL     1       4.987  -2.662  24.689  0.00  0.00    +0.015 A 
ATOM     14  C   UNL     1       5.654  -2.789  23.455  0.00  0.00    +0.025 A 
ATOM     15  C   UNL     1       5.367  -3.907  22.661  0.00  0.00    +0.061 A 
ATOM     16  C   UNL     1       4.478  -4.882  23.131  0.00  0.00    +0.162 A 
ATOM     17  C   UNL     1       3.879  -4.788  24.396  0.00  0.00    +0.196 A 
ATOM     18  C   UNL     1       4.104  -3.647  25.155  0.00  0.00    +0.053 A 
BRANCH  16  19
ATOM     19  O   UNL     1       4.215  -5.971  22.334  0.00  0.00    -0.503 OA
ATOM     20  H   UNL     1       4.905  -5.932  21.643  0.00  0.00    +0.292 HD
ENDBRANCH  16  19
BRANCH  17  21
ATOM     21  O   UNL     1       3.056  -5.823  24.774  0.00  0.00    -0.357 OA
BRANCH  21  22
ATOM     22  S   UNL     1       3.572  -7.071  25.710  0.00  0.00    +0.043 S 
ATOM     23  O   UNL     1       3.263  -8.248  24.893  0.00  0.00    -0.259 OA
ATOM     24  O   UNL     1       2.778  -6.996  26.935  0.00  0.00    -0.336 OA
ATOM     25  O   UNL     1       5.006  -6.862  25.897  0.00  0.00    -0.336 OA
ENDBRANCH  21  22
ENDBRANCH  17  21
ENDBRANCH   1  14
BRANCH   8  26
ATOM     26  O   UNL     1       6.523   4.003  22.080  0.00  0.00    -0.507 OA
ATOM     27  H   UNL     1       7.213   4.680  22.152  0.00  0.00    +0.292 HD
ENDBRANCH   8  26
BRANCH  12  28
ATOM     28  O   UNL     1       8.807  -3.288  23.484  0.00  0.00    -0.353 OA
BRANCH  28  29
ATOM     29  S   UNL     1       8.925  -4.070  24.898  0.00  0.00    +0.043 S 
ATOM     30  O   UNL     1       7.827  -5.037  24.856  0.00  0.00    -0.259 OA
ATOM     31  O   UNL     1       8.756  -3.059  25.938  0.00  0.00    -0.336 OA
ATOM     32  O   UNL     1      10.241  -4.706  24.846  0.00  0.00    -0.336 OA
ENDBRANCH  28  29
ENDBRANCH  12  28
TORSDOF 7
ENDMDL
MODEL 2
REMARK VINA RESULT:      -7.4      3.022      5.503
REMARK  Name = 
REMARK  7 active torsions:
REMARK  status: ('A' for Active; 'I' for Inactive)
REMARK    1  A    between atoms: C_3  and  O_26
REMARK    2  A    between atoms: C_4  and  O_25
REMARK    3  A    between atoms: C_6  and  C_7
REMARK    4  A    between atoms: C_8  and  O_20
REMARK    5  A    between atoms: C_14  and  O_18
REMARK    6  A    between atoms: O_20  and  S_21
REMARK    7  A    between atoms: O_26  and  S_27
REMARK                            x       y       z     vdW  Elec       q    Type
REMARK                         _______ _______ _______ _____ _____    ______ ____
ROOT
ATOM      1  C   UNL     1       9.070   1.524  23.661  0.00  0.00    +0.184 A 
ATOM      2  O   UNL     1      10.365   2.030  23.638  0.00  0.00    -0.451 OA
ATOM      3  C   UNL     1      10.590   3.381  23.605  0.00  0.00    +0.142 A 
ATOM      4  C   UNL     1       9.582   4.349  23.711  0.00  0.00    +0.060 A 
ATOM      5  C   UNL     1       9.908   5.756  23.692  0.00  0.00    -0.090 A 
ATOM      6  O   UNL     1       9.092   6.736  23.778  0.00  0.00    -0.873 OA
ATOM      7  C   UNL     1      11.285   6.052  23.554  0.00  0.00    +0.038 A 
ATOM      8  C   UNL     1      12.270   5.080  23.439  0.00  0.00    +0.120 A 
ATOM      9  C   UNL     1       8.185   3.808  23.839  0.00  0.00    +0.237 A 
ATOM     10  O   UNL     1       7.195   4.514  24.025  0.00  0.00    -0.283 OA
ATOM     11  C   UNL     1      11.935   3.744  23.466  0.00  0.00    +0.092 A 
ATOM     12  C   UNL     1       7.973   2.313  23.738  0.00  0.00    +0.244 A 
ENDROOT
BRANCH   1  14
ATOM     13  C   UNL     1       9.040  -0.593  22.362  0.00  0.00    +0.015 A 
ATOM     14  C   UNL     1       9.158   0.043  23.612  0.00  0.00    +0.025 A 
ATOM     15  C   UNL     1       9.124  -0.754  24.765  0.00  0.00    +0.061 A 
ATOM     16  C   UNL     1       8.923  -2.136  24.647  0.00  0.00    +0.162 A 
ATOM     17  C   UNL     1       8.726  -2.750  23.402  0.00  0.00    +0.196 A 
ATOM     18  C   UNL     1       8.831  -1.976  22.254  0.00  0.00    +0.053 A 
BRANCH  16  19
ATOM     19  O   UNL     1       8.891  -2.895  25.793  0.00  0.00    -0.503 OA
ATOM     20  H   UNL     1       9.832  -3.049  26.003  0.00  0.00    +0.292 HD
ENDBRANCH  16  19
BRANCH  17  21
ATOM     21  O   UNL     1       8.494  -4.106  23.407  0.00  0.00    -0.357 OA
BRANCH  21  22
ATOM     22  S   UNL     1       6.993  -4.749  23.584  0.00  0.00    +0.043 S 
ATOM     23  O   UNL     1       6.980  -5.178  24.986  0.00  0.00    -0.259 OA
ATOM     24  O   UNL     1       6.930  -5.864  22.641  0.00  0.00    -0.336 OA
ATOM     25  O   UNL     1       6.058  -3.661  23.308  0.00  0.00    -0.336 OA
ENDBRANCH  21  22
ENDBRANCH  17  21
ENDBRANCH   1  14
BRANCH   8  26
ATOM     26  O   UNL     1      13.583   5.437  23.299  0.00  0.00    -0.507 OA
ATOM     27  H   UNL     1      13.582   6.402  23.210  0.00  0.00    +0.292 HD
ENDBRANCH   8  26
BRANCH  12  28
ATOM     28  O   UNL     1       6.632   1.992  23.688  0.00  0.00    -0.353 OA
BRANCH  28  29
ATOM     29  S   UNL     1       5.694   1.224  24.762  0.00  0.00    +0.043 S 
ATOM     30  O   UNL     1       5.762  -0.178  24.349  0.00  0.00    -0.259 OA
ATOM     31  O   UNL     1       4.357   1.797  24.619  0.00  0.00    -0.336 OA
ATOM     32  O   UNL     1       6.348   1.468  26.047  0.00  0.00    -0.336 OA
ENDBRANCH  28  29
ENDBRANCH  12  28
TORSDOF 7
ENDMDL
MODEL 3
REMARK VINA RESULT:      -7.1      3.143      6.092
REMARK  Name = 
REMARK  7 active torsions:
REMARK  status: ('A' for Active; 'I' for Inactive)
REMARK    1  A    between atoms: C_3  and  O_26
REMARK    2  A    between atoms: C_4  and  O_25
REMARK    3  A    between atoms: C_6  and  C_7
REMARK    4  A    between atoms: C_8  and  O_20
REMARK    5  A    between atoms: C_14  and  O_18
REMARK    6  A    between atoms: O_20  and  S_21
REMARK    7  A    between atoms: O_26  and  S_27
REMARK                            x       y       z     vdW  Elec       q    Type
REMARK                         _______ _______ _______ _____ _____    ______ ____
ROOT
ATOM      1  C   UNL     1       8.813   2.051  24.049  0.00  0.00    +0.184 A 
ATOM      2  O   UNL     1      10.159   2.281  23.789  0.00  0.00    -0.451 OA
ATOM      3  C   UNL     1      10.667   3.553  23.792  0.00  0.00    +0.142 A 
ATOM      4  C   UNL     1       9.935   4.690  24.161  0.00  0.00    +0.060 A 
ATOM      5  C   UNL     1      10.554   5.996  24.160  0.00  0.00    -0.090 A 
ATOM      6  O   UNL     1      10.006   7.108  24.470  0.00  0.00    -0.873 OA
ATOM      7  C   UNL     1      11.911   6.018  23.758  0.00  0.00    +0.038 A 
ATOM      8  C   UNL     1      12.618   4.881  23.384  0.00  0.00    +0.120 A 
ATOM      9  C   UNL     1       8.503   4.436  24.542  0.00  0.00    +0.237 A 
ATOM     10  O   UNL     1       7.746   5.306  24.970  0.00  0.00    -0.283 OA
ATOM     11  C   UNL     1      12.007   3.647  23.400  0.00  0.00    +0.092 A 
ATOM     12  C   UNL     1       7.952   3.034  24.397  0.00  0.00    +0.244 A 
ENDROOT
BRANCH   1  14
ATOM     13  C   UNL     1       9.648  -0.289  24.037  0.00  0.00    +0.015 A 
ATOM     14  C   UNL     1       8.562   0.596  23.894  0.00  0.00    +0.025 A 
ATOM     15  C   UNL     1       7.356   0.086  23.394  0.00  0.00    +0.061 A 
ATOM     16  C   UNL     1       7.280  -1.258  23.004  0.00  0.00    +0.162 A 
ATOM     17  C   UNL     1       8.390  -2.112  23.074  0.00  0.00    +0.196 A 
ATOM     18  C   UNL     1       9.564  -1.631  23.636  0.00  0.00    +0.053 A 
BRANCH  16  19
ATOM     19  O   UNL     1       6.086  -1.733  22.513  0.00  0.00    -0.503 OA
ATOM     20  H   UNL     1       5.702  -0.969  22.041  0.00  0.00    +0.292 HD
ENDBRANCH  16  19
BRANCH  17  21
ATOM     21  O   UNL     1       8.214  -3.400  22.624  0.00  0.00    -0.357 OA
BRANCH  21  22
ATOM     22  S   UNL     1       7.850  -4.648  23.627  0.00  0.00    +0.043 S 
ATOM     23  O   UNL     1       6.870  -4.060  24.545  0.00  0.00    -0.259 OA
ATOM     24  O   UNL     1       9.108  -5.004  24.282  0.00  0.00    -0.336 OA
ATOM     25  O   UNL     1       7.286  -5.693  22.777  0.00  0.00    -0.336 OA
ENDBRANCH  21  22
ENDBRANCH  17  21
ENDBRANCH   1  14
BRANCH   8  26
ATOM     26  O   UNL     1      13.927   4.976  22.998  0.00  0.00    -0.507 OA
ATOM     27  H   UNL     1      14.311   5.673  23.551  0.00  0.00    +0.292 HD
ENDBRANCH   8  26
BRANCH  12  28
ATOM     28  O   UNL     1       6.588   3.001  24.606  0.00  0.00    -0.353 OA
BRANCH  28  29
ATOM     29  S   UNL     1       5.360   3.253  23.579  0.00  0.00    +0.043 S 
ATOM     30  O   UNL     1       5.968   3.087  22.258  0.00  0.00    -0.259 OA
ATOM     31  O   UNL     1       4.897   4.616  23.826  0.00  0.00    -0.336 OA
ATOM     32  O   UNL     1       4.403   2.195  23.899  0.00  0.00    -0.336 OA
ENDBRANCH  28  29
ENDBRANCH  12  28
TORSDOF 7
ENDMDL
MODEL 4
REMARK VINA RESULT:      -7.0      2.932      8.124
REMARK  Name = 
REMARK  7 active torsions:
REMARK  status: ('A' for Active; 'I' for Inactive)
REMARK    1  A    between atoms: C_3  and  O_26
REMARK    2  A    between atoms: C_4  and  O_25
REMARK    3  A    between atoms: C_6  and  C_7
REMARK    4  A    between atoms: C_8  and  O_20
REMARK    5  A    between atoms: C_14  and  O_18
REMARK    6  A    between atoms: O_20  and  S_21
REMARK    7  A    between atoms: O_26  and  S_27
REMARK                            x       y       z     vdW  Elec       q    Type
REMARK                         _______ _______ _______ _____ _____    ______ ____
ROOT
ATOM      1  C   UNL     1       7.160  -4.066  25.378  0.00  0.00    +0.184 A 
ATOM      2  O   UNL     1       6.829  -4.069  26.728  0.00  0.00    -0.451 OA
ATOM      3  C   UNL     1       5.814  -4.859  27.200  0.00  0.00    +0.142 A 
ATOM      4  C   UNL     1       5.118  -5.794  26.420  0.00  0.00    +0.060 A 
ATOM      5  C   UNL     1       4.075  -6.606  27.002  0.00  0.00    -0.090 A 
ATOM      6  O   UNL     1       3.366  -7.489  26.409  0.00  0.00    -0.873 OA
ATOM      7  C   UNL     1       3.826  -6.371  28.375  0.00  0.00    +0.038 A 
ATOM      8  C   UNL     1       4.517  -5.432  29.130  0.00  0.00    +0.120 A 
ATOM      9  C   UNL     1       5.541  -5.868  24.979  0.00  0.00    +0.237 A 
ATOM     10  O   UNL     1       5.095  -6.690  24.179  0.00  0.00    -0.283 OA
ATOM     11  C   UNL     1       5.513  -4.674  28.554  0.00  0.00    +0.092 A 
ATOM     12  C   UNL     1       6.575  -4.885  24.474  0.00  0.00    +0.244 A 
ENDROOT
BRANCH   1  14
ATOM     13  C   UNL     1       8.278  -1.947  26.037  0.00  0.00    +0.015 A 
ATOM     14  C   UNL     1       8.232  -3.059  25.174  0.00  0.00    +0.025 A 
ATOM     15  C   UNL     1       9.052  -3.047  24.037  0.00  0.00    +0.061 A 
ATOM     16  C   UNL     1       9.842  -1.923  23.763  0.00  0.00    +0.162 A 
ATOM     17  C   UNL     1       9.820  -0.787  24.584  0.00  0.00    +0.196 A 
ATOM     18  C   UNL     1       9.066  -0.822  25.750  0.00  0.00    +0.053 A 
BRANCH  16  19
ATOM     19  O   UNL     1      10.634  -1.935  22.640  0.00  0.00    -0.503 OA
ATOM     20  H   UNL     1      11.396  -1.373  22.880  0.00  0.00    +0.292 HD
ENDBRANCH  16  19
BRANCH  17  21
ATOM     21  O   UNL     1      10.602   0.276  24.197  0.00  0.00    -0.357 OA
BRANCH  21  22
ATOM     22  S   UNL     1      10.032   1.507  23.271  0.00  0.00    +0.043 S 
ATOM     23  O   UNL     1      10.940   2.612  23.592  0.00  0.00    -0.259 OA
ATOM     24  O   UNL     1       8.662   1.738  23.726  0.00  0.00    -0.336 OA
ATOM     25  O   UNL     1      10.148   1.051  21.888  0.00  0.00    -0.336 OA
ENDBRANCH  21  22
ENDBRANCH  17  21
ENDBRANCH   1  14
BRANCH   8  26
ATOM     26  O   UNL     1       4.219  -5.251  30.453  0.00  0.00    -0.507 OA
ATOM     27  H   UNL     1       4.199  -6.140  30.839  0.00  0.00    +0.292 HD
ENDBRANCH   8  26
BRANCH  12  28
ATOM     28  O   UNL     1       6.718  -4.958  23.103  0.00  0.00    -0.353 OA
BRANCH  28  29
ATOM     29  S   UNL     1       5.970  -4.137  21.923  0.00  0.00    +0.043 S 
ATOM     30  O   UNL     1       4.636  -3.879  22.466  0.00  0.00    -0.259 OA
ATOM     31  O   UNL     1       5.953  -5.021  20.761  0.00  0.00    -0.336 OA
ATOM     32  O   UNL     1       6.766  -2.919  21.776  0.00  0.00    -0.336 OA
ENDBRANCH  28  29
ENDBRANCH  12  28
TORSDOF 7
ENDMDL
MODEL 5
REMARK VINA RESULT:      -6.9      3.200      7.896
REMARK  Name = 
REMARK  7 active torsions:
REMARK  status: ('A' for Active; 'I' for Inactive)
REMARK    1  A    between atoms: C_3  and  O_26
REMARK    2  A    between atoms: C_4  and  O_25
REMARK    3  A    between atoms: C_6  and  C_7
REMARK    4  A    between atoms: C_8  and  O_20
REMARK    5  A    between atoms: C_14  and  O_18
REMARK    6  A    between atoms: O_20  and  S_21
REMARK    7  A    between atoms: O_26  and  S_27
REMARK                            x       y       z     vdW  Elec       q    Type
REMARK                         _______ _______ _______ _____ _____    ______ ____
ROOT
ATOM      1  C   UNL     1       7.257  -0.655  23.488  0.00  0.00    +0.184 A 
ATOM      2  O   UNL     1       6.426  -1.586  22.874  0.00  0.00    -0.451 OA
ATOM      3  C   UNL     1       6.735  -2.921  22.891  0.00  0.00    +0.142 A 
ATOM      4  C   UNL     1       7.810  -3.469  23.605  0.00  0.00    +0.060 A 
ATOM      5  C   UNL     1       8.053  -4.893  23.589  0.00  0.00    -0.090 A 
ATOM      6  O   UNL     1       8.991  -5.521  24.190  0.00  0.00    -0.873 OA
ATOM      7  C   UNL     1       7.144  -5.650  22.811  0.00  0.00    +0.038 A 
ATOM      8  C   UNL     1       6.090  -5.088  22.101  0.00  0.00    +0.120 A 
ATOM      9  C   UNL     1       8.655  -2.478  24.355  0.00  0.00    +0.237 A 
ATOM     10  O   UNL     1       9.583  -2.796  25.097  0.00  0.00    -0.283 OA
ATOM     11  C   UNL     1       5.876  -3.727  22.136  0.00  0.00    +0.092 A 
ATOM     12  C   UNL     1       8.354  -1.003  24.200  0.00  0.00    +0.244 A 
ENDROOT
BRANCH   1  14
ATOM     13  C   UNL     1       7.144   1.396  22.090  0.00  0.00    +0.015 A 
ATOM     14  C   UNL     1       6.698   0.695  23.227  0.00  0.00    +0.025 A 
ATOM     15  C   UNL     1       5.928   1.389  24.171  0.00  0.00    +0.061 A 
ATOM     16  C   UNL     1       5.673   2.755  23.989  0.00  0.00    +0.162 A 
ATOM     17  C   UNL     1       6.189   3.464  22.895  0.00  0.00    +0.196 A 
ATOM     18  C   UNL     1       6.890   2.765  21.920  0.00  0.00    +0.053 A 
BRANCH  16  19
ATOM     19  O   UNL     1       4.918   3.413  24.931  0.00  0.00    -0.503 OA
ATOM     20  H   UNL     1       5.564   3.671  25.616  0.00  0.00    +0.292 HD
ENDBRANCH  16  19
BRANCH  17  21
ATOM     21  O   UNL     1       5.912   4.810  22.838  0.00  0.00    -0.357 OA
BRANCH  21  22
ATOM     22  S   UNL     1       7.047   5.962  23.121  0.00  0.00    +0.043 S 
ATOM     23  O   UNL     1       6.282   7.026  23.778  0.00  0.00    -0.259 OA
ATOM     24  O   UNL     1       7.552   6.347  21.804  0.00  0.00    -0.336 OA
ATOM     25  O   UNL     1       8.037   5.341  23.997  0.00  0.00    -0.336 OA
ENDBRANCH  21  22
ENDBRANCH  17  21
ENDBRANCH   1  14
BRANCH   8  26
ATOM     26  O   UNL     1       5.254  -5.878  21.361  0.00  0.00    -0.507 OA
ATOM     27  H   UNL     1       5.301  -5.530  20.457  0.00  0.00    +0.292 HD
ENDBRANCH   8  26
BRANCH  12  28
ATOM     28  O   UNL     1       9.322  -0.221  24.796  0.00  0.00    -0.353 OA
BRANCH  28  29
ATOM     29  S   UNL     1      10.305   0.901  24.162  0.00  0.00    +0.043 S 
ATOM     30  O   UNL     1      11.564   0.712  24.883  0.00  0.00    -0.259 OA
ATOM     31  O   UNL     1       9.678   2.192  24.436  0.00  0.00    -0.336 OA
ATOM     32  O   UNL     1      10.401   0.534  22.750  0.00  0.00    -0.336 OA
ENDBRANCH  28  29
ENDBRANCH  12  28
TORSDOF 7
ENDMDL
MODEL 6
REMARK VINA RESULT:      -6.8      2.771      3.638
REMARK  Name = 
REMARK  7 active torsions:
REMARK  status: ('A' for Active; 'I' for Inactive)
REMARK    1  A    between atoms: C_3  and  O_26
REMARK    2  A    between atoms: C_4  and  O_25
REMARK    3  A    between atoms: C_6  and  C_7
REMARK    4  A    between atoms: C_8  and  O_20
REMARK    5  A    between atoms: C_14  and  O_18
REMARK    6  A    between atoms: O_20  and  S_21
REMARK    7  A    between atoms: O_26  and  S_27
REMARK                            x       y       z     vdW  Elec       q    Type
REMARK                         _______ _______ _______ _____ _____    ______ ____
ROOT
ATOM      1  C   UNL     1       6.492  -1.745  24.794  0.00  0.00    +0.184 A 
ATOM      2  O   UNL     1       5.565  -0.974  25.487  0.00  0.00    -0.451 OA
ATOM      3  C   UNL     1       5.493   0.380  25.292  0.00  0.00    +0.142 A 
ATOM      4  C   UNL     1       6.234   1.076  24.326  0.00  0.00    +0.060 A 
ATOM      5  C   UNL     1       6.081   2.503  24.170  0.00  0.00    -0.090 A 
ATOM      6  O   UNL     1       6.690   3.256  23.336  0.00  0.00    -0.873 OA
ATOM      7  C   UNL     1       5.157   3.110  25.054  0.00  0.00    +0.038 A 
ATOM      8  C   UNL     1       4.439   2.406  26.014  0.00  0.00    +0.120 A 
ATOM      9  C   UNL     1       7.166   0.232  23.502  0.00  0.00    +0.237 A 
ATOM     10  O   UNL     1       7.824   0.666  22.559  0.00  0.00    -0.283 OA
ATOM     11  C   UNL     1       4.598   1.043  26.139  0.00  0.00    +0.092 A 
ATOM     12  C   UNL     1       7.308  -1.236  23.841  0.00  0.00    +0.244 A 
ENDROOT
BRANCH   1  14
ATOM     13  C   UNL     1       5.104  -3.749  25.271  0.00  0.00    +0.015 A 
ATOM     14  C   UNL     1       6.375  -3.143  25.279  0.00  0.00    +0.025 A 
ATOM     15  C   UNL     1       7.416  -3.800  25.948  0.00  0.00    +0.061 A 
ATOM     16  C   UNL     1       7.157  -4.998  26.628  0.00  0.00    +0.162 A 
ATOM     17  C   UNL     1       5.870  -5.552  26.683  0.00  0.00    +0.196 A 
ATOM     18  C   UNL     1       4.852  -4.944  25.962  0.00  0.00    +0.053 A 
BRANCH  16  19
ATOM     19  O   UNL     1       8.195  -5.621  27.280  0.00  0.00    -0.503 OA
ATOM     20  H   UNL     1       8.756  -5.965  26.558  0.00  0.00    +0.292 HD
ENDBRANCH  16  19
BRANCH  17  21
ATOM     21  O   UNL     1       5.721  -6.707  27.415  0.00  0.00    -0.357 OA
BRANCH  21  22
ATOM     22  S   UNL     1       5.703  -6.721  29.058  0.00  0.00    +0.043 S 
ATOM     23  O   UNL     1       6.832  -7.594  29.393  0.00  0.00    -0.259 OA
ATOM     24  O   UNL     1       4.408  -7.288  29.431  0.00  0.00    -0.336 OA
ATOM     25  O   UNL     1       5.906  -5.335  29.470  0.00  0.00    -0.336 OA
ENDBRANCH  21  22
ENDBRANCH  17  21
ENDBRANCH   1  14
BRANCH   8  26
ATOM     26  O   UNL     1       3.568   3.057  26.843  0.00  0.00    -0.507 OA
ATOM     27  H   UNL     1       2.706   2.639  26.694  0.00  0.00    +0.292 HD
ENDBRANCH   8  26
BRANCH  12  28
ATOM     28  O   UNL     1       8.328  -1.827  23.124  0.00  0.00    -0.353 OA
BRANCH  28  29
ATOM     29  S   UNL     1       9.911  -1.944  23.449  0.00  0.00    +0.043 S 
ATOM     30  O   UNL     1      10.063  -3.304  23.966  0.00  0.00    -0.259 OA
ATOM     31  O   UNL     1      10.197  -0.918  24.449  0.00  0.00    -0.336 OA
ATOM     32  O   UNL     1      10.557  -1.756  22.151  0.00  0.00    -0.336 OA
ENDBRANCH  28  29
ENDBRANCH  12  28
TORSDOF 7
ENDMDL
MODEL 7
REMARK VINA RESULT:      -6.6      2.565      3.342
REMARK  Name = 
REMARK  7 active torsions:
REMARK  status: ('A' for Active; 'I' for Inactive)
REMARK    1  A    between atoms: C_3  and  O_26
REMARK    2  A    between atoms: C_4  and  O_25
REMARK    3  A    between atoms: C_6  and  C_7
REMARK    4  A    between atoms: C_8  and  O_20
REMARK    5  A    between atoms: C_14  and  O_18
REMARK    6  A    between atoms: O_20  and  S_21
REMARK    7  A    between atoms: O_26  and  S_27
REMARK                            x       y       z     vdW  Elec       q    Type
REMARK                         _______ _______ _______ _____ _____    ______ ____
ROOT
ATOM      1  C   UNL     1       7.197  -2.446  24.781  0.00  0.00    +0.184 A 
ATOM      2  O   UNL     1       7.287  -1.150  25.277  0.00  0.00    -0.451 OA
ATOM      3  C   UNL     1       7.958  -0.178  24.583  0.00  0.00    +0.142 A 
ATOM      4  C   UNL     1       8.492  -0.356  23.299  0.00  0.00    +0.060 A 
ATOM      5  C   UNL     1       9.164   0.730  22.625  0.00  0.00    -0.090 A 
ATOM      6  O   UNL     1       9.694   0.704  21.462  0.00  0.00    -0.873 OA
ATOM      7  C   UNL     1       9.237   1.939  23.357  0.00  0.00    +0.038 A 
ATOM      8  C   UNL     1       8.712   2.095  24.634  0.00  0.00    +0.120 A 
ATOM      9  C   UNL     1       8.308  -1.728  22.713  0.00  0.00    +0.237 A 
ATOM     10  O   UNL     1       8.640  -2.030  21.567  0.00  0.00    -0.283 OA
ATOM     11  C   UNL     1       8.070   1.045  25.254  0.00  0.00    +0.092 A 
ATOM     12  C   UNL     1       7.679  -2.805  23.569  0.00  0.00    +0.244 A 
ENDROOT
BRANCH   1  14
ATOM     13  C   UNL     1       5.251  -2.810  26.282  0.00  0.00    +0.015 A 
ATOM     14  C   UNL     1       6.487  -3.271  25.790  0.00  0.00    +0.025 A 
ATOM     15  C   UNL     1       7.090  -4.359  26.437  0.00  0.00    +0.061 A 
ATOM     16  C   UNL     1       6.483  -4.915  27.571  0.00  0.00    +0.162 A 
ATOM     17  C   UNL     1       5.294  -4.397  28.101  0.00  0.00    +0.196 A 
ATOM     18  C   UNL     1       4.655  -3.368  27.423  0.00  0.00    +0.053 A 
BRANCH  16  19
ATOM     19  O   UNL     1       7.097  -5.980  28.188  0.00  0.00    -0.503 OA
ATOM     20  H   UNL     1       7.757  -6.285  27.537  0.00  0.00    +0.292 HD
ENDBRANCH  16  19
BRANCH  17  21
ATOM     21  O   UNL     1       4.809  -4.993  29.243  0.00  0.00    -0.357 OA
BRANCH  21  22
ATOM     22  S   UNL     1       3.844  -6.321  29.208  0.00  0.00    +0.043 S 
ATOM     23  O   UNL     1       3.208  -6.234  27.890  0.00  0.00    -0.259 OA
ATOM     24  O   UNL     1       2.902  -6.150  30.313  0.00  0.00    -0.336 OA
ATOM     25  O   UNL     1       4.738  -7.468  29.340  0.00  0.00    -0.336 OA
ENDBRANCH  21  22
ENDBRANCH  17  21
ENDBRANCH   1  14
BRANCH   8  26
ATOM     26  O   UNL     1       8.826   3.290  25.289  0.00  0.00    -0.507 OA
ATOM     27  H   UNL     1       9.027   3.063  26.210  0.00  0.00    +0.292 HD
ENDBRANCH   8  26
BRANCH  12  28
ATOM     28  O   UNL     1       7.749  -4.043  22.962  0.00  0.00    -0.353 OA
BRANCH  28  29
ATOM     29  S   UNL     1       6.596  -4.934  22.253  0.00  0.00    +0.043 S 
ATOM     30  O   UNL     1       5.973  -5.650  23.366  0.00  0.00    -0.259 OA
ATOM     31  O   UNL     1       7.285  -5.820  21.318  0.00  0.00    -0.336 OA
ATOM     32  O   UNL     1       5.705  -3.946  21.645  0.00  0.00    -0.336 OA
ENDBRANCH  28  29
ENDBRANCH  12  28
TORSDOF 7
ENDMDL
MODEL 8
REMARK VINA RESULT:      -6.5      3.327      8.431
REMARK  Name = 
REMARK  7 active torsions:
REMARK  status: ('A' for Active; 'I' for Inactive)
REMARK    1  A    between atoms: C_3  and  O_26
REMARK    2  A    between atoms: C_4  and  O_25
REMARK    3  A    between atoms: C_6  and  C_7
REMARK    4  A    between atoms: C_8  and  O_20
REMARK    5  A    between atoms: C_14  and  O_18
REMARK    6  A    between atoms: O_20  and  S_21
REMARK    7  A    between atoms: O_26  and  S_27
REMARK                            x       y       z     vdW  Elec       q    Type
REMARK                         _______ _______ _______ _____ _____    ______ ____
ROOT
ATOM      1  C   UNL     1       7.113  -0.487  23.839  0.00  0.00    +0.184 A 
ATOM      2  O   UNL     1       7.436  -1.522  22.969  0.00  0.00    -0.451 OA
ATOM      3  C   UNL     1       6.811  -2.738  23.062  0.00  0.00    +0.142 A 
ATOM      4  C   UNL     1       5.743  -3.008  23.928  0.00  0.00    +0.060 A 
ATOM      5  C   UNL     1       5.123  -4.312  23.946  0.00  0.00    -0.090 A 
ATOM      6  O   UNL     1       4.149  -4.691  24.682  0.00  0.00    -0.873 OA
ATOM      7  C   UNL     1       5.680  -5.256  23.050  0.00  0.00    +0.038 A 
ATOM      8  C   UNL     1       6.747  -4.974  22.207  0.00  0.00    +0.120 A 
ATOM      9  C   UNL     1       5.320  -1.860  24.802  0.00  0.00    +0.237 A 
ATOM     10  O   UNL     1       4.348  -1.899  25.556  0.00  0.00    -0.283 OA
ATOM     11  C   UNL     1       7.318  -3.720  22.203  0.00  0.00    +0.092 A 
ATOM     12  C   UNL     1       6.123  -0.579  24.757  0.00  0.00    +0.244 A 
ENDROOT
BRANCH   1  14
ATOM     13  C   UNL     1       9.219   0.766  24.250  0.00  0.00    +0.015 A 
ATOM     14  C   UNL     1       8.009   0.658  23.538  0.00  0.00    +0.025 A 
ATOM     15  C   UNL     1       7.606   1.746  22.752  0.00  0.00    +0.061 A 
ATOM     16  C   UNL     1       8.378   2.916  22.738  0.00  0.00    +0.162 A 
ATOM     17  C   UNL     1       9.539   3.043  23.514  0.00  0.00    +0.196 A 
ATOM     18  C   UNL     1       9.981   1.943  24.236  0.00  0.00    +0.053 A 
BRANCH  16  19
ATOM     19  O   UNL     1       7.960   3.970  21.961  0.00  0.00    -0.503 OA
ATOM     20  H   UNL     1       7.366   4.477  22.548  0.00  0.00    +0.292 HD
ENDBRANCH  16  19
BRANCH  17  21
ATOM     21  O   UNL     1      10.196   4.251  23.457  0.00  0.00    -0.357 OA
BRANCH  21  22
ATOM     22  S   UNL     1       9.675   5.583  24.264  0.00  0.00    +0.043 S 
ATOM     23  O   UNL     1      10.924   6.215  24.700  0.00  0.00    -0.259 OA
ATOM     24  O   UNL     1       8.868   5.078  25.374  0.00  0.00    -0.336 OA
ATOM     25  O   UNL     1       8.939   6.379  23.286  0.00  0.00    -0.336 OA
ENDBRANCH  21  22
ENDBRANCH  17  21
ENDBRANCH   1  14
BRANCH   8  26
ATOM     26  O   UNL     1       7.243  -5.937  21.371  0.00  0.00    -0.507 OA
ATOM     27  H   UNL     1       6.505  -6.544  21.208  0.00  0.00    +0.292 HD
ENDBRANCH   8  26
BRANCH  12  28
ATOM     28  O   UNL     1       5.727   0.304  25.742  0.00  0.00    -0.353 OA
BRANCH  28  29
ATOM     29  S   UNL     1       6.511   0.831  27.058  0.00  0.00    +0.043 S 
ATOM     30  O   UNL     1       7.532  -0.191  27.292  0.00  0.00    -0.259 OA
ATOM     31  O   UNL     1       5.515   0.899  28.124  0.00  0.00    -0.336 OA
ATOM     32  O   UNL     1       7.079   2.114  26.645  0.00  0.00    -0.336 OA
ENDBRANCH  28  29
ENDBRANCH  12  28
TORSDOF 7
ENDMDL
MODEL 9
REMARK VINA RESULT:      -6.5      3.159      7.186
REMARK  Name = 
REMARK  7 active torsions:
REMARK  status: ('A' for Active; 'I' for Inactive)
REMARK    1  A    between atoms: C_3  and  O_26
REMARK    2  A    between atoms: C_4  and  O_25
REMARK    3  A    between atoms: C_6  and  C_7
REMARK    4  A    between atoms: C_8  and  O_20
REMARK    5  A    between atoms: C_14  and  O_18
REMARK    6  A    between atoms: O_20  and  S_21
REMARK    7  A    between atoms: O_26  and  S_27
REMARK                            x       y       z     vdW  Elec       q    Type
REMARK                         _______ _______ _______ _____ _____    ______ ____
ROOT
ATOM      1  C   UNL     1       6.959  -0.579  24.121  0.00  0.00    +0.184 A 
ATOM      2  O   UNL     1       6.023  -1.490  23.645  0.00  0.00    -0.451 OA
ATOM      3  C   UNL     1       6.348  -2.812  23.486  0.00  0.00    +0.142 A 
ATOM      4  C   UNL     1       7.568  -3.375  23.888  0.00  0.00    +0.060 A 
ATOM      5  C   UNL     1       7.822  -4.785  23.707  0.00  0.00    -0.090 A 
ATOM      6  O   UNL     1       8.883  -5.423  24.025  0.00  0.00    -0.873 OA
ATOM      7  C   UNL     1       6.769  -5.513  23.102  0.00  0.00    +0.038 A 
ATOM      8  C   UNL     1       5.571  -4.936  22.699  0.00  0.00    +0.120 A 
ATOM      9  C   UNL     1       8.548  -2.413  24.499  0.00  0.00    +0.237 A 
ATOM     10  O   UNL     1       9.627  -2.753  24.981  0.00  0.00    -0.283 OA
ATOM     11  C   UNL     1       5.350  -3.589  22.889  0.00  0.00    +0.092 A 
ATOM     12  C   UNL     1       8.196  -0.941  24.533  0.00  0.00    +0.244 A 
ENDROOT
BRANCH   1  14
ATOM     13  C   UNL     1       5.412   1.091  25.117  0.00  0.00    +0.015 A 
ATOM     14  C   UNL     1       6.334   0.767  24.103  0.00  0.00    +0.025 A 
ATOM     15  C   UNL     1       6.444   1.637  23.009  0.00  0.00    +0.061 A 
ATOM     16  C   UNL     1       5.608   2.758  22.927  0.00  0.00    +0.162 A 
ATOM     17  C   UNL     1       4.637   3.028  23.901  0.00  0.00    +0.196 A 
ATOM     18  C   UNL     1       4.573   2.212  25.022  0.00  0.00    +0.053 A 
BRANCH  16  19
ATOM     19  O   UNL     1       5.734   3.594  21.842  0.00  0.00    -0.503 OA
ATOM     20  H   UNL     1       5.173   3.181  21.157  0.00  0.00    +0.292 HD
ENDBRANCH  16  19
BRANCH  17  21
ATOM     21  O   UNL     1       3.842   4.133  23.699  0.00  0.00    -0.357 OA
BRANCH  21  22
ATOM     22  S   UNL     1       2.434   4.070  22.854  0.00  0.00    +0.043 S 
ATOM     23  O   UNL     1       1.656   5.173  23.426  0.00  0.00    -0.259 OA
ATOM     24  O   UNL     1       1.863   2.755  23.142  0.00  0.00    -0.336 OA
ATOM     25  O   UNL     1       2.798   4.287  21.457  0.00  0.00    -0.336 OA
ENDBRANCH  21  22
ENDBRANCH  17  21
ENDBRANCH   1  14
BRANCH   8  26
ATOM     26  O   UNL     1       4.598  -5.698  22.112  0.00  0.00    -0.507 OA
ATOM     27  H   UNL     1       4.429  -5.284  21.251  0.00  0.00    +0.292 HD
ENDBRANCH   8  26
BRANCH  12  28
ATOM     28  O   UNL     1       9.264  -0.173  24.949  0.00  0.00    -0.353 OA
BRANCH  28  29
ATOM     29  S   UNL     1      10.180   0.885  24.132  0.00  0.00    +0.043 S 
ATOM     30  O   UNL     1       9.983   0.511  22.731  0.00  0.00    -0.259 OA
ATOM     31  O   UNL     1      11.551   0.675  24.591  0.00  0.00    -0.336 OA
ATOM     32  O   UNL     1       9.599   2.187  24.458  0.00  0.00    -0.336 OA
ENDBRANCH  28  29
ENDBRANCH  12  28
TORSDOF 7
ENDMDL
