MODEL 1
REMARK VINA RESULT:      -7.4      0.000      0.000
REMARK  Name = 
REMARK  23 active torsions:
REMARK  status: ('A' for Active; 'I' for Inactive)
REMARK    1  A    between atoms: C_1  and  C_2
REMARK    2  A    between atoms: C_3  and  O_54
REMARK    3  A    between atoms: C_4  and  O_53
REMARK    4  A    between atoms: C_5  and  O_52
REMARK    5  A    between atoms: C_6  and  O_8
REMARK    6  A    between atoms: O_8  and  C_9
REMARK    7  A    between atoms: C_9  and  C_10
REMARK    8  A    between atoms: C_11  and  O_51
REMARK    9  A    between atoms: C_12  and  O_50
REMARK   10  A    between atoms: C_13  and  O_49
REMARK   11  A    between atoms: C_14  and  O_16
REMARK   12  A    between atoms: O_16  and  C_17
REMARK   13  A    between atoms: C_18  and  C_41
REMARK   14  A    between atoms: C_22  and  O_29
REMARK   15  A    between atoms: C_24  and  O_28
REMARK   16  A    between atoms: O_29  and  C_30
REMARK   17  A    between atoms: C_31  and  O_40
REMARK   18  A    between atoms: C_32  and  O_39
REMARK   19  A    between atoms: C_33  and  O_38
REMARK   20  A    between atoms: C_34  and  C_36
REMARK   21  A    between atoms: C_36  and  O_37
REMARK   22  A    between atoms: C_43  and  O_48
REMARK   23  A    between atoms: C_44  and  O_47
REMARK                            x       y       z     vdW  Elec       q    Type
REMARK                         _______ _______ _______ _____ _____    ______ ____
ROOT
ATOM      1  C   UNL     1       3.469  -2.177  27.065  0.00  0.00    +0.214 A 
ATOM      2  C   UNL     1       3.089  -0.742  26.866  0.00  0.00    +0.238 A 
ATOM      3  O   UNL     1       1.917  -0.416  27.052  0.00  0.00    -0.283 OA
ATOM      4  C   UNL     1       4.183   0.220  26.552  0.00  0.00    +0.109 A 
ATOM      5  C   UNL     1       5.485  -0.188  26.788  0.00  0.00    +0.147 A 
ATOM      6  C   UNL     1       6.591   0.631  26.496  0.00  0.00    +0.093 A 
ATOM      7  C   UNL     1       6.410   1.851  25.848  0.00  0.00    +0.131 A 
ATOM      8  C   UNL     1       5.103   2.309  25.665  0.00  0.00    +0.092 A 
ATOM      9  O   UNL     1       5.772  -1.418  27.306  0.00  0.00    -0.451 OA
ATOM     10  C   UNL     1       3.997   1.505  26.027  0.00  0.00    +0.135 A 
ATOM     11  C   UNL     1       4.787  -2.398  27.323  0.00  0.00    +0.181 A 
ENDROOT
BRANCH  11  12
ATOM     12  C   UNL     1       5.372  -3.701  27.748  0.00  0.00    +0.025 A 
ATOM     13  C   UNL     1       4.930  -4.372  28.896  0.00  0.00    +0.015 A 
ATOM     14  C   UNL     1       5.615  -5.487  29.390  0.00  0.00    +0.050 A 
ATOM     15  C   UNL     1       6.675  -6.017  28.662  0.00  0.00    +0.158 A 
ATOM     16  C   UNL     1       7.075  -5.414  27.479  0.00  0.00    +0.159 A 
ATOM     17  C   UNL     1       6.478  -4.230  27.056  0.00  0.00    +0.060 A 
BRANCH  16  18
ATOM     18  O   UNL     1       7.962  -6.015  26.631  0.00  0.00    -0.503 OA
ATOM     19  H   UNL     1       8.175  -6.886  27.004  0.00  0.00    +0.292 HD
ENDBRANCH  16  18
BRANCH  15  20
ATOM     20  O   UNL     1       7.270  -7.168  29.084  0.00  0.00    -0.503 OA
ATOM     21  H   UNL     1       7.187  -7.166  30.054  0.00  0.00    +0.292 HD
ENDBRANCH  15  20
ENDBRANCH  11  12
BRANCH  10  22
ATOM     22  O   UNL     1       2.737   1.995  25.832  0.00  0.00    -0.506 OA
ATOM     23  H   UNL     1       2.170   1.763  26.587  0.00  0.00    +0.292 HD
ENDBRANCH  10  22
BRANCH   7  24
ATOM     24  O   UNL     1       7.557   2.476  25.411  0.00  0.00    -0.461 OA
BRANCH  24  25
ATOM     25  C   UNL     1       7.733   2.548  23.981  0.00  0.00    +0.339 C 
ATOM     26  O   UNL     1       8.438   1.418  23.447  0.00  0.00    -0.331 OA
ATOM     27  C   UNL     1       9.819   1.352  23.858  0.00  0.00    +0.179 C 
ATOM     28  C   UNL     1      10.562   2.556  23.272  0.00  0.00    +0.177 C 
ATOM     29  C   UNL     1       9.935   3.853  23.805  0.00  0.00    +0.180 C 
ATOM     30  C   UNL     1       8.418   3.870  23.542  0.00  0.00    +0.214 C 
BRANCH  29  31
ATOM     31  O   UNL     1      10.570   4.964  23.153  0.00  0.00    -0.386 OA
ATOM     32  H   UNL     1      11.166   5.369  23.815  0.00  0.00    +0.210 HD
ENDBRANCH  29  31
BRANCH  30  33
ATOM     33  O   UNL     1       7.786   5.015  24.124  0.00  0.00    -0.383 OA
ATOM     34  H   UNL     1       6.824   4.864  24.118  0.00  0.00    +0.210 HD
ENDBRANCH  30  33
BRANCH  28  35
ATOM     35  O   UNL     1      10.469   2.565  21.834  0.00  0.00    -0.386 OA
ATOM     36  H   UNL     1      11.026   1.838  21.491  0.00  0.00    +0.210 HD
ENDBRANCH  28  35
BRANCH  27  37
ATOM     37  C   UNL     1      10.411   0.029  23.347  0.00  0.00    +0.190 C 
BRANCH  37  38
ATOM     38  O   UNL     1       9.892  -0.312  22.061  0.00  0.00    -0.392 OA
ATOM     39  H   UNL     1       8.927  -0.402  22.133  0.00  0.00    +0.210 HD
ENDBRANCH  37  38
ENDBRANCH  27  37
ENDBRANCH  24  25
ENDBRANCH   7  24
BRANCH   1  40
ATOM     40  O   UNL     1       2.541  -3.193  27.178  0.00  0.00    -0.453 OA
BRANCH  40  43
ATOM     41  C   UNL     1       1.792  -5.858  24.541  0.00  0.00    +0.179 C 
ATOM     42  O   UNL     1       2.009  -4.544  25.164  0.00  0.00    -0.331 OA
ATOM     43  C   UNL     1       2.501  -4.482  26.513  0.00  0.00    +0.340 C 
ATOM     44  C   UNL     1       1.885  -5.521  27.483  0.00  0.00    +0.214 C 
ATOM     45  C   UNL     1       2.057  -6.900  26.851  0.00  0.00    +0.180 C 
ATOM     46  C   UNL     1       1.292  -6.946  25.523  0.00  0.00    +0.177 C 
BRANCH  46  47
ATOM     47  O   UNL     1       1.326  -8.258  24.961  0.00  0.00    -0.386 OA
ATOM     48  H   UNL     1       0.436  -8.478  24.636  0.00  0.00    +0.210 HD
ENDBRANCH  46  47
BRANCH  45  49
ATOM     49  O   UNL     1       1.587  -7.932  27.729  0.00  0.00    -0.386 OA
ATOM     50  H   UNL     1       1.264  -8.652  27.153  0.00  0.00    +0.210 HD
ENDBRANCH  45  49
BRANCH  44  51
ATOM     51  O   UNL     1       0.492  -5.313  27.772  0.00  0.00    -0.383 OA
ATOM     52  H   UNL     1       0.036  -6.185  27.727  0.00  0.00    +0.210 HD
ENDBRANCH  44  51
BRANCH  41  53
ATOM     53  C   UNL     1       2.969  -6.315  23.603  0.00  0.00    +0.197 C 
BRANCH  53  54
ATOM     54  O   UNL     1       3.546  -5.361  22.671  0.00  0.00    -0.346 OA
BRANCH  54  58
ATOM     55  C   UNL     1       6.048  -1.887  23.579  0.00  0.00    +0.041 C 
ATOM     56  C   UNL     1       6.189  -2.836  22.388  0.00  0.00    +0.149 C 
ATOM     57  O   UNL     1       4.982  -3.579  22.187  0.00  0.00    -0.343 OA
ATOM     58  C   UNL     1       4.711  -4.627  23.113  0.00  0.00    +0.282 C 
ATOM     59  C   UNL     1       5.944  -5.602  23.200  0.00  0.00    +0.201 C 
ATOM     60  C   UNL     1       7.237  -4.827  23.517  0.00  0.00    +0.179 C 
ATOM     61  C   UNL     1       7.443  -3.725  22.463  0.00  0.00    +0.174 C 
BRANCH  61  62
ATOM     62  O   UNL     1       8.612  -2.933  22.711  0.00  0.00    -0.387 OA
ATOM     63  H   UNL     1       9.390  -3.406  22.371  0.00  0.00    +0.210 HD
ENDBRANCH  61  62
BRANCH  60  64
ATOM     64  O   UNL     1       8.376  -5.706  23.539  0.00  0.00    -0.386 OA
ATOM     65  H   UNL     1       8.420  -6.060  24.450  0.00  0.00    +0.210 HD
ENDBRANCH  60  64
BRANCH  59  66
ATOM     66  O   UNL     1       6.176  -6.300  21.953  0.00  0.00    -0.384 OA
ATOM     67  H   UNL     1       5.361  -6.810  21.797  0.00  0.00    +0.210 HD
ENDBRANCH  59  66
ENDBRANCH  54  58
ENDBRANCH  53  54
ENDBRANCH  41  53
ENDBRANCH  40  43
ENDBRANCH   1  40
TORSDOF 22
ENDMDL
MODEL 2
REMARK VINA RESULT:      -6.9      1.743      2.628
REMARK  Name = 
REMARK  23 active torsions:
REMARK  status: ('A' for Active; 'I' for Inactive)
REMARK    1  A    between atoms: C_1  and  C_2
REMARK    2  A    between atoms: C_3  and  O_54
REMARK    3  A    between atoms: C_4  and  O_53
REMARK    4  A    between atoms: C_5  and  O_52
REMARK    5  A    between atoms: C_6  and  O_8
REMARK    6  A    between atoms: O_8  and  C_9
REMARK    7  A    between atoms: C_9  and  C_10
REMARK    8  A    between atoms: C_11  and  O_51
REMARK    9  A    between atoms: C_12  and  O_50
REMARK   10  A    between atoms: C_13  and  O_49
REMARK   11  A    between atoms: C_14  and  O_16
REMARK   12  A    between atoms: O_16  and  C_17
REMARK   13  A    between atoms: C_18  and  C_41
REMARK   14  A    between atoms: C_22  and  O_29
REMARK   15  A    between atoms: C_24  and  O_28
REMARK   16  A    between atoms: O_29  and  C_30
REMARK   17  A    between atoms: C_31  and  O_40
REMARK   18  A    between atoms: C_32  and  O_39
REMARK   19  A    between atoms: C_33  and  O_38
REMARK   20  A    between atoms: C_34  and  C_36
REMARK   21  A    between atoms: C_36  and  O_37
REMARK   22  A    between atoms: C_43  and  O_48
REMARK   23  A    between atoms: C_44  and  O_47
REMARK                            x       y       z     vdW  Elec       q    Type
REMARK                         _______ _______ _______ _____ _____    ______ ____
ROOT
ATOM      1  C   UNL     1       4.730  -2.001  26.991  0.00  0.00    +0.214 A 
ATOM      2  C   UNL     1       3.826  -0.837  27.257  0.00  0.00    +0.238 A 
ATOM      3  O   UNL     1       2.827  -1.018  27.952  0.00  0.00    -0.283 OA
ATOM      4  C   UNL     1       4.254   0.495  26.742  0.00  0.00    +0.109 A 
ATOM      5  C   UNL     1       5.576   0.640  26.358  0.00  0.00    +0.147 A 
ATOM      6  C   UNL     1       6.074   1.846  25.828  0.00  0.00    +0.093 A 
ATOM      7  C   UNL     1       5.210   2.908  25.569  0.00  0.00    +0.131 A 
ATOM      8  C   UNL     1       3.890   2.804  26.013  0.00  0.00    +0.092 A 
ATOM      9  O   UNL     1       6.473  -0.383  26.456  0.00  0.00    -0.451 OA
ATOM     10  C   UNL     1       3.419   1.611  26.608  0.00  0.00    +0.135 A 
ATOM     11  C   UNL     1       6.010  -1.679  26.659  0.00  0.00    +0.181 A 
ENDROOT
BRANCH  11  12
ATOM     12  C   UNL     1       7.137  -2.646  26.542  0.00  0.00    +0.025 A 
ATOM     13  C   UNL     1       8.319  -2.327  25.860  0.00  0.00    +0.015 A 
ATOM     14  C   UNL     1       9.283  -3.303  25.590  0.00  0.00    +0.050 A 
ATOM     15  C   UNL     1       9.130  -4.581  26.115  0.00  0.00    +0.158 A 
ATOM     16  C   UNL     1       8.004  -4.894  26.863  0.00  0.00    +0.159 A 
ATOM     17  C   UNL     1       6.983  -3.961  27.021  0.00  0.00    +0.060 A 
BRANCH  16  18
ATOM     18  O   UNL     1       7.913  -6.059  27.570  0.00  0.00    -0.503 OA
ATOM     19  H   UNL     1       6.976  -6.191  27.791  0.00  0.00    +0.292 HD
ENDBRANCH  16  18
BRANCH  15  20
ATOM     20  O   UNL     1      10.122  -5.500  25.948  0.00  0.00    -0.503 OA
ATOM     21  H   UNL     1      10.954  -4.994  25.970  0.00  0.00    +0.292 HD
ENDBRANCH  15  20
ENDBRANCH  11  12
BRANCH  10  22
ATOM     22  O   UNL     1       2.121   1.556  27.030  0.00  0.00    -0.506 OA
ATOM     23  H   UNL     1       1.719   2.440  26.987  0.00  0.00    +0.292 HD
ENDBRANCH  10  22
BRANCH   7  24
ATOM     24  O   UNL     1       5.745   3.957  24.854  0.00  0.00    -0.461 OA
BRANCH  24  25
ATOM     25  C   UNL     1       7.034   3.719  24.252  0.00  0.00    +0.339 C 
ATOM     26  O   UNL     1       8.113   4.315  24.986  0.00  0.00    -0.331 OA
ATOM     27  C   UNL     1       8.099   5.758  24.965  0.00  0.00    +0.179 C 
ATOM     28  C   UNL     1       8.332   6.228  23.527  0.00  0.00    +0.177 C 
ATOM     29  C   UNL     1       7.208   5.696  22.626  0.00  0.00    +0.180 C 
ATOM     30  C   UNL     1       7.078   4.168  22.767  0.00  0.00    +0.214 C 
BRANCH  29  31
ATOM     31  O   UNL     1       7.511   6.050  21.267  0.00  0.00    -0.386 OA
ATOM     32  H   UNL     1       7.190   6.966  21.142  0.00  0.00    +0.210 HD
ENDBRANCH  29  31
BRANCH  30  33
ATOM     33  O   UNL     1       5.967   3.654  22.023  0.00  0.00    -0.383 OA
ATOM     34  H   UNL     1       5.704   4.327  21.370  0.00  0.00    +0.210 HD
ENDBRANCH  30  33
BRANCH  28  35
ATOM     35  O   UNL     1       9.589   5.734  23.024  0.00  0.00    -0.386 OA
ATOM     36  H   UNL     1      10.118   6.502  22.729  0.00  0.00    +0.210 HD
ENDBRANCH  28  35
BRANCH  27  37
ATOM     37  C   UNL     1       9.205   6.265  25.904  0.00  0.00    +0.190 C 
BRANCH  37  38
ATOM     38  O   UNL     1       8.772   6.266  27.265  0.00  0.00    -0.392 OA
ATOM     39  H   UNL     1       9.381   6.821  27.781  0.00  0.00    +0.210 HD
ENDBRANCH  37  38
ENDBRANCH  27  37
ENDBRANCH  24  25
ENDBRANCH   7  24
BRANCH   1  40
ATOM     40  O   UNL     1       4.369  -3.308  27.250  0.00  0.00    -0.453 OA
BRANCH  40  43
ATOM     41  C   UNL     1       1.726  -4.710  24.870  0.00  0.00    +0.179 C 
ATOM     42  O   UNL     1       2.581  -3.751  25.586  0.00  0.00    -0.331 OA
ATOM     43  C   UNL     1       3.648  -4.247  26.411  0.00  0.00    +0.340 C 
ATOM     44  C   UNL     1       3.296  -5.497  27.256  0.00  0.00    +0.214 C 
ATOM     45  C   UNL     1       2.740  -6.555  26.305  0.00  0.00    +0.180 C 
ATOM     46  C   UNL     1       1.461  -6.021  25.649  0.00  0.00    +0.177 C 
BRANCH  46  47
ATOM     47  O   UNL     1       0.844  -7.028  24.846  0.00  0.00    -0.386 OA
ATOM     48  H   UNL     1      -0.031  -6.706  24.566  0.00  0.00    +0.210 HD
ENDBRANCH  46  47
BRANCH  45  49
ATOM     49  O   UNL     1       2.468  -7.780  26.999  0.00  0.00    -0.386 OA
ATOM     50  H   UNL     1       2.398  -8.471  26.311  0.00  0.00    +0.210 HD
ENDBRANCH  45  49
BRANCH  44  51
ATOM     51  O   UNL     1       2.334  -5.259  28.298  0.00  0.00    -0.383 OA
ATOM     52  H   UNL     1       2.731  -4.632  28.945  0.00  0.00    +0.210 HD
ENDBRANCH  44  51
BRANCH  41  53
ATOM     53  C   UNL     1       2.127  -4.913  23.364  0.00  0.00    +0.197 C 
BRANCH  53  54
ATOM     54  O   UNL     1       3.388  -5.561  23.045  0.00  0.00    -0.346 OA
BRANCH  54  58
ATOM     55  C   UNL     1       5.950  -2.017  23.202  0.00  0.00    +0.041 C 
ATOM     56  C   UNL     1       5.927  -3.087  22.111  0.00  0.00    +0.149 C 
ATOM     57  O   UNL     1       4.713  -3.844  22.169  0.00  0.00    -0.343 OA
ATOM     58  C   UNL     1       4.596  -4.786  23.230  0.00  0.00    +0.282 C 
ATOM     59  C   UNL     1       5.840  -5.750  23.238  0.00  0.00    +0.201 C 
ATOM     60  C   UNL     1       7.156  -4.949  23.278  0.00  0.00    +0.179 C 
ATOM     61  C   UNL     1       7.190  -3.966  22.094  0.00  0.00    +0.174 C 
BRANCH  61  62
ATOM     62  O   UNL     1       8.372  -3.156  22.082  0.00  0.00    -0.387 OA
ATOM     63  H   UNL     1       8.642  -3.005  21.161  0.00  0.00    +0.210 HD
ENDBRANCH  61  62
BRANCH  60  64
ATOM     64  O   UNL     1       8.297  -5.823  23.224  0.00  0.00    -0.386 OA
ATOM     65  H   UNL     1       8.034  -6.566  22.644  0.00  0.00    +0.210 HD
ENDBRANCH  60  64
BRANCH  59  66
ATOM     66  O   UNL     1       5.896  -6.578  22.051  0.00  0.00    -0.384 OA
ATOM     67  H   UNL     1       6.706  -6.299  21.590  0.00  0.00    +0.210 HD
ENDBRANCH  59  66
ENDBRANCH  54  58
ENDBRANCH  53  54
ENDBRANCH  41  53
ENDBRANCH  40  43
ENDBRANCH   1  40
TORSDOF 22
ENDMDL
MODEL 3
REMARK VINA RESULT:      -6.7      2.275      9.462
REMARK  Name = 
REMARK  23 active torsions:
REMARK  status: ('A' for Active; 'I' for Inactive)
REMARK    1  A    between atoms: C_1  and  C_2
REMARK    2  A    between atoms: C_3  and  O_54
REMARK    3  A    between atoms: C_4  and  O_53
REMARK    4  A    between atoms: C_5  and  O_52
REMARK    5  A    between atoms: C_6  and  O_8
REMARK    6  A    between atoms: O_8  and  C_9
REMARK    7  A    between atoms: C_9  and  C_10
REMARK    8  A    between atoms: C_11  and  O_51
REMARK    9  A    between atoms: C_12  and  O_50
REMARK   10  A    between atoms: C_13  and  O_49
REMARK   11  A    between atoms: C_14  and  O_16
REMARK   12  A    between atoms: O_16  and  C_17
REMARK   13  A    between atoms: C_18  and  C_41
REMARK   14  A    between atoms: C_22  and  O_29
REMARK   15  A    between atoms: C_24  and  O_28
REMARK   16  A    between atoms: O_29  and  C_30
REMARK   17  A    between atoms: C_31  and  O_40
REMARK   18  A    between atoms: C_32  and  O_39
REMARK   19  A    between atoms: C_33  and  O_38
REMARK   20  A    between atoms: C_34  and  C_36
REMARK   21  A    between atoms: C_36  and  O_37
REMARK   22  A    between atoms: C_43  and  O_48
REMARK   23  A    between atoms: C_44  and  O_47
REMARK                            x       y       z     vdW  Elec       q    Type
REMARK                         _______ _______ _______ _____ _____    ______ ____
ROOT
ATOM      1  C   UNL     1       5.921   2.325  25.648  0.00  0.00    +0.214 A 
ATOM      2  C   UNL     1       6.708   1.359  26.480  0.00  0.00    +0.238 A 
ATOM      3  O   UNL     1       7.632   1.794  27.165  0.00  0.00    -0.283 OA
ATOM      4  C   UNL     1       6.251  -0.060  26.499  0.00  0.00    +0.109 A 
ATOM      5  C   UNL     1       4.974  -0.330  26.037  0.00  0.00    +0.147 A 
ATOM      6  C   UNL     1       4.458  -1.638  25.983  0.00  0.00    +0.093 A 
ATOM      7  C   UNL     1       5.271  -2.727  26.293  0.00  0.00    +0.131 A 
ATOM      8  C   UNL     1       6.536  -2.470  26.825  0.00  0.00    +0.092 A 
ATOM      9  O   UNL     1       4.144   0.658  25.593  0.00  0.00    -0.451 OA
ATOM     10  C   UNL     1       7.018  -1.145  26.940  0.00  0.00    +0.135 A 
ATOM     11  C   UNL     1       4.669   1.914  25.311  0.00  0.00    +0.181 A 
ENDROOT
BRANCH  11  12
ATOM     12  C   UNL     1       3.631   2.766  24.665  0.00  0.00    +0.025 A 
ATOM     13  C   UNL     1       2.438   3.105  25.319  0.00  0.00    +0.015 A 
ATOM     14  C   UNL     1       1.394   3.736  24.636  0.00  0.00    +0.050 A 
ATOM     15  C   UNL     1       1.585   4.149  23.323  0.00  0.00    +0.158 A 
ATOM     16  C   UNL     1       2.790   3.895  22.683  0.00  0.00    +0.159 A 
ATOM     17  C   UNL     1       3.781   3.152  23.319  0.00  0.00    +0.060 A 
BRANCH  16  18
ATOM     18  O   UNL     1       3.098   4.463  21.480  0.00  0.00    -0.503 OA
ATOM     19  H   UNL     1       3.633   5.253  21.661  0.00  0.00    +0.292 HD
ENDBRANCH  16  18
BRANCH  15  20
ATOM     20  O   UNL     1       0.610   4.863  22.694  0.00  0.00    -0.503 OA
ATOM     21  H   UNL     1       1.076   5.474  22.095  0.00  0.00    +0.292 HD
ENDBRANCH  15  20
ENDBRANCH  11  12
BRANCH  10  22
ATOM     22  O   UNL     1       8.261  -0.942  27.470  0.00  0.00    -0.506 OA
ATOM     23  H   UNL     1       8.186  -0.681  28.403  0.00  0.00    +0.292 HD
ENDBRANCH  10  22
BRANCH   7  24
ATOM     24  O   UNL     1       4.750  -3.969  26.002  0.00  0.00    -0.461 OA
BRANCH  24  25
ATOM     25  C   UNL     1       5.665  -4.916  25.414  0.00  0.00    +0.339 C 
ATOM     26  O   UNL     1       6.150  -4.503  24.129  0.00  0.00    -0.331 OA
ATOM     27  C   UNL     1       5.133  -4.481  23.106  0.00  0.00    +0.179 C 
ATOM     28  C   UNL     1       4.648  -5.914  22.869  0.00  0.00    +0.177 C 
ATOM     29  C   UNL     1       4.050  -6.474  24.168  0.00  0.00    +0.180 C 
ATOM     30  C   UNL     1       5.054  -6.341  25.329  0.00  0.00    +0.214 C 
BRANCH  29  31
ATOM     31  O   UNL     1       3.712  -7.853  23.954  0.00  0.00    -0.386 OA
ATOM     32  H   UNL     1       4.528  -8.292  23.639  0.00  0.00    +0.210 HD
ENDBRANCH  29  31
BRANCH  30  33
ATOM     33  O   UNL     1       4.488  -6.753  26.578  0.00  0.00    -0.383 OA
ATOM     34  H   UNL     1       5.216  -7.027  27.164  0.00  0.00    +0.210 HD
ENDBRANCH  30  33
BRANCH  28  35
ATOM     35  O   UNL     1       5.740  -6.765  22.470  0.00  0.00    -0.386 OA
ATOM     36  H   UNL     1       5.596  -7.023  21.537  0.00  0.00    +0.210 HD
ENDBRANCH  28  35
BRANCH  27  37
ATOM     37  C   UNL     1       5.745  -3.881  21.831  0.00  0.00    +0.190 C 
BRANCH  37  38
ATOM     38  O   UNL     1       5.740  -4.824  20.758  0.00  0.00    -0.392 OA
ATOM     39  H   UNL     1       6.411  -4.554  20.109  0.00  0.00    +0.210 HD
ENDBRANCH  37  38
ENDBRANCH  27  37
ENDBRANCH  24  25
ENDBRANCH   7  24
BRANCH   1  40
ATOM     40  O   UNL     1       6.339   3.617  25.399  0.00  0.00    -0.453 OA
BRANCH  40  43
ATOM     41  C   UNL     1       9.865   4.608  24.303  0.00  0.00    +0.179 C 
ATOM     42  O   UNL     1       8.772   3.976  25.056  0.00  0.00    -0.331 OA
ATOM     43  C   UNL     1       7.427   4.086  24.561  0.00  0.00    +0.340 C 
ATOM     44  C   UNL     1       7.050   5.478  23.995  0.00  0.00    +0.214 C 
ATOM     45  C   UNL     1       8.099   5.850  22.950  0.00  0.00    +0.180 C 
ATOM     46  C   UNL     1       9.473   5.943  23.625  0.00  0.00    +0.177 C 
BRANCH  46  47
ATOM     47  O   UNL     1      10.461   6.409  22.705  0.00  0.00    -0.386 OA
ATOM     48  H   UNL     1      11.338   6.137  23.029  0.00  0.00    +0.210 HD
ENDBRANCH  46  47
BRANCH  45  49
ATOM     49  O   UNL     1       7.775   7.094  22.313  0.00  0.00    -0.386 OA
ATOM     50  H   UNL     1       7.952   6.964  21.361  0.00  0.00    +0.210 HD
ENDBRANCH  45  49
BRANCH  44  51
ATOM     51  O   UNL     1       6.985   6.524  24.980  0.00  0.00    -0.383 OA
ATOM     52  H   UNL     1       6.037   6.739  25.137  0.00  0.00    +0.210 HD
ENDBRANCH  44  51
BRANCH  41  53
ATOM     53  C   UNL     1      10.654   3.611  23.377  0.00  0.00    +0.197 C 
BRANCH  53  54
ATOM     54  O   UNL     1      11.167   2.373  23.939  0.00  0.00    -0.346 OA
BRANCH  54  58
ATOM     55  C   UNL     1       9.078  -0.303  21.177  0.00  0.00    +0.041 C 
ATOM     56  C   UNL     1       8.553   0.238  22.507  0.00  0.00    +0.149 C 
ATOM     57  O   UNL     1       9.308   1.382  22.922  0.00  0.00    -0.343 OA
ATOM     58  C   UNL     1      10.616   1.137  23.429  0.00  0.00    +0.282 C 
ATOM     59  C   UNL     1      10.557   0.073  24.587  0.00  0.00    +0.201 C 
ATOM     60  C   UNL     1       9.834  -1.206  24.122  0.00  0.00    +0.179 C 
ATOM     61  C   UNL     1       8.434  -0.839  23.600  0.00  0.00    +0.174 C 
BRANCH  61  62
ATOM     62  O   UNL     1       7.710  -1.977  23.113  0.00  0.00    -0.387 OA
ATOM     63  H   UNL     1       8.015  -2.769  23.585  0.00  0.00    +0.210 HD
ENDBRANCH  61  62
BRANCH  60  64
ATOM     64  O   UNL     1       9.724  -2.158  25.195  0.00  0.00    -0.386 OA
ATOM     65  H   UNL     1      10.640  -2.326  25.495  0.00  0.00    +0.210 HD
ENDBRANCH  60  64
BRANCH  59  66
ATOM     66  O   UNL     1       9.831   0.562  25.740  0.00  0.00    -0.384 OA
ATOM     67  H   UNL     1       8.910   0.284  25.592  0.00  0.00    +0.210 HD
ENDBRANCH  59  66
ENDBRANCH  54  58
ENDBRANCH  53  54
ENDBRANCH  41  53
ENDBRANCH  40  43
ENDBRANCH   1  40
TORSDOF 22
ENDMDL
MODEL 4
REMARK VINA RESULT:      -6.4      2.510      9.453
REMARK  Name = 
REMARK  23 active torsions:
REMARK  status: ('A' for Active; 'I' for Inactive)
REMARK    1  A    between atoms: C_1  and  C_2
REMARK    2  A    between atoms: C_3  and  O_54
REMARK    3  A    between atoms: C_4  and  O_53
REMARK    4  A    between atoms: C_5  and  O_52
REMARK    5  A    between atoms: C_6  and  O_8
REMARK    6  A    between atoms: O_8  and  C_9
REMARK    7  A    between atoms: C_9  and  C_10
REMARK    8  A    between atoms: C_11  and  O_51
REMARK    9  A    between atoms: C_12  and  O_50
REMARK   10  A    between atoms: C_13  and  O_49
REMARK   11  A    between atoms: C_14  and  O_16
REMARK   12  A    between atoms: O_16  and  C_17
REMARK   13  A    between atoms: C_18  and  C_41
REMARK   14  A    between atoms: C_22  and  O_29
REMARK   15  A    between atoms: C_24  and  O_28
REMARK   16  A    between atoms: O_29  and  C_30
REMARK   17  A    between atoms: C_31  and  O_40
REMARK   18  A    between atoms: C_32  and  O_39
REMARK   19  A    between atoms: C_33  and  O_38
REMARK   20  A    between atoms: C_34  and  C_36
REMARK   21  A    between atoms: C_36  and  O_37
REMARK   22  A    between atoms: C_43  and  O_48
REMARK   23  A    between atoms: C_44  and  O_47
REMARK                            x       y       z     vdW  Elec       q    Type
REMARK                         _______ _______ _______ _____ _____    ______ ____
ROOT
ATOM      1  C   UNL     1       5.484   2.115  25.909  0.00  0.00    +0.214 A 
ATOM      2  C   UNL     1       5.573   0.788  25.220  0.00  0.00    +0.238 A 
ATOM      3  O   UNL     1       6.059   0.745  24.091  0.00  0.00    -0.283 OA
ATOM      4  C   UNL     1       5.155  -0.416  25.994  0.00  0.00    +0.109 A 
ATOM      5  C   UNL     1       5.036  -0.286  27.368  0.00  0.00    +0.147 A 
ATOM      6  C   UNL     1       4.617  -1.352  28.186  0.00  0.00    +0.093 A 
ATOM      7  C   UNL     1       4.198  -2.552  27.617  0.00  0.00    +0.131 A 
ATOM      8  C   UNL     1       4.377  -2.724  26.242  0.00  0.00    +0.092 A 
ATOM      9  O   UNL     1       5.303   0.889  28.007  0.00  0.00    -0.451 OA
ATOM     10  C   UNL     1       4.865  -1.667  25.438  0.00  0.00    +0.135 A 
ATOM     11  C   UNL     1       5.408   2.061  27.266  0.00  0.00    +0.181 A 
ENDROOT
BRANCH  11  12
ATOM     12  C   UNL     1       5.509   3.233  28.180  0.00  0.00    +0.025 A 
ATOM     13  C   UNL     1       4.458   4.148  28.331  0.00  0.00    +0.015 A 
ATOM     14  C   UNL     1       4.635   5.342  29.035  0.00  0.00    +0.050 A 
ATOM     15  C   UNL     1       5.831   5.571  29.706  0.00  0.00    +0.158 A 
ATOM     16  C   UNL     1       6.856   4.639  29.636  0.00  0.00    +0.159 A 
ATOM     17  C   UNL     1       6.727   3.512  28.829  0.00  0.00    +0.060 A 
BRANCH  16  18
ATOM     18  O   UNL     1       7.956   4.719  30.442  0.00  0.00    -0.503 OA
ATOM     19  H   UNL     1       8.074   5.653  30.680  0.00  0.00    +0.292 HD
ENDBRANCH  16  18
BRANCH  15  20
ATOM     20  O   UNL     1       5.963   6.682  30.484  0.00  0.00    -0.503 OA
ATOM     21  H   UNL     1       6.909   6.913  30.454  0.00  0.00    +0.292 HD
ENDBRANCH  15  20
ENDBRANCH  11  12
BRANCH  10  22
ATOM     22  O   UNL     1       5.026  -1.882  24.099  0.00  0.00    -0.506 OA
ATOM     23  H   UNL     1       4.692  -2.763  23.861  0.00  0.00    +0.292 HD
ENDBRANCH  10  22
BRANCH   7  24
ATOM     24  O   UNL     1       3.604  -3.450  28.476  0.00  0.00    -0.461 OA
BRANCH  24  25
ATOM     25  C   UNL     1       4.501  -4.266  29.257  0.00  0.00    +0.339 C 
ATOM     26  O   UNL     1       5.706  -4.602  28.555  0.00  0.00    -0.331 OA
ATOM     27  C   UNL     1       5.494  -5.483  27.432  0.00  0.00    +0.179 C 
ATOM     28  C   UNL     1       4.988  -6.830  27.956  0.00  0.00    +0.177 C 
ATOM     29  C   UNL     1       3.660  -6.625  28.698  0.00  0.00    +0.180 C 
ATOM     30  C   UNL     1       3.810  -5.549  29.791  0.00  0.00    +0.214 C 
BRANCH  29  31
ATOM     31  O   UNL     1       3.267  -7.878  29.279  0.00  0.00    -0.386 OA
ATOM     32  H   UNL     1       3.654  -8.578  28.714  0.00  0.00    +0.210 HD
ENDBRANCH  29  31
BRANCH  30  33
ATOM     33  O   UNL     1       2.562  -5.256  30.429  0.00  0.00    -0.383 OA
ATOM     34  H   UNL     1       2.175  -6.095  30.736  0.00  0.00    +0.210 HD
ENDBRANCH  30  33
BRANCH  28  35
ATOM     35  O   UNL     1       5.935  -7.411  28.874  0.00  0.00    -0.386 OA
ATOM     36  H   UNL     1       6.231  -6.707  29.486  0.00  0.00    +0.210 HD
ENDBRANCH  28  35
BRANCH  27  37
ATOM     37  C   UNL     1       6.827  -5.640  26.684  0.00  0.00    +0.190 C 
BRANCH  37  38
ATOM     38  O   UNL     1       7.888  -5.979  27.577  0.00  0.00    -0.392 OA
ATOM     39  H   UNL     1       8.451  -6.644  27.147  0.00  0.00    +0.210 HD
ENDBRANCH  37  38
ENDBRANCH  27  37
ENDBRANCH  24  25
ENDBRANCH   7  24
BRANCH   1  40
ATOM     40  O   UNL     1       5.664   3.316  25.253  0.00  0.00    -0.453 OA
BRANCH  40  43
ATOM     41  C   UNL     1       9.280   4.240  24.424  0.00  0.00    +0.179 C 
ATOM     42  O   UNL     1       8.123   3.605  25.072  0.00  0.00    -0.331 OA
ATOM     43  C   UNL     1       6.815   3.796  24.509  0.00  0.00    +0.340 C 
ATOM     44  C   UNL     1       6.519   5.234  24.013  0.00  0.00    +0.214 C 
ATOM     45  C   UNL     1       7.640   5.630  23.056  0.00  0.00    +0.180 C 
ATOM     46  C   UNL     1       8.974   5.629  23.812  0.00  0.00    +0.177 C 
BRANCH  46  47
ATOM     47  O   UNL     1      10.030   6.114  22.981  0.00  0.00    -0.386 OA
ATOM     48  H   UNL     1      10.577   6.726  23.504  0.00  0.00    +0.210 HD
ENDBRANCH  46  47
BRANCH  45  49
ATOM     49  O   UNL     1       7.396   6.921  22.482  0.00  0.00    -0.386 OA
ATOM     50  H   UNL     1       7.382   6.790  21.514  0.00  0.00    +0.210 HD
ENDBRANCH  45  49
BRANCH  44  51
ATOM     51  O   UNL     1       6.432   6.218  25.058  0.00  0.00    -0.383 OA
ATOM     52  H   UNL     1       5.881   5.846  25.785  0.00  0.00    +0.210 HD
ENDBRANCH  44  51
BRANCH  41  53
ATOM     53  C   UNL     1      10.088   3.274  23.483  0.00  0.00    +0.197 C 
BRANCH  53  54
ATOM     54  O   UNL     1      10.872   2.201  24.069  0.00  0.00    -0.346 OA
BRANCH  54  58
ATOM     55  C   UNL     1       9.844  -1.209  21.527  0.00  0.00    +0.041 C 
ATOM     56  C   UNL     1       8.886  -0.375  22.377  0.00  0.00    +0.149 C 
ATOM     57  O   UNL     1       9.483   0.878  22.730  0.00  0.00    -0.343 OA
ATOM     58  C   UNL     1      10.495   0.846  23.731  0.00  0.00    +0.282 C 
ATOM     59  C   UNL     1       9.960   0.114  25.019  0.00  0.00    +0.201 C 
ATOM     60  C   UNL     1       9.406  -1.280  24.667  0.00  0.00    +0.179 C 
ATOM     61  C   UNL     1       8.320  -1.140  23.586  0.00  0.00    +0.174 C 
BRANCH  61  62
ATOM     62  O   UNL     1       7.779  -2.403  23.179  0.00  0.00    -0.387 OA
ATOM     63  H   UNL     1       7.137  -2.700  23.846  0.00  0.00    +0.210 HD
ENDBRANCH  61  62
BRANCH  60  64
ATOM     64  O   UNL     1       8.861  -1.929  25.830  0.00  0.00    -0.386 OA
ATOM     65  H   UNL     1       7.893  -1.955  25.690  0.00  0.00    +0.210 HD
ENDBRANCH  60  64
BRANCH  59  66
ATOM     66  O   UNL     1       8.880   0.842  25.650  0.00  0.00    -0.384 OA
ATOM     67  H   UNL     1       8.808   1.670  25.144  0.00  0.00    +0.210 HD
ENDBRANCH  59  66
ENDBRANCH  54  58
ENDBRANCH  53  54
ENDBRANCH  41  53
ENDBRANCH  40  43
ENDBRANCH   1  40
TORSDOF 22
ENDMDL
MODEL 5
REMARK VINA RESULT:      -6.3      2.184      4.126
REMARK  Name = 
REMARK  23 active torsions:
REMARK  status: ('A' for Active; 'I' for Inactive)
REMARK    1  A    between atoms: C_1  and  C_2
REMARK    2  A    between atoms: C_3  and  O_54
REMARK    3  A    between atoms: C_4  and  O_53
REMARK    4  A    between atoms: C_5  and  O_52
REMARK    5  A    between atoms: C_6  and  O_8
REMARK    6  A    between atoms: O_8  and  C_9
REMARK    7  A    between atoms: C_9  and  C_10
REMARK    8  A    between atoms: C_11  and  O_51
REMARK    9  A    between atoms: C_12  and  O_50
REMARK   10  A    between atoms: C_13  and  O_49
REMARK   11  A    between atoms: C_14  and  O_16
REMARK   12  A    between atoms: O_16  and  C_17
REMARK   13  A    between atoms: C_18  and  C_41
REMARK   14  A    between atoms: C_22  and  O_29
REMARK   15  A    between atoms: C_24  and  O_28
REMARK   16  A    between atoms: O_29  and  C_30
REMARK   17  A    between atoms: C_31  and  O_40
REMARK   18  A    between atoms: C_32  and  O_39
REMARK   19  A    between atoms: C_33  and  O_38
REMARK   20  A    between atoms: C_34  and  C_36
REMARK   21  A    between atoms: C_36  and  O_37
REMARK   22  A    between atoms: C_43  and  O_48
REMARK   23  A    between atoms: C_44  and  O_47
REMARK                            x       y       z     vdW  Elec       q    Type
REMARK                         _______ _______ _______ _____ _____    ______ ____
ROOT
ATOM      1  C   UNL     1       4.475  -1.982  26.479  0.00  0.00    +0.214 A 
ATOM      2  C   UNL     1       3.512  -0.939  26.958  0.00  0.00    +0.238 A 
ATOM      3  O   UNL     1       2.316  -1.225  27.008  0.00  0.00    -0.283 OA
ATOM      4  C   UNL     1       4.083   0.351  27.440  0.00  0.00    +0.109 A 
ATOM      5  C   UNL     1       5.436   0.387  27.728  0.00  0.00    +0.147 A 
ATOM      6  C   UNL     1       6.079   1.562  28.158  0.00  0.00    +0.093 A 
ATOM      7  C   UNL     1       5.383   2.769  28.201  0.00  0.00    +0.131 A 
ATOM      8  C   UNL     1       4.004   2.738  27.981  0.00  0.00    +0.092 A 
ATOM      9  O   UNL     1       6.231  -0.715  27.597  0.00  0.00    -0.451 OA
ATOM     10  C   UNL     1       3.356   1.534  27.617  0.00  0.00    +0.135 A 
ATOM     11  C   UNL     1       5.762  -1.813  26.885  0.00  0.00    +0.181 A 
ENDROOT
BRANCH  11  12
ATOM     12  C   UNL     1       6.856  -2.809  26.708  0.00  0.00    +0.025 A 
ATOM     13  C   UNL     1       7.986  -2.537  25.924  0.00  0.00    +0.015 A 
ATOM     14  C   UNL     1       8.905  -3.542  25.608  0.00  0.00    +0.050 A 
ATOM     15  C   UNL     1       8.769  -4.801  26.183  0.00  0.00    +0.158 A 
ATOM     16  C   UNL     1       7.700  -5.066  27.027  0.00  0.00    +0.159 A 
ATOM     17  C   UNL     1       6.715  -4.106  27.238  0.00  0.00    +0.060 A 
BRANCH  16  18
ATOM     18  O   UNL     1       7.642  -6.208  27.775  0.00  0.00    -0.503 OA
ATOM     19  H   UNL     1       7.271  -5.969  28.640  0.00  0.00    +0.292 HD
ENDBRANCH  16  18
BRANCH  15  20
ATOM     20  O   UNL     1       9.725  -5.746  25.965  0.00  0.00    -0.503 OA
ATOM     21  H   UNL     1       9.417  -6.543  26.433  0.00  0.00    +0.292 HD
ENDBRANCH  15  20
ENDBRANCH  11  12
BRANCH  10  22
ATOM     22  O   UNL     1       2.005   1.552  27.414  0.00  0.00    -0.506 OA
ATOM     23  H   UNL     1       1.543   1.307  28.234  0.00  0.00    +0.292 HD
ENDBRANCH  10  22
BRANCH   7  24
ATOM     24  O   UNL     1       6.144   3.895  28.422  0.00  0.00    -0.461 OA
BRANCH  24  25
ATOM     25  C   UNL     1       5.716   5.091  27.739  0.00  0.00    +0.339 C 
ATOM     26  O   UNL     1       5.292   4.845  26.391  0.00  0.00    -0.331 OA
ATOM     27  C   UNL     1       6.363   4.436  25.514  0.00  0.00    +0.179 C 
ATOM     28  C   UNL     1       7.354   5.595  25.379  0.00  0.00    +0.177 C 
ATOM     29  C   UNL     1       7.932   5.938  26.761  0.00  0.00    +0.180 C 
ATOM     30  C   UNL     1       6.800   6.202  27.771  0.00  0.00    +0.214 C 
BRANCH  29  31
ATOM     31  O   UNL     1       8.766   7.100  26.628  0.00  0.00    -0.386 OA
ATOM     32  H   UNL     1       8.162   7.864  26.528  0.00  0.00    +0.210 HD
ENDBRANCH  29  31
BRANCH  30  33
ATOM     33  O   UNL     1       7.303   6.417  29.095  0.00  0.00    -0.383 OA
ATOM     34  H   UNL     1       7.847   7.224  29.084  0.00  0.00    +0.210 HD
ENDBRANCH  30  33
BRANCH  28  35
ATOM     35  O   UNL     1       6.702   6.769  24.857  0.00  0.00    -0.386 OA
ATOM     36  H   UNL     1       6.951   7.528  25.423  0.00  0.00    +0.210 HD
ENDBRANCH  28  35
BRANCH  27  37
ATOM     37  C   UNL     1       5.755   4.061  24.154  0.00  0.00    +0.190 C 
BRANCH  37  38
ATOM     38  O   UNL     1       6.635   4.397  23.080  0.00  0.00    -0.392 OA
ATOM     39  H   UNL     1       6.376   3.882  22.298  0.00  0.00    +0.210 HD
ENDBRANCH  37  38
ENDBRANCH  27  37
ENDBRANCH  24  25
ENDBRANCH   7  24
BRANCH   1  40
ATOM     40  O   UNL     1       4.074  -3.139  25.842  0.00  0.00    -0.453 OA
BRANCH  40  43
ATOM     41  C   UNL     1       5.572  -4.124  22.465  0.00  0.00    +0.179 C 
ATOM     42  O   UNL     1       5.040  -3.300  23.560  0.00  0.00    -0.331 OA
ATOM     43  C   UNL     1       4.763  -3.917  24.828  0.00  0.00    +0.340 C 
ATOM     44  C   UNL     1       4.102  -5.316  24.745  0.00  0.00    +0.214 C 
ATOM     45  C   UNL     1       4.974  -6.184  23.841  0.00  0.00    +0.180 C 
ATOM     46  C   UNL     1       5.015  -5.569  22.437  0.00  0.00    +0.177 C 
BRANCH  46  47
ATOM     47  O   UNL     1       5.720  -6.418  21.530  0.00  0.00    -0.386 OA
ATOM     48  H   UNL     1       5.663  -6.032  20.638  0.00  0.00    +0.210 HD
ENDBRANCH  46  47
BRANCH  45  49
ATOM     49  O   UNL     1       4.477  -7.527  23.779  0.00  0.00    -0.386 OA
ATOM     50  H   UNL     1       5.227  -8.106  24.020  0.00  0.00    +0.210 HD
ENDBRANCH  45  49
BRANCH  44  51
ATOM     51  O   UNL     1       2.760  -5.312  24.229  0.00  0.00    -0.383 OA
ATOM     52  H   UNL     1       2.810  -5.340  23.245  0.00  0.00    +0.210 HD
ENDBRANCH  44  51
BRANCH  41  53
ATOM     53  C   UNL     1       7.131  -4.021  22.294  0.00  0.00    +0.197 C 
BRANCH  53  54
ATOM     54  O   UNL     1       7.708  -2.802  21.753  0.00  0.00    -0.346 OA
BRANCH  54  58
ATOM     55  C   UNL     1       6.530   0.574  24.275  0.00  0.00    +0.041 C 
ATOM     56  C   UNL     1       7.206   0.642  22.906  0.00  0.00    +0.149 C 
ATOM     57  O   UNL     1       7.062  -0.600  22.208  0.00  0.00    -0.343 OA
ATOM     58  C   UNL     1       7.866  -1.686  22.659  0.00  0.00    +0.282 C 
ATOM     59  C   UNL     1       9.381  -1.256  22.701  0.00  0.00    +0.201 C 
ATOM     60  C   UNL     1       9.565   0.026  23.535  0.00  0.00    +0.179 C 
ATOM     61  C   UNL     1       8.662   1.136  22.969  0.00  0.00    +0.174 C 
BRANCH  61  62
ATOM     62  O   UNL     1       8.751   2.356  23.717  0.00  0.00    -0.387 OA
ATOM     63  H   UNL     1       8.497   3.097  23.142  0.00  0.00    +0.210 HD
ENDBRANCH  61  62
BRANCH  60  64
ATOM     64  O   UNL     1      10.938   0.456  23.527  0.00  0.00    -0.386 OA
ATOM     65  H   UNL     1      11.224   0.410  22.592  0.00  0.00    +0.210 HD
ENDBRANCH  60  64
BRANCH  59  66
ATOM     66  O   UNL     1       9.902  -0.970  21.381  0.00  0.00    -0.384 OA
ATOM     67  H   UNL     1       9.415  -0.181  21.086  0.00  0.00    +0.210 HD
ENDBRANCH  59  66
ENDBRANCH  54  58
ENDBRANCH  53  54
ENDBRANCH  41  53
ENDBRANCH  40  43
ENDBRANCH   1  40
TORSDOF 22
ENDMDL
MODEL 6
REMARK VINA RESULT:      -6.3      1.733      9.398
REMARK  Name = 
REMARK  23 active torsions:
REMARK  status: ('A' for Active; 'I' for Inactive)
REMARK    1  A    between atoms: C_1  and  C_2
REMARK    2  A    between atoms: C_3  and  O_54
REMARK    3  A    between atoms: C_4  and  O_53
REMARK    4  A    between atoms: C_5  and  O_52
REMARK    5  A    between atoms: C_6  and  O_8
REMARK    6  A    between atoms: O_8  and  C_9
REMARK    7  A    between atoms: C_9  and  C_10
REMARK    8  A    between atoms: C_11  and  O_51
REMARK    9  A    between atoms: C_12  and  O_50
REMARK   10  A    between atoms: C_13  and  O_49
REMARK   11  A    between atoms: C_14  and  O_16
REMARK   12  A    between atoms: O_16  and  C_17
REMARK   13  A    between atoms: C_18  and  C_41
REMARK   14  A    between atoms: C_22  and  O_29
REMARK   15  A    between atoms: C_24  and  O_28
REMARK   16  A    between atoms: O_29  and  C_30
REMARK   17  A    between atoms: C_31  and  O_40
REMARK   18  A    between atoms: C_32  and  O_39
REMARK   19  A    between atoms: C_33  and  O_38
REMARK   20  A    between atoms: C_34  and  C_36
REMARK   21  A    between atoms: C_36  and  O_37
REMARK   22  A    between atoms: C_43  and  O_48
REMARK   23  A    between atoms: C_44  and  O_47
REMARK                            x       y       z     vdW  Elec       q    Type
REMARK                         _______ _______ _______ _____ _____    ______ ____
ROOT
ATOM      1  C   UNL     1       6.279   0.135  26.382  0.00  0.00    +0.214 A 
ATOM      2  C   UNL     1       6.837  -1.171  26.858  0.00  0.00    +0.238 A 
ATOM      3  O   UNL     1       8.049  -1.252  27.058  0.00  0.00    -0.283 OA
ATOM      4  C   UNL     1       5.867  -2.264  27.157  0.00  0.00    +0.109 A 
ATOM      5  C   UNL     1       4.535  -1.918  27.300  0.00  0.00    +0.147 A 
ATOM      6  C   UNL     1       3.535  -2.876  27.550  0.00  0.00    +0.093 A 
ATOM      7  C   UNL     1       3.849  -4.234  27.552  0.00  0.00    +0.131 A 
ATOM      8  C   UNL     1       5.196  -4.596  27.480  0.00  0.00    +0.092 A 
ATOM      9  O   UNL     1       4.109  -0.626  27.190  0.00  0.00    -0.451 OA
ATOM     10  C   UNL     1       6.200  -3.616  27.297  0.00  0.00    +0.135 A 
ATOM     11  C   UNL     1       4.956   0.327  26.635  0.00  0.00    +0.181 A 
ENDROOT
BRANCH  11  12
ATOM     12  C   UNL     1       4.222   1.608  26.440  0.00  0.00    +0.025 A 
ATOM     13  C   UNL     1       3.474   2.198  27.469  0.00  0.00    +0.015 A 
ATOM     14  C   UNL     1       2.637   3.289  27.219  0.00  0.00    +0.050 A 
ATOM     15  C   UNL     1       2.639   3.881  25.961  0.00  0.00    +0.158 A 
ATOM     16  C   UNL     1       3.435   3.361  24.951  0.00  0.00    +0.159 A 
ATOM     17  C   UNL     1       4.169   2.198  25.162  0.00  0.00    +0.060 A 
BRANCH  16  18
ATOM     18  O   UNL     1       3.630   4.029  23.775  0.00  0.00    -0.503 OA
ATOM     19  H   UNL     1       4.026   3.402  23.148  0.00  0.00    +0.292 HD
ENDBRANCH  16  18
BRANCH  15  20
ATOM     20  O   UNL     1       1.909   5.012  25.749  0.00  0.00    -0.503 OA
ATOM     21  H   UNL     1       2.420   5.734  26.155  0.00  0.00    +0.292 HD
ENDBRANCH  15  20
ENDBRANCH  11  12
BRANCH  10  22
ATOM     22  O   UNL     1       7.504  -4.017  27.234  0.00  0.00    -0.506 OA
ATOM     23  H   UNL     1       7.698  -4.633  27.961  0.00  0.00    +0.292 HD
ENDBRANCH  10  22
BRANCH   7  24
ATOM     24  O   UNL     1       2.777  -5.099  27.588  0.00  0.00    -0.461 OA
BRANCH  24  25
ATOM     25  C   UNL     1       3.100  -6.503  27.649  0.00  0.00    +0.339 C 
ATOM     26  O   UNL     1       2.773  -7.206  26.442  0.00  0.00    -0.331 OA
ATOM     27  C   UNL     1       1.354  -7.294  26.191  0.00  0.00    +0.179 C 
ATOM     28  C   UNL     1       0.714  -8.143  27.292  0.00  0.00    +0.177 C 
ATOM     29  C   UNL     1       0.948  -7.475  28.655  0.00  0.00    +0.180 C 
ATOM     30  C   UNL     1       2.448  -7.199  28.874  0.00  0.00    +0.214 C 
BRANCH  29  31
ATOM     31  O   UNL     1       0.444  -8.346  29.679  0.00  0.00    -0.386 OA
ATOM     32  H   UNL     1      -0.041  -7.777  30.312  0.00  0.00    +0.210 HD
ENDBRANCH  29  31
BRANCH  30  33
ATOM     33  O   UNL     1       2.689  -6.478  30.087  0.00  0.00    -0.383 OA
ATOM     34  H   UNL     1       1.828  -6.221  30.462  0.00  0.00    +0.210 HD
ENDBRANCH  30  33
BRANCH  28  35
ATOM     35  O   UNL     1       1.298  -9.460  27.328  0.00  0.00    -0.386 OA
ATOM     36  H   UNL     1       1.380  -9.728  28.265  0.00  0.00    +0.210 HD
ENDBRANCH  28  35
BRANCH  27  37
ATOM     37  C   UNL     1       1.148  -7.929  24.806  0.00  0.00    +0.190 C 
BRANCH  37  38
ATOM     38  O   UNL     1       2.276  -8.716  24.422  0.00  0.00    -0.392 OA
ATOM     39  H   UNL     1       2.379  -9.439  25.063  0.00  0.00    +0.210 HD
ENDBRANCH  37  38
ENDBRANCH  27  37
ENDBRANCH  24  25
ENDBRANCH   7  24
BRANCH   1  40
ATOM     40  O   UNL     1       7.068   1.159  25.899  0.00  0.00    -0.453 OA
BRANCH  40  43
ATOM     41  C   UNL     1       9.834   0.775  23.287  0.00  0.00    +0.179 C 
ATOM     42  O   UNL     1       9.015   0.544  24.486  0.00  0.00    -0.331 OA
ATOM     43  C   UNL     1       7.777   1.258  24.637  0.00  0.00    +0.340 C 
ATOM     44  C   UNL     1       7.825   2.747  24.212  0.00  0.00    +0.214 C 
ATOM     45  C   UNL     1       8.373   2.802  22.788  0.00  0.00    +0.180 C 
ATOM     46  C   UNL     1       9.797   2.235  22.772  0.00  0.00    +0.177 C 
BRANCH  46  47
ATOM     47  O   UNL     1      10.390   2.383  21.481  0.00  0.00    -0.386 OA
ATOM     48  H   UNL     1      10.744   1.519  21.203  0.00  0.00    +0.210 HD
ENDBRANCH  46  47
BRANCH  45  49
ATOM     49  O   UNL     1       8.369   4.145  22.285  0.00  0.00    -0.386 OA
ATOM     50  H   UNL     1       7.430   4.412  22.231  0.00  0.00    +0.210 HD
ENDBRANCH  45  49
BRANCH  44  51
ATOM     51  O   UNL     1       8.638   3.581  25.054  0.00  0.00    -0.383 OA
ATOM     52  H   UNL     1       8.900   4.378  24.537  0.00  0.00    +0.210 HD
ENDBRANCH  44  51
BRANCH  41  53
ATOM     53  C   UNL     1       9.644  -0.317  22.171  0.00  0.00    +0.197 C 
BRANCH  53  54
ATOM     54  O   UNL     1       9.834  -1.718  22.508  0.00  0.00    -0.346 OA
BRANCH  54  58
ATOM     55  C   UNL     1       5.807  -3.036  21.413  0.00  0.00    +0.041 C 
ATOM     56  C   UNL     1       6.255  -2.474  22.762  0.00  0.00    +0.149 C 
ATOM     57  O   UNL     1       7.499  -1.775  22.632  0.00  0.00    -0.343 OA
ATOM     58  C   UNL     1       8.667  -2.572  22.467  0.00  0.00    +0.282 C 
ATOM     59  C   UNL     1       8.761  -3.641  23.619  0.00  0.00    +0.201 C 
ATOM     60  C   UNL     1       7.465  -4.470  23.706  0.00  0.00    +0.179 C 
ATOM     61  C   UNL     1       6.265  -3.524  23.887  0.00  0.00    +0.174 C 
BRANCH  61  62
ATOM     62  O   UNL     1       5.014  -4.222  23.940  0.00  0.00    -0.387 OA
ATOM     63  H   UNL     1       5.016  -4.923  23.268  0.00  0.00    +0.210 HD
ENDBRANCH  61  62
BRANCH  60  64
ATOM     64  O   UNL     1       7.522  -5.408  24.795  0.00  0.00    -0.386 OA
ATOM     65  H   UNL     1       7.868  -6.239  24.412  0.00  0.00    +0.210 HD
ENDBRANCH  60  64
BRANCH  59  66
ATOM     66  O   UNL     1       8.946  -3.028  24.918  0.00  0.00    -0.384 OA
ATOM     67  H   UNL     1       9.337  -3.727  25.471  0.00  0.00    +0.210 HD
ENDBRANCH  59  66
ENDBRANCH  54  58
ENDBRANCH  53  54
ENDBRANCH  41  53
ENDBRANCH  40  43
ENDBRANCH   1  40
TORSDOF 22
ENDMDL
MODEL 7
REMARK VINA RESULT:      -6.2      2.215      9.220
REMARK  Name = 
REMARK  23 active torsions:
REMARK  status: ('A' for Active; 'I' for Inactive)
REMARK    1  A    between atoms: C_1  and  C_2
REMARK    2  A    between atoms: C_3  and  O_54
REMARK    3  A    between atoms: C_4  and  O_53
REMARK    4  A    between atoms: C_5  and  O_52
REMARK    5  A    between atoms: C_6  and  O_8
REMARK    6  A    between atoms: O_8  and  C_9
REMARK    7  A    between atoms: C_9  and  C_10
REMARK    8  A    between atoms: C_11  and  O_51
REMARK    9  A    between atoms: C_12  and  O_50
REMARK   10  A    between atoms: C_13  and  O_49
REMARK   11  A    between atoms: C_14  and  O_16
REMARK   12  A    between atoms: O_16  and  C_17
REMARK   13  A    between atoms: C_18  and  C_41
REMARK   14  A    between atoms: C_22  and  O_29
REMARK   15  A    between atoms: C_24  and  O_28
REMARK   16  A    between atoms: O_29  and  C_30
REMARK   17  A    between atoms: C_31  and  O_40
REMARK   18  A    between atoms: C_32  and  O_39
REMARK   19  A    between atoms: C_33  and  O_38
REMARK   20  A    between atoms: C_34  and  C_36
REMARK   21  A    between atoms: C_36  and  O_37
REMARK   22  A    between atoms: C_43  and  O_48
REMARK   23  A    between atoms: C_44  and  O_47
REMARK                            x       y       z     vdW  Elec       q    Type
REMARK                         _______ _______ _______ _____ _____    ______ ____
ROOT
ATOM      1  C   UNL     1       5.819   1.667  26.685  0.00  0.00    +0.214 A 
ATOM      2  C   UNL     1       6.899   0.631  26.737  0.00  0.00    +0.238 A 
ATOM      3  O   UNL     1       8.070   1.002  26.682  0.00  0.00    -0.283 OA
ATOM      4  C   UNL     1       6.482  -0.784  26.955  0.00  0.00    +0.109 A 
ATOM      5  C   UNL     1       5.198  -1.011  27.420  0.00  0.00    +0.147 A 
ATOM      6  C   UNL     1       4.695  -2.309  27.628  0.00  0.00    +0.093 A 
ATOM      7  C   UNL     1       5.450  -3.421  27.260  0.00  0.00    +0.131 A 
ATOM      8  C   UNL     1       6.770  -3.214  26.856  0.00  0.00    +0.092 A 
ATOM      9  O   UNL     1       4.338   0.013  27.691  0.00  0.00    -0.451 OA
ATOM     10  C   UNL     1       7.287  -1.904  26.717  0.00  0.00    +0.135 A 
ATOM     11  C   UNL     1       4.626   1.289  27.220  0.00  0.00    +0.181 A 
ENDROOT
BRANCH  11  12
ATOM     12  C   UNL     1       3.469   2.195  27.464  0.00  0.00    +0.025 A 
ATOM     13  C   UNL     1       2.589   2.567  26.437  0.00  0.00    +0.015 A 
ATOM     14  C   UNL     1       1.630   3.565  26.634  0.00  0.00    +0.050 A 
ATOM     15  C   UNL     1       1.458   4.109  27.902  0.00  0.00    +0.158 A 
ATOM     16  C   UNL     1       2.265   3.695  28.951  0.00  0.00    +0.159 A 
ATOM     17  C   UNL     1       3.305   2.797  28.726  0.00  0.00    +0.060 A 
BRANCH  16  18
ATOM     18  O   UNL     1       1.994   4.040  30.245  0.00  0.00    -0.503 OA
ATOM     19  H   UNL     1       2.577   3.510  30.814  0.00  0.00    +0.292 HD
ENDBRANCH  16  18
BRANCH  15  20
ATOM     20  O   UNL     1       0.449   4.999  28.119  0.00  0.00    -0.503 OA
ATOM     21  H   UNL     1      -0.105   4.602  28.815  0.00  0.00    +0.292 HD
ENDBRANCH  15  20
ENDBRANCH  11  12
BRANCH  10  22
ATOM     22  O   UNL     1       8.585  -1.750  26.321  0.00  0.00    -0.506 OA
ATOM     23  H   UNL     1       8.988  -2.619  26.155  0.00  0.00    +0.292 HD
ENDBRANCH  10  22
BRANCH   7  24
ATOM     24  O   UNL     1       4.793  -4.632  27.298  0.00  0.00    -0.461 OA
BRANCH  24  25
ATOM     25  C   UNL     1       5.371  -5.689  26.505  0.00  0.00    +0.339 C 
ATOM     26  O   UNL     1       5.510  -5.338  25.121  0.00  0.00    -0.331 OA
ATOM     27  C   UNL     1       4.251  -5.181  24.435  0.00  0.00    +0.179 C 
ATOM     28  C   UNL     1       3.542  -6.537  24.397  0.00  0.00    +0.177 C 
ATOM     29  C   UNL     1       3.281  -7.019  25.833  0.00  0.00    +0.180 C 
ATOM     30  C   UNL     1       4.588  -7.022  26.649  0.00  0.00    +0.214 C 
BRANCH  29  31
ATOM     31  O   UNL     1       2.724  -8.341  25.773  0.00  0.00    -0.386 OA
ATOM     32  H   UNL     1       1.890  -8.312  26.285  0.00  0.00    +0.210 HD
ENDBRANCH  29  31
BRANCH  30  33
ATOM     33  O   UNL     1       4.361  -7.361  28.022  0.00  0.00    -0.383 OA
ATOM     34  H   UNL     1       4.869  -8.167  28.221  0.00  0.00    +0.210 HD
ENDBRANCH  30  33
BRANCH  28  35
ATOM     35  O   UNL     1       4.354  -7.522  23.730  0.00  0.00    -0.386 OA
ATOM     36  H   UNL     1       4.627  -8.187  24.394  0.00  0.00    +0.210 HD
ENDBRANCH  28  35
BRANCH  27  37
ATOM     37  C   UNL     1       4.536  -4.662  23.017  0.00  0.00    +0.190 C 
BRANCH  37  38
ATOM     38  O   UNL     1       5.395  -3.521  23.043  0.00  0.00    -0.392 OA
ATOM     39  H   UNL     1       5.049  -2.891  23.697  0.00  0.00    +0.210 HD
ENDBRANCH  37  38
ENDBRANCH  27  37
ENDBRANCH  24  25
ENDBRANCH   7  24
BRANCH   1  40
ATOM     40  O   UNL     1       6.049   2.976  26.310  0.00  0.00    -0.453 OA
BRANCH  40  43
ATOM     41  C   UNL     1       8.901   4.650  24.392  0.00  0.00    +0.179 C 
ATOM     42  O   UNL     1       8.164   3.962  25.462  0.00  0.00    -0.331 OA
ATOM     43  C   UNL     1       6.832   3.491  25.202  0.00  0.00    +0.340 C 
ATOM     44  C   UNL     1       5.945   4.458  24.378  0.00  0.00    +0.214 C 
ATOM     45  C   UNL     1       6.708   4.812  23.104  0.00  0.00    +0.180 C 
ATOM     46  C   UNL     1       8.011   5.528  23.479  0.00  0.00    +0.177 C 
BRANCH  46  47
ATOM     47  O   UNL     1       8.695   5.985  22.311  0.00  0.00    -0.386 OA
ATOM     48  H   UNL     1       9.523   5.481  22.221  0.00  0.00    +0.210 HD
ENDBRANCH  46  47
BRANCH  45  49
ATOM     49  O   UNL     1       5.918   5.640  22.242  0.00  0.00    -0.386 OA
ATOM     50  H   UNL     1       5.034   5.224  22.201  0.00  0.00    +0.210 HD
ENDBRANCH  45  49
BRANCH  44  51
ATOM     51  O   UNL     1       5.595   5.674  25.062  0.00  0.00    -0.383 OA
ATOM     52  H   UNL     1       5.667   6.418  24.420  0.00  0.00    +0.210 HD
ENDBRANCH  44  51
BRANCH  41  53
ATOM     53  C   UNL     1       9.913   3.724  23.624  0.00  0.00    +0.197 C 
BRANCH  53  54
ATOM     54  O   UNL     1       9.421   2.851  22.572  0.00  0.00    -0.346 OA
BRANCH  54  58
ATOM     55  C   UNL     1      10.559  -1.356  22.965  0.00  0.00    +0.041 C 
ATOM     56  C   UNL     1       9.638  -0.748  21.908  0.00  0.00    +0.149 C 
ATOM     57  O   UNL     1       9.823   0.670  21.829  0.00  0.00    -0.343 OA
ATOM     58  C   UNL     1       9.278   1.448  22.890  0.00  0.00    +0.282 C 
ATOM     59  C   UNL     1       7.752   1.107  23.081  0.00  0.00    +0.201 C 
ATOM     60  C   UNL     1       7.547  -0.409  23.268  0.00  0.00    +0.179 C 
ATOM     61  C   UNL     1       8.164  -1.158  22.074  0.00  0.00    +0.174 C 
BRANCH  61  62
ATOM     62  O   UNL     1       8.044  -2.581  22.193  0.00  0.00    -0.387 OA
ATOM     63  H   UNL     1       7.437  -2.786  22.923  0.00  0.00    +0.210 HD
ENDBRANCH  61  62
BRANCH  60  64
ATOM     64  O   UNL     1       6.150  -0.732  23.383  0.00  0.00    -0.386 OA
ATOM     65  H   UNL     1       5.669   0.075  23.111  0.00  0.00    +0.210 HD
ENDBRANCH  60  64
BRANCH  59  66
ATOM     66  O   UNL     1       6.960   1.493  21.933  0.00  0.00    -0.384 OA
ATOM     67  H   UNL     1       6.286   0.796  21.849  0.00  0.00    +0.210 HD
ENDBRANCH  59  66
ENDBRANCH  54  58
ENDBRANCH  53  54
ENDBRANCH  41  53
ENDBRANCH  40  43
ENDBRANCH   1  40
TORSDOF 22
ENDMDL
MODEL 8
REMARK VINA RESULT:      -6.2      2.226      9.534
REMARK  Name = 
REMARK  23 active torsions:
REMARK  status: ('A' for Active; 'I' for Inactive)
REMARK    1  A    between atoms: C_1  and  C_2
REMARK    2  A    between atoms: C_3  and  O_54
REMARK    3  A    between atoms: C_4  and  O_53
REMARK    4  A    between atoms: C_5  and  O_52
REMARK    5  A    between atoms: C_6  and  O_8
REMARK    6  A    between atoms: O_8  and  C_9
REMARK    7  A    between atoms: C_9  and  C_10
REMARK    8  A    between atoms: C_11  and  O_51
REMARK    9  A    between atoms: C_12  and  O_50
REMARK   10  A    between atoms: C_13  and  O_49
REMARK   11  A    between atoms: C_14  and  O_16
REMARK   12  A    between atoms: O_16  and  C_17
REMARK   13  A    between atoms: C_18  and  C_41
REMARK   14  A    between atoms: C_22  and  O_29
REMARK   15  A    between atoms: C_24  and  O_28
REMARK   16  A    between atoms: O_29  and  C_30
REMARK   17  A    between atoms: C_31  and  O_40
REMARK   18  A    between atoms: C_32  and  O_39
REMARK   19  A    between atoms: C_33  and  O_38
REMARK   20  A    between atoms: C_34  and  C_36
REMARK   21  A    between atoms: C_36  and  O_37
REMARK   22  A    between atoms: C_43  and  O_48
REMARK   23  A    between atoms: C_44  and  O_47
REMARK                            x       y       z     vdW  Elec       q    Type
REMARK                         _______ _______ _______ _____ _____    ______ ____
ROOT
ATOM      1  C   UNL     1       7.135  -0.798  26.626  0.00  0.00    +0.214 A 
ATOM      2  C   UNL     1       7.845  -2.116  26.575  0.00  0.00    +0.238 A 
ATOM      3  O   UNL     1       9.075  -2.118  26.556  0.00  0.00    -0.283 OA
ATOM      4  C   UNL     1       7.009  -3.348  26.654  0.00  0.00    +0.109 A 
ATOM      5  C   UNL     1       5.704  -3.212  27.096  0.00  0.00    +0.147 A 
ATOM      6  C   UNL     1       4.823  -4.306  27.176  0.00  0.00    +0.093 A 
ATOM      7  C   UNL     1       5.212  -5.557  26.701  0.00  0.00    +0.131 A 
ATOM      8  C   UNL     1       6.543  -5.728  26.318  0.00  0.00    +0.092 A 
ATOM      9  O   UNL     1       5.191  -2.003  27.466  0.00  0.00    -0.451 OA
ATOM     10  C   UNL     1       7.440  -4.634  26.307  0.00  0.00    +0.135 A 
ATOM     11  C   UNL     1       5.869  -0.839  27.121  0.00  0.00    +0.181 A 
ENDROOT
BRANCH  11  12
ATOM     12  C   UNL     1       5.037   0.352  27.454  0.00  0.00    +0.025 A 
ATOM     13  C   UNL     1       4.033   0.818  26.594  0.00  0.00    +0.015 A 
ATOM     14  C   UNL     1       3.397   2.042  26.822  0.00  0.00    +0.050 A 
ATOM     15  C   UNL     1       3.670   2.749  27.988  0.00  0.00    +0.158 A 
ATOM     16  C   UNL     1       4.602   2.262  28.893  0.00  0.00    +0.159 A 
ATOM     17  C   UNL     1       5.330   1.111  28.603  0.00  0.00    +0.060 A 
BRANCH  16  18
ATOM     18  O   UNL     1       4.746   2.806  30.138  0.00  0.00    -0.503 OA
ATOM     19  H   UNL     1       5.218   2.156  30.685  0.00  0.00    +0.292 HD
ENDBRANCH  16  18
BRANCH  15  20
ATOM     20  O   UNL     1       2.969   3.883  28.266  0.00  0.00    -0.503 OA
ATOM     21  H   UNL     1       2.729   3.820  29.208  0.00  0.00    +0.292 HD
ENDBRANCH  15  20
ENDBRANCH  11  12
BRANCH  10  22
ATOM     22  O   UNL     1       8.734  -4.849  25.927  0.00  0.00    -0.506 OA
ATOM     23  H   UNL     1       8.859  -4.577  25.002  0.00  0.00    +0.292 HD
ENDBRANCH  10  22
BRANCH   7  24
ATOM     24  O   UNL     1       4.215  -6.506  26.621  0.00  0.00    -0.461 OA
BRANCH  24  25
ATOM     25  C   UNL     1       4.126  -7.224  25.373  0.00  0.00    +0.339 C 
ATOM     26  O   UNL     1       4.610  -6.467  24.255  0.00  0.00    -0.331 OA
ATOM     27  C   UNL     1       3.791  -5.323  23.935  0.00  0.00    +0.179 C 
ATOM     28  C   UNL     1       2.418  -5.818  23.473  0.00  0.00    +0.177 C 
ATOM     29  C   UNL     1       1.755  -6.616  24.606  0.00  0.00    +0.180 C 
ATOM     30  C   UNL     1       2.688  -7.738  25.097  0.00  0.00    +0.214 C 
BRANCH  29  31
ATOM     31  O   UNL     1       0.524  -7.168  24.111  0.00  0.00    -0.386 OA
ATOM     32  H   UNL     1      -0.016  -7.388  24.897  0.00  0.00    +0.210 HD
ENDBRANCH  29  31
BRANCH  30  33
ATOM     33  O   UNL     1       2.144  -8.432  26.226  0.00  0.00    -0.383 OA
ATOM     34  H   UNL     1       1.662  -7.787  26.773  0.00  0.00    +0.210 HD
ENDBRANCH  30  33
BRANCH  28  35
ATOM     35  O   UNL     1       2.543  -6.680  22.325  0.00  0.00    -0.386 OA
ATOM     36  H   UNL     1       2.095  -6.245  21.572  0.00  0.00    +0.210 HD
ENDBRANCH  28  35
BRANCH  27  37
ATOM     37  C   UNL     1       4.495  -4.521  22.829  0.00  0.00    +0.190 C 
BRANCH  37  38
ATOM     38  O   UNL     1       5.164  -5.382  21.907  0.00  0.00    -0.392 OA
ATOM     39  H   UNL     1       4.848  -6.290  22.049  0.00  0.00    +0.210 HD
ENDBRANCH  37  38
ENDBRANCH  27  37
ENDBRANCH  24  25
ENDBRANCH   7  24
BRANCH   1  40
ATOM     40  O   UNL     1       7.766   0.406  26.380  0.00  0.00    -0.453 OA
BRANCH  40  43
ATOM     41  C   UNL     1       7.855   1.058  22.614  0.00  0.00    +0.179 C 
ATOM     42  O   UNL     1       7.439   0.531  23.923  0.00  0.00    -0.331 OA
ATOM     43  C   UNL     1       8.050   1.054  25.113  0.00  0.00    +0.340 C 
ATOM     44  C   UNL     1       9.577   1.297  25.014  0.00  0.00    +0.214 C 
ATOM     45  C   UNL     1       9.825   2.171  23.786  0.00  0.00    +0.180 C 
ATOM     46  C   UNL     1       9.357   1.424  22.532  0.00  0.00    +0.177 C 
BRANCH  46  47
ATOM     47  O   UNL     1       9.685   2.158  21.351  0.00  0.00    -0.386 OA
ATOM     48  H   UNL     1      10.643   2.081  21.197  0.00  0.00    +0.210 HD
ENDBRANCH  46  47
BRANCH  45  49
ATOM     49  O   UNL     1      11.212   2.515  23.670  0.00  0.00    -0.386 OA
ATOM     50  H   UNL     1      11.681   1.981  24.341  0.00  0.00    +0.210 HD
ENDBRANCH  45  49
BRANCH  44  51
ATOM     51  O   UNL     1      10.364   0.100  24.897  0.00  0.00    -0.383 OA
ATOM     52  H   UNL     1      10.096  -0.516  25.618  0.00  0.00    +0.210 HD
ENDBRANCH  44  51
BRANCH  41  53
ATOM     53  C   UNL     1       6.883   2.149  22.034  0.00  0.00    +0.197 C 
BRANCH  53  54
ATOM     54  O   UNL     1       7.287   3.545  22.057  0.00  0.00    -0.346 OA
BRANCH  54  58
ATOM     55  C   UNL     1       6.847   4.622  26.275  0.00  0.00    +0.041 C 
ATOM     56  C   UNL     1       5.757   4.092  25.344  0.00  0.00    +0.149 C 
ATOM     57  O   UNL     1       6.335   3.467  24.192  0.00  0.00    -0.343 OA
ATOM     58  C   UNL     1       6.893   4.330  23.206  0.00  0.00    +0.282 C 
ATOM     59  C   UNL     1       5.832   5.407  22.767  0.00  0.00    +0.201 C 
ATOM     60  C   UNL     1       5.274   6.159  23.990  0.00  0.00    +0.179 C 
ATOM     61  C   UNL     1       4.692   5.146  24.991  0.00  0.00    +0.174 C 
BRANCH  61  62
ATOM     62  O   UNL     1       4.184   5.769  26.177  0.00  0.00    -0.387 OA
ATOM     63  H   UNL     1       4.419   6.712  26.163  0.00  0.00    +0.210 HD
ENDBRANCH  61  62
BRANCH  60  64
ATOM     64  O   UNL     1       4.261   7.103  23.600  0.00  0.00    -0.386 OA
ATOM     65  H   UNL     1       4.713   7.969  23.546  0.00  0.00    +0.210 HD
ENDBRANCH  60  64
BRANCH  59  66
ATOM     66  O   UNL     1       4.697   4.810  22.095  0.00  0.00    -0.384 OA
ATOM     67  H   UNL     1       5.074   4.358  21.320  0.00  0.00    +0.210 HD
ENDBRANCH  59  66
ENDBRANCH  54  58
ENDBRANCH  53  54
ENDBRANCH  41  53
ENDBRANCH  40  43
ENDBRANCH   1  40
TORSDOF 22
ENDMDL
MODEL 9
REMARK VINA RESULT:      -6.0      2.616      9.694
REMARK  Name = 
REMARK  23 active torsions:
REMARK  status: ('A' for Active; 'I' for Inactive)
REMARK    1  A    between atoms: C_1  and  C_2
REMARK    2  A    between atoms: C_3  and  O_54
REMARK    3  A    between atoms: C_4  and  O_53
REMARK    4  A    between atoms: C_5  and  O_52
REMARK    5  A    between atoms: C_6  and  O_8
REMARK    6  A    between atoms: O_8  and  C_9
REMARK    7  A    between atoms: C_9  and  C_10
REMARK    8  A    between atoms: C_11  and  O_51
REMARK    9  A    between atoms: C_12  and  O_50
REMARK   10  A    between atoms: C_13  and  O_49
REMARK   11  A    between atoms: C_14  and  O_16
REMARK   12  A    between atoms: O_16  and  C_17
REMARK   13  A    between atoms: C_18  and  C_41
REMARK   14  A    between atoms: C_22  and  O_29
REMARK   15  A    between atoms: C_24  and  O_28
REMARK   16  A    between atoms: O_29  and  C_30
REMARK   17  A    between atoms: C_31  and  O_40
REMARK   18  A    between atoms: C_32  and  O_39
REMARK   19  A    between atoms: C_33  and  O_38
REMARK   20  A    between atoms: C_34  and  C_36
REMARK   21  A    between atoms: C_36  and  O_37
REMARK   22  A    between atoms: C_43  and  O_48
REMARK   23  A    between atoms: C_44  and  O_47
REMARK                            x       y       z     vdW  Elec       q    Type
REMARK                         _______ _______ _______ _____ _____    ______ ____
ROOT
ATOM      1  C   UNL     1       5.845  -0.282  26.314  0.00  0.00    +0.214 A 
ATOM      2  C   UNL     1       4.496  -0.278  26.965  0.00  0.00    +0.238 A 
ATOM      3  O   UNL     1       4.159   0.717  27.607  0.00  0.00    -0.283 OA
ATOM      4  C   UNL     1       3.606  -1.446  26.709  0.00  0.00    +0.109 A 
ATOM      5  C   UNL     1       3.928  -2.277  25.649  0.00  0.00    +0.147 A 
ATOM      6  C   UNL     1       3.172  -3.424  25.342  0.00  0.00    +0.093 A 
ATOM      7  C   UNL     1       2.128  -3.822  26.176  0.00  0.00    +0.131 A 
ATOM      8  C   UNL     1       1.747  -2.960  27.206  0.00  0.00    +0.092 A 
ATOM      9  O   UNL     1       5.007  -2.041  24.849  0.00  0.00    -0.451 OA
ATOM     10  C   UNL     1       2.473  -1.773  27.463  0.00  0.00    +0.135 A 
ATOM     11  C   UNL     1       5.978  -1.136  25.262  0.00  0.00    +0.181 A 
ENDROOT
BRANCH  11  12
ATOM     12  C   UNL     1       7.144  -1.181  24.336  0.00  0.00    +0.025 A 
ATOM     13  C   UNL     1       7.255  -0.311  23.242  0.00  0.00    +0.015 A 
ATOM     14  C   UNL     1       8.247  -0.491  22.274  0.00  0.00    +0.050 A 
ATOM     15  C   UNL     1       9.218  -1.468  22.461  0.00  0.00    +0.158 A 
ATOM     16  C   UNL     1       9.172  -2.287  23.580  0.00  0.00    +0.159 A 
ATOM     17  C   UNL     1       8.111  -2.194  24.477  0.00  0.00    +0.060 A 
BRANCH  16  18
ATOM     18  O   UNL     1      10.212  -3.109  23.912  0.00  0.00    -0.503 OA
ATOM     19  H   UNL     1      10.522  -2.842  24.793  0.00  0.00    +0.292 HD
ENDBRANCH  16  18
BRANCH  15  20
ATOM     20  O   UNL     1      10.249  -1.570  21.576  0.00  0.00    -0.503 OA
ATOM     21  H   UNL     1      11.054  -1.368  22.086  0.00  0.00    +0.292 HD
ENDBRANCH  15  20
ENDBRANCH  11  12
BRANCH  10  22
ATOM     22  O   UNL     1       2.061  -0.959  28.479  0.00  0.00    -0.506 OA
ATOM     23  H   UNL     1       1.210  -0.549  28.253  0.00  0.00    +0.292 HD
ENDBRANCH  10  22
BRANCH   7  24
ATOM     24  O   UNL     1       1.594  -5.065  25.917  0.00  0.00    -0.461 OA
BRANCH  24  25
ATOM     25  C   UNL     1       2.536  -6.154  25.834  0.00  0.00    +0.339 C 
ATOM     26  O   UNL     1       2.524  -6.809  24.558  0.00  0.00    -0.331 OA
ATOM     27  C   UNL     1       1.301  -7.526  24.289  0.00  0.00    +0.179 C 
ATOM     28  C   UNL     1       1.178  -8.677  25.291  0.00  0.00    +0.177 C 
ATOM     29  C   UNL     1       1.131  -8.110  26.718  0.00  0.00    +0.180 C 
ATOM     30  C   UNL     1       2.337  -7.187  26.975  0.00  0.00    +0.214 C 
BRANCH  29  31
ATOM     31  O   UNL     1       1.135  -9.210  27.642  0.00  0.00    -0.386 OA
ATOM     32  H   UNL     1       2.075  -9.406  27.834  0.00  0.00    +0.210 HD
ENDBRANCH  29  31
BRANCH  30  33
ATOM     33  O   UNL     1       2.265  -6.556  28.258  0.00  0.00    -0.383 OA
ATOM     34  H   UNL     1       1.725  -5.751  28.169  0.00  0.00    +0.210 HD
ENDBRANCH  30  33
BRANCH  28  35
ATOM     35  O   UNL     1       2.309  -9.564  25.193  0.00  0.00    -0.386 OA
ATOM     36  H   UNL     1       3.045  -9.070  24.779  0.00  0.00    +0.210 HD
ENDBRANCH  28  35
BRANCH  27  37
ATOM     37  C   UNL     1       1.356  -8.048  22.844  0.00  0.00    +0.190 C 
BRANCH  37  38
ATOM     38  O   UNL     1       0.553  -9.218  22.683  0.00  0.00    -0.392 OA
ATOM     39  H   UNL     1       1.115  -9.931  22.334  0.00  0.00    +0.210 HD
ENDBRANCH  37  38
ENDBRANCH  27  37
ENDBRANCH  24  25
ENDBRANCH   7  24
BRANCH   1  40
ATOM     40  O   UNL     1       6.827   0.640  26.612  0.00  0.00    -0.453 OA
BRANCH  40  43
ATOM     41  C   UNL     1       8.515   3.687  25.035  0.00  0.00    +0.179 C 
ATOM     42  O   UNL     1       8.232   2.291  25.401  0.00  0.00    -0.331 OA
ATOM     43  C   UNL     1       7.013   1.985  26.099  0.00  0.00    +0.340 C 
ATOM     44  C   UNL     1       6.621   2.995  27.206  0.00  0.00    +0.214 C 
ATOM     45  C   UNL     1       6.612   4.387  26.577  0.00  0.00    +0.180 C 
ATOM     46  C   UNL     1       8.021   4.723  26.073  0.00  0.00    +0.177 C 
BRANCH  46  47
ATOM     47  O   UNL     1       8.081   6.065  25.589  0.00  0.00    -0.386 OA
ATOM     48  H   UNL     1       8.878   6.160  25.039  0.00  0.00    +0.210 HD
ENDBRANCH  46  47
BRANCH  45  49
ATOM     49  O   UNL     1       6.174   5.375  27.519  0.00  0.00    -0.386 OA
ATOM     50  H   UNL     1       5.266   5.620  27.252  0.00  0.00    +0.210 HD
ENDBRANCH  45  49
BRANCH  44  51
ATOM     51  O   UNL     1       7.503   3.006  28.342  0.00  0.00    -0.383 OA
ATOM     52  H   UNL     1       7.009   3.376  29.110  0.00  0.00    +0.210 HD
ENDBRANCH  44  51
BRANCH  41  53
ATOM     53  C   UNL     1       8.159   4.034  23.543  0.00  0.00    +0.197 C 
BRANCH  53  54
ATOM     54  O   UNL     1       7.118   3.279  22.866  0.00  0.00    -0.346 OA
BRANCH  54  58
ATOM     55  C   UNL     1       4.369   6.651  22.397  0.00  0.00    +0.041 C 
ATOM     56  C   UNL     1       4.390   5.635  23.538  0.00  0.00    +0.149 C 
ATOM     57  O   UNL     1       5.647   4.951  23.584  0.00  0.00    -0.343 OA
ATOM     58  C   UNL     1       5.881   3.970  22.578  0.00  0.00    +0.282 C 
ATOM     59  C   UNL     1       4.697   2.933  22.549  0.00  0.00    +0.201 C 
ATOM     60  C   UNL     1       3.341   3.650  22.397  0.00  0.00    +0.179 C 
ATOM     61  C   UNL     1       3.182   4.682  23.528  0.00  0.00    +0.174 C 
BRANCH  61  62
ATOM     62  O   UNL     1       1.956   5.419  23.435  0.00  0.00    -0.387 OA
ATOM     63  H   UNL     1       1.933   5.886  22.583  0.00  0.00    +0.210 HD
ENDBRANCH  61  62
BRANCH  60  64
ATOM     64  O   UNL     1       2.252   2.712  22.430  0.00  0.00    -0.386 OA
ATOM     65  H   UNL     1       2.028   2.534  21.495  0.00  0.00    +0.210 HD
ENDBRANCH  60  64
BRANCH  59  66
ATOM     66  O   UNL     1       4.620   2.158  23.769  0.00  0.00    -0.384 OA
ATOM     67  H   UNL     1       4.641   2.817  24.485  0.00  0.00    +0.210 HD
ENDBRANCH  59  66
ENDBRANCH  54  58
ENDBRANCH  53  54
ENDBRANCH  41  53
ENDBRANCH  40  43
ENDBRANCH   1  40
TORSDOF 22
ENDMDL
