MODEL 1
REMARK VINA RESULT:      -7.0      0.000      0.000
REMARK  Name = 
REMARK  17 active torsions:
REMARK  status: ('A' for Active; 'I' for Inactive)
REMARK    1  A    between atoms: C_1  and  C_2
REMARK    2  A    between atoms: C_4  and  O_53
REMARK    3  A    between atoms: C_6  and  O_52
REMARK    4  A    between atoms: C_8  and  O_51
REMARK    5  A    between atoms: C_10  and  O_13
REMARK    6  A    between atoms: O_13  and  C_14
REMARK    7  A    between atoms: C_16  and  O_50
REMARK    8  A    between atoms: C_18  and  O_49
REMARK    9  A    between atoms: C_20  and  C_47
REMARK   10  A    between atoms: C_23  and  O_25
REMARK   11  A    between atoms: O_25  and  C_26
REMARK   12  A    between atoms: C_27  and  C_39
REMARK   13  A    between atoms: C_31  and  O_38
REMARK   14  A    between atoms: C_33  and  O_37
REMARK   15  A    between atoms: C_41  and  O_46
REMARK   16  A    between atoms: C_42  and  O_45
REMARK   17  A    between atoms: C_47  and  O_48
REMARK                            x       y       z     vdW  Elec       q    Type
REMARK                         _______ _______ _______ _____ _____    ______ ____
ROOT
ATOM      1  C   UNL     1       6.617   2.267  26.137  0.00  0.00    +0.221 C 
ATOM      2  C   UNL     1       6.070   0.813  26.054  0.00  0.00    +0.340 C 
ATOM      3  O   UNL     1       4.888   0.733  26.888  0.00  0.00    -0.331 OA
ATOM      4  C   UNL     1       5.263   0.839  28.284  0.00  0.00    +0.179 C 
ATOM      5  C   UNL     1       5.739   2.269  28.578  0.00  0.00    +0.177 C 
ATOM      6  C   UNL     1       6.881   2.587  27.628  0.00  0.00    +0.180 C 
ENDROOT
BRANCH   6   7
ATOM      7  O   UNL     1       7.325   3.937  27.799  0.00  0.00    -0.386 OA
ATOM      8  H   UNL     1       7.741   4.175  26.947  0.00  0.00    +0.210 HD
ENDBRANCH   6   7
BRANCH   5   9
ATOM      9  O   UNL     1       6.263   2.351  29.914  0.00  0.00    -0.386 OA
ATOM     10  H   UNL     1       6.978   3.018  29.874  0.00  0.00    +0.210 HD
ENDBRANCH   5   9
BRANCH   4  11
ATOM     11  C   UNL     1       4.135   0.404  29.227  0.00  0.00    +0.190 C 
BRANCH  11  12
ATOM     12  O   UNL     1       4.617  -0.055  30.485  0.00  0.00    -0.392 OA
ATOM     13  H   UNL     1       4.440   0.652  31.121  0.00  0.00    +0.210 HD
ENDBRANCH  11  12
ENDBRANCH   4  11
BRANCH   2  14
ATOM     14  O   UNL     1       5.833   0.410  24.682  0.00  0.00    -0.453 OA
BRANCH  14  15
ATOM     15  C   UNL     1       6.183  -0.902  24.318  0.00  0.00    +0.214 A 
ATOM     16  C   UNL     1       5.241  -2.062  24.550  0.00  0.00    +0.238 A 
ATOM     17  O   UNL     1       4.362  -2.036  25.405  0.00  0.00    -0.283 OA
ATOM     18  C   UNL     1       5.486  -3.314  23.822  0.00  0.00    +0.109 A 
ATOM     19  C   UNL     1       6.746  -3.479  23.275  0.00  0.00    +0.147 A 
ATOM     20  C   UNL     1       7.091  -4.670  22.629  0.00  0.00    +0.092 A 
ATOM     21  C   UNL     1       6.156  -5.694  22.543  0.00  0.00    +0.124 A 
ATOM     22  C   UNL     1       4.891  -5.550  23.099  0.00  0.00    +0.091 A 
ATOM     23  O   UNL     1       7.716  -2.531  23.390  0.00  0.00    -0.451 OA
ATOM     24  C   UNL     1       4.554  -4.356  23.736  0.00  0.00    +0.135 A 
ATOM     25  C   UNL     1       7.394  -1.233  23.798  0.00  0.00    +0.181 A 
BRANCH  25  26
ATOM     26  C   UNL     1       8.618  -0.356  23.639  0.00  0.00    +0.025 A 
ATOM     27  C   UNL     1       9.525  -0.262  24.719  0.00  0.00    +0.015 A 
ATOM     28  C   UNL     1      10.570   0.677  24.746  0.00  0.00    +0.050 A 
ATOM     29  C   UNL     1      10.732   1.522  23.667  0.00  0.00    +0.158 A 
ATOM     30  C   UNL     1       9.879   1.426  22.571  0.00  0.00    +0.159 A 
ATOM     31  C   UNL     1       8.822   0.500  22.550  0.00  0.00    +0.060 A 
BRANCH  30  32
ATOM     32  O   UNL     1      10.107   2.287  21.535  0.00  0.00    -0.503 OA
ATOM     33  H   UNL     1       9.554   3.085  21.665  0.00  0.00    +0.292 HD
ENDBRANCH  30  32
BRANCH  29  34
ATOM     34  O   UNL     1      11.720   2.463  23.701  0.00  0.00    -0.503 OA
ATOM     35  H   UNL     1      12.326   2.209  22.975  0.00  0.00    +0.292 HD
ENDBRANCH  29  34
ENDBRANCH  25  26
BRANCH  24  36
ATOM     36  O   UNL     1       3.301  -4.222  24.262  0.00  0.00    -0.506 OA
ATOM     37  H   UNL     1       2.765  -3.632  23.706  0.00  0.00    +0.292 HD
ENDBRANCH  24  36
BRANCH  21  38
ATOM     38  O   UNL     1       6.440  -6.877  21.930  0.00  0.00    -0.507 OA
ATOM     39  H   UNL     1       5.696  -7.492  22.052  0.00  0.00    +0.292 HD
ENDBRANCH  21  38
ENDBRANCH  14  15
ENDBRANCH   2  14
BRANCH   1  40
ATOM     40  O   UNL     1       7.798   2.555  25.336  0.00  0.00    -0.337 OA
BRANCH  40  44
ATOM     41  C   UNL     1       9.278   6.252  23.959  0.00  0.00    +0.041 C 
ATOM     42  C   UNL     1       7.898   6.115  24.599  0.00  0.00    +0.149 C 
ATOM     43  O   UNL     1       7.747   4.881  25.290  0.00  0.00    -0.343 OA
ATOM     44  C   UNL     1       7.706   3.708  24.492  0.00  0.00    +0.282 C 
ATOM     45  C   UNL     1       6.385   3.736  23.704  0.00  0.00    +0.201 C 
ATOM     46  C   UNL     1       6.342   5.033  22.863  0.00  0.00    +0.179 C 
ATOM     47  C   UNL     1       6.677   6.293  23.692  0.00  0.00    +0.174 C 
BRANCH  47  48
ATOM     48  O   UNL     1       5.546   6.557  24.547  0.00  0.00    -0.387 OA
ATOM     49  H   UNL     1       5.607   5.975  25.331  0.00  0.00    +0.210 HD
ENDBRANCH  47  48
BRANCH  46  50
ATOM     50  O   UNL     1       7.191   4.887  21.715  0.00  0.00    -0.386 OA
ATOM     51  H   UNL     1       6.708   4.497  20.970  0.00  0.00    +0.210 HD
ENDBRANCH  46  50
BRANCH  45  52
ATOM     52  O   UNL     1       6.256   2.583  22.856  0.00  0.00    -0.384 OA
ATOM     53  H   UNL     1       5.824   1.890  23.398  0.00  0.00    +0.210 HD
ENDBRANCH  45  52
ENDBRANCH  40  44
ENDBRANCH   1  40
TORSDOF 16
ENDMDL
MODEL 2
REMARK VINA RESULT:      -6.9      2.269      3.736
REMARK  Name = 
REMARK  17 active torsions:
REMARK  status: ('A' for Active; 'I' for Inactive)
REMARK    1  A    between atoms: C_1  and  C_2
REMARK    2  A    between atoms: C_4  and  O_53
REMARK    3  A    between atoms: C_6  and  O_52
REMARK    4  A    between atoms: C_8  and  O_51
REMARK    5  A    between atoms: C_10  and  O_13
REMARK    6  A    between atoms: O_13  and  C_14
REMARK    7  A    between atoms: C_16  and  O_50
REMARK    8  A    between atoms: C_18  and  O_49
REMARK    9  A    between atoms: C_20  and  C_47
REMARK   10  A    between atoms: C_23  and  O_25
REMARK   11  A    between atoms: O_25  and  C_26
REMARK   12  A    between atoms: C_27  and  C_39
REMARK   13  A    between atoms: C_31  and  O_38
REMARK   14  A    between atoms: C_33  and  O_37
REMARK   15  A    between atoms: C_41  and  O_46
REMARK   16  A    between atoms: C_42  and  O_45
REMARK   17  A    between atoms: C_47  and  O_48
REMARK                            x       y       z     vdW  Elec       q    Type
REMARK                         _______ _______ _______ _____ _____    ______ ____
ROOT
ATOM      1  C   UNL     1       6.176   0.208  26.078  0.00  0.00    +0.221 C 
ATOM      2  C   UNL     1       5.256  -0.978  26.487  0.00  0.00    +0.340 C 
ATOM      3  O   UNL     1       4.262  -0.473  27.412  0.00  0.00    -0.331 OA
ATOM      4  C   UNL     1       4.893  -0.127  28.671  0.00  0.00    +0.179 C 
ATOM      5  C   UNL     1       5.777   1.113  28.476  0.00  0.00    +0.177 C 
ATOM      6  C   UNL     1       6.775   0.808  27.373  0.00  0.00    +0.180 C 
ENDROOT
BRANCH   6   7
ATOM      7  O   UNL     1       7.586   1.953  27.088  0.00  0.00    -0.386 OA
ATOM      8  H   UNL     1       7.284   2.263  26.211  0.00  0.00    +0.210 HD
ENDBRANCH   6   7
BRANCH   5   9
ATOM      9  O   UNL     1       6.532   1.376  29.670  0.00  0.00    -0.386 OA
ATOM     10  H   UNL     1       7.355   0.855  29.579  0.00  0.00    +0.210 HD
ENDBRANCH   5   9
BRANCH   4  11
ATOM     11  C   UNL     1       3.875   0.066  29.801  0.00  0.00    +0.190 C 
BRANCH  11  12
ATOM     12  O   UNL     1       3.637   1.437  30.097  0.00  0.00    -0.392 OA
ATOM     13  H   UNL     1       4.506   1.856  30.176  0.00  0.00    +0.210 HD
ENDBRANCH  11  12
ENDBRANCH   4  11
BRANCH   2  14
ATOM     14  O   UNL     1       4.681  -1.631  25.328  0.00  0.00    -0.453 OA
BRANCH  14  15
ATOM     15  C   UNL     1       4.547  -3.030  25.368  0.00  0.00    +0.214 A 
ATOM     16  C   UNL     1       3.368  -3.690  26.050  0.00  0.00    +0.238 A 
ATOM     17  O   UNL     1       2.725  -3.136  26.934  0.00  0.00    -0.283 OA
ATOM     18  C   UNL     1       3.081  -5.096  25.738  0.00  0.00    +0.109 A 
ATOM     19  C   UNL     1       4.101  -5.823  25.150  0.00  0.00    +0.147 A 
ATOM     20  C   UNL     1       3.942  -7.187  24.886  0.00  0.00    +0.092 A 
ATOM     21  C   UNL     1       2.747  -7.811  25.224  0.00  0.00    +0.124 A 
ATOM     22  C   UNL     1       1.719  -7.099  25.828  0.00  0.00    +0.091 A 
ATOM     23  O   UNL     1       5.311  -5.271  24.860  0.00  0.00    -0.451 OA
ATOM     24  C   UNL     1       1.884  -5.737  26.081  0.00  0.00    +0.135 A 
ATOM     25  C   UNL     1       5.476  -3.882  24.863  0.00  0.00    +0.181 A 
BRANCH  25  26
ATOM     26  C   UNL     1       6.848  -3.555  24.313  0.00  0.00    +0.025 A 
ATOM     27  C   UNL     1       7.981  -3.854  25.104  0.00  0.00    +0.015 A 
ATOM     28  C   UNL     1       9.270  -3.403  24.774  0.00  0.00    +0.050 A 
ATOM     29  C   UNL     1       9.441  -2.664  23.621  0.00  0.00    +0.158 A 
ATOM     30  C   UNL     1       8.351  -2.389  22.800  0.00  0.00    +0.159 A 
ATOM     31  C   UNL     1       7.057  -2.822  23.138  0.00  0.00    +0.060 A 
BRANCH  30  32
ATOM     32  O   UNL     1       8.598  -1.662  21.670  0.00  0.00    -0.503 OA
ATOM     33  H   UNL     1       8.569  -0.710  21.899  0.00  0.00    +0.292 HD
ENDBRANCH  30  32
BRANCH  29  34
ATOM     34  O   UNL     1      10.683  -2.190  23.312  0.00  0.00    -0.503 OA
ATOM     35  H   UNL     1      11.247  -2.988  23.265  0.00  0.00    +0.292 HD
ENDBRANCH  29  34
ENDBRANCH  25  26
BRANCH  24  36
ATOM     36  O   UNL     1       0.858  -5.046  26.658  0.00  0.00    -0.506 OA
ATOM     37  H   UNL     1       1.047  -4.094  26.648  0.00  0.00    +0.292 HD
ENDBRANCH  24  36
BRANCH  21  38
ATOM     38  O   UNL     1       2.540  -9.138  24.994  0.00  0.00    -0.507 OA
ATOM     39  H   UNL     1       1.731  -9.424  25.453  0.00  0.00    +0.292 HD
ENDBRANCH  21  38
ENDBRANCH  14  15
ENDBRANCH   2  14
BRANCH   1  40
ATOM     40  O   UNL     1       7.230  -0.098  25.121  0.00  0.00    -0.337 OA
BRANCH  40  44
ATOM     41  C   UNL     1       6.191   3.023  22.489  0.00  0.00    +0.041 C 
ATOM     42  C   UNL     1       7.039   1.833  22.046  0.00  0.00    +0.149 C 
ATOM     43  O   UNL     1       6.976   0.755  22.972  0.00  0.00    -0.343 OA
ATOM     44  C   UNL     1       7.588   0.967  24.234  0.00  0.00    +0.282 C 
ATOM     45  C   UNL     1       9.108   1.031  24.002  0.00  0.00    +0.201 C 
ATOM     46  C   UNL     1       9.404   2.168  22.996  0.00  0.00    +0.179 C 
ATOM     47  C   UNL     1       8.516   2.093  21.733  0.00  0.00    +0.174 C 
BRANCH  47  48
ATOM     48  O   UNL     1       8.986   0.983  20.942  0.00  0.00    -0.387 OA
ATOM     49  H   UNL     1       9.937   0.848  21.132  0.00  0.00    +0.210 HD
ENDBRANCH  47  48
BRANCH  46  50
ATOM     50  O   UNL     1       9.306   3.434  23.663  0.00  0.00    -0.386 OA
ATOM     51  H   UNL     1       9.433   4.167  23.040  0.00  0.00    +0.210 HD
ENDBRANCH  46  50
BRANCH  45  52
ATOM     52  O   UNL     1       9.818   1.251  25.232  0.00  0.00    -0.384 OA
ATOM     53  H   UNL     1      10.339   2.071  25.105  0.00  0.00    +0.210 HD
ENDBRANCH  45  52
ENDBRANCH  40  44
ENDBRANCH   1  40
TORSDOF 16
ENDMDL
MODEL 3
REMARK VINA RESULT:      -6.9      1.884      7.280
REMARK  Name = 
REMARK  17 active torsions:
REMARK  status: ('A' for Active; 'I' for Inactive)
REMARK    1  A    between atoms: C_1  and  C_2
REMARK    2  A    between atoms: C_4  and  O_53
REMARK    3  A    between atoms: C_6  and  O_52
REMARK    4  A    between atoms: C_8  and  O_51
REMARK    5  A    between atoms: C_10  and  O_13
REMARK    6  A    between atoms: O_13  and  C_14
REMARK    7  A    between atoms: C_16  and  O_50
REMARK    8  A    between atoms: C_18  and  O_49
REMARK    9  A    between atoms: C_20  and  C_47
REMARK   10  A    between atoms: C_23  and  O_25
REMARK   11  A    between atoms: O_25  and  C_26
REMARK   12  A    between atoms: C_27  and  C_39
REMARK   13  A    between atoms: C_31  and  O_38
REMARK   14  A    between atoms: C_33  and  O_37
REMARK   15  A    between atoms: C_41  and  O_46
REMARK   16  A    between atoms: C_42  and  O_45
REMARK   17  A    between atoms: C_47  and  O_48
REMARK                            x       y       z     vdW  Elec       q    Type
REMARK                         _______ _______ _______ _____ _____    ______ ____
ROOT
ATOM      1  C   UNL     1       5.564  -0.669  26.078  0.00  0.00    +0.221 C 
ATOM      2  C   UNL     1       5.839   0.768  25.551  0.00  0.00    +0.340 C 
ATOM      3  O   UNL     1       6.719   1.429  26.495  0.00  0.00    -0.331 OA
ATOM      4  C   UNL     1       6.008   1.688  27.731  0.00  0.00    +0.179 C 
ATOM      5  C   UNL     1       5.737   0.360  28.453  0.00  0.00    +0.177 C 
ATOM      6  C   UNL     1       4.971  -0.543  27.503  0.00  0.00    +0.180 C 
ENDROOT
BRANCH   6   7
ATOM      7  O   UNL     1       4.750  -1.830  28.090  0.00  0.00    -0.386 OA
ATOM      8  H   UNL     1       5.486  -2.385  27.764  0.00  0.00    +0.210 HD
ENDBRANCH   6   7
BRANCH   5   9
ATOM      9  O   UNL     1       4.897   0.581  29.598  0.00  0.00    -0.386 OA
ATOM     10  H   UNL     1       4.417   1.414  29.413  0.00  0.00    +0.210 HD
ENDBRANCH   5   9
BRANCH   4  11
ATOM     11  C   UNL     1       6.742   2.691  28.628  0.00  0.00    +0.190 C 
BRANCH  11  12
ATOM     12  O   UNL     1       7.763   2.082  29.411  0.00  0.00    -0.392 OA
ATOM     13  H   UNL     1       8.502   1.909  28.811  0.00  0.00    +0.210 HD
ENDBRANCH  11  12
ENDBRANCH   4  11
BRANCH   2  14
ATOM     14  O   UNL     1       6.360   0.749  24.199  0.00  0.00    -0.453 OA
BRANCH  14  15
ATOM     15  C   UNL     1       7.502   1.524  23.929  0.00  0.00    +0.214 A 
ATOM     16  C   UNL     1       7.388   2.948  23.431  0.00  0.00    +0.238 A 
ATOM     17  O   UNL     1       6.395   3.362  22.842  0.00  0.00    -0.283 OA
ATOM     18  C   UNL     1       8.568   3.817  23.530  0.00  0.00    +0.109 A 
ATOM     19  C   UNL     1       9.788   3.190  23.715  0.00  0.00    +0.147 A 
ATOM     20  C   UNL     1      10.972   3.933  23.747  0.00  0.00    +0.092 A 
ATOM     21  C   UNL     1      10.915   5.312  23.586  0.00  0.00    +0.124 A 
ATOM     22  C   UNL     1       9.700   5.955  23.385  0.00  0.00    +0.091 A 
ATOM     23  O   UNL     1       9.900   1.837  23.812  0.00  0.00    -0.451 OA
ATOM     24  C   UNL     1       8.523   5.206  23.362  0.00  0.00    +0.135 A 
ATOM     25  C   UNL     1       8.769   1.045  24.032  0.00  0.00    +0.181 A 
BRANCH  25  26
ATOM     26  C   UNL     1       9.216  -0.377  24.297  0.00  0.00    +0.025 A 
ATOM     27  C   UNL     1      10.025  -1.020  23.334  0.00  0.00    +0.015 A 
ATOM     28  C   UNL     1      10.316  -2.394  23.389  0.00  0.00    +0.050 A 
ATOM     29  C   UNL     1       9.813  -3.137  24.438  0.00  0.00    +0.158 A 
ATOM     30  C   UNL     1       9.046  -2.523  25.424  0.00  0.00    +0.159 A 
ATOM     31  C   UNL     1       8.739  -1.153  25.360  0.00  0.00    +0.060 A 
BRANCH  30  32
ATOM     32  O   UNL     1       8.593  -3.320  26.438  0.00  0.00    -0.503 OA
ATOM     33  H   UNL     1       9.307  -3.417  27.101  0.00  0.00    +0.292 HD
ENDBRANCH  30  32
BRANCH  29  34
ATOM     34  O   UNL     1      10.058  -4.479  24.481  0.00  0.00    -0.503 OA
ATOM     35  H   UNL     1       9.878  -4.792  23.571  0.00  0.00    +0.292 HD
ENDBRANCH  29  34
ENDBRANCH  25  26
BRANCH  24  36
ATOM     36  O   UNL     1       7.335   5.854  23.182  0.00  0.00    -0.506 OA
ATOM     37  H   UNL     1       7.009   5.713  22.279  0.00  0.00    +0.292 HD
ENDBRANCH  24  36
BRANCH  21  38
ATOM     38  O   UNL     1      12.037   6.085  23.603  0.00  0.00    -0.507 OA
ATOM     39  H   UNL     1      11.955   6.759  24.299  0.00  0.00    +0.292 HD
ENDBRANCH  21  38
ENDBRANCH  14  15
ENDBRANCH   2  14
BRANCH   1  40
ATOM     40  O   UNL     1       4.715  -1.507  25.244  0.00  0.00    -0.337 OA
BRANCH  40  44
ATOM     41  C   UNL     1       7.108  -3.028  22.128  0.00  0.00    +0.041 C 
ATOM     42  C   UNL     1       5.682  -3.518  22.372  0.00  0.00    +0.149 C 
ATOM     43  O   UNL     1       4.955  -2.645  23.229  0.00  0.00    -0.343 OA
ATOM     44  C   UNL     1       5.375  -2.593  24.584  0.00  0.00    +0.282 C 
ATOM     45  C   UNL     1       5.026  -3.948  25.224  0.00  0.00    +0.201 C 
ATOM     46  C   UNL     1       5.733  -5.066  24.423  0.00  0.00    +0.179 C 
ATOM     47  C   UNL     1       5.504  -4.944  22.899  0.00  0.00    +0.174 C 
BRANCH  47  48
ATOM     48  O   UNL     1       4.138  -5.327  22.639  0.00  0.00    -0.387 OA
ATOM     49  H   UNL     1       4.037  -6.278  22.849  0.00  0.00    +0.210 HD
ENDBRANCH  47  48
BRANCH  46  50
ATOM     50  O   UNL     1       7.125  -5.096  24.769  0.00  0.00    -0.386 OA
ATOM     51  H   UNL     1       7.577  -4.292  24.467  0.00  0.00    +0.210 HD
ENDBRANCH  46  50
BRANCH  45  52
ATOM     52  O   UNL     1       5.422  -3.992  26.605  0.00  0.00    -0.384 OA
ATOM     53  H   UNL     1       5.956  -4.807  26.711  0.00  0.00    +0.210 HD
ENDBRANCH  45  52
ENDBRANCH  40  44
ENDBRANCH   1  40
TORSDOF 16
ENDMDL
MODEL 4
REMARK VINA RESULT:      -6.9      2.240      7.555
REMARK  Name = 
REMARK  17 active torsions:
REMARK  status: ('A' for Active; 'I' for Inactive)
REMARK    1  A    between atoms: C_1  and  C_2
REMARK    2  A    between atoms: C_4  and  O_53
REMARK    3  A    between atoms: C_6  and  O_52
REMARK    4  A    between atoms: C_8  and  O_51
REMARK    5  A    between atoms: C_10  and  O_13
REMARK    6  A    between atoms: O_13  and  C_14
REMARK    7  A    between atoms: C_16  and  O_50
REMARK    8  A    between atoms: C_18  and  O_49
REMARK    9  A    between atoms: C_20  and  C_47
REMARK   10  A    between atoms: C_23  and  O_25
REMARK   11  A    between atoms: O_25  and  C_26
REMARK   12  A    between atoms: C_27  and  C_39
REMARK   13  A    between atoms: C_31  and  O_38
REMARK   14  A    between atoms: C_33  and  O_37
REMARK   15  A    between atoms: C_41  and  O_46
REMARK   16  A    between atoms: C_42  and  O_45
REMARK   17  A    between atoms: C_47  and  O_48
REMARK                            x       y       z     vdW  Elec       q    Type
REMARK                         _______ _______ _______ _____ _____    ______ ____
ROOT
ATOM      1  C   UNL     1       4.679  -1.702  26.353  0.00  0.00    +0.221 C 
ATOM      2  C   UNL     1       5.202  -0.435  25.616  0.00  0.00    +0.340 C 
ATOM      3  O   UNL     1       6.028   0.310  26.545  0.00  0.00    -0.331 OA
ATOM      4  C   UNL     1       5.200   0.884  27.588  0.00  0.00    +0.179 C 
ATOM      5  C   UNL     1       4.670  -0.237  28.494  0.00  0.00    +0.177 C 
ATOM      6  C   UNL     1       3.926  -1.232  27.621  0.00  0.00    +0.180 C 
ENDROOT
BRANCH   6   7
ATOM      7  O   UNL     1       3.467  -2.346  28.395  0.00  0.00    -0.386 OA
ATOM      8  H   UNL     1       4.057  -2.371  29.174  0.00  0.00    +0.210 HD
ENDBRANCH   6   7
BRANCH   5   9
ATOM      9  O   UNL     1       3.723   0.294  29.435  0.00  0.00    -0.386 OA
ATOM     10  H   UNL     1       2.964   0.599  28.899  0.00  0.00    +0.210 HD
ENDBRANCH   5   9
BRANCH   4  11
ATOM     11  C   UNL     1       5.933   1.968  28.385  0.00  0.00    +0.190 C 
BRANCH  11  12
ATOM     12  O   UNL     1       7.345   1.788  28.388  0.00  0.00    -0.392 OA
ATOM     13  H   UNL     1       7.671   2.183  29.209  0.00  0.00    +0.210 HD
ENDBRANCH  11  12
ENDBRANCH   4  11
BRANCH   2  14
ATOM     14  O   UNL     1       5.888  -0.779  24.388  0.00  0.00    -0.453 OA
BRANCH  14  15
ATOM     15  C   UNL     1       7.112  -0.139  24.123  0.00  0.00    +0.214 A 
ATOM     16  C   UNL     1       7.167   1.178  23.380  0.00  0.00    +0.238 A 
ATOM     17  O   UNL     1       6.277   1.543  22.620  0.00  0.00    -0.283 OA
ATOM     18  C   UNL     1       8.398   1.974  23.465  0.00  0.00    +0.109 A 
ATOM     19  C   UNL     1       9.537   1.314  23.892  0.00  0.00    +0.147 A 
ATOM     20  C   UNL     1      10.769   1.975  23.933  0.00  0.00    +0.092 A 
ATOM     21  C   UNL     1      10.842   3.304  23.535  0.00  0.00    +0.124 A 
ATOM     22  C   UNL     1       9.711   3.977  23.091  0.00  0.00    +0.091 A 
ATOM     23  O   UNL     1       9.527  -0.004  24.230  0.00  0.00    -0.451 OA
ATOM     24  C   UNL     1       8.486   3.312  23.060  0.00  0.00    +0.135 A 
ATOM     25  C   UNL     1       8.318  -0.671  24.450  0.00  0.00    +0.181 A 
BRANCH  25  26
ATOM     26  C   UNL     1       8.617  -2.049  25.002  0.00  0.00    +0.025 A 
ATOM     27  C   UNL     1       9.503  -2.885  24.285  0.00  0.00    +0.015 A 
ATOM     28  C   UNL     1       9.680  -4.243  24.601  0.00  0.00    +0.050 A 
ATOM     29  C   UNL     1       8.982  -4.772  25.668  0.00  0.00    +0.158 A 
ATOM     30  C   UNL     1       8.133  -3.964  26.418  0.00  0.00    +0.159 A 
ATOM     31  C   UNL     1       7.940  -2.610  26.091  0.00  0.00    +0.060 A 
BRANCH  30  32
ATOM     32  O   UNL     1       7.485  -4.555  27.466  0.00  0.00    -0.503 OA
ATOM     33  H   UNL     1       6.524  -4.566  27.272  0.00  0.00    +0.292 HD
ENDBRANCH  30  32
BRANCH  29  34
ATOM     34  O   UNL     1       9.119  -6.099  25.960  0.00  0.00    -0.503 OA
ATOM     35  H   UNL     1       8.292  -6.335  26.426  0.00  0.00    +0.292 HD
ENDBRANCH  29  34
ENDBRANCH  25  26
BRANCH  24  36
ATOM     36  O   UNL     1       7.379   3.992  22.638  0.00  0.00    -0.506 OA
ATOM     37  H   UNL     1       7.640   4.753  22.096  0.00  0.00    +0.292 HD
ENDBRANCH  24  36
BRANCH  21  38
ATOM     38  O   UNL     1      12.017   3.995  23.550  0.00  0.00    -0.507 OA
ATOM     39  H   UNL     1      12.479   3.866  22.703  0.00  0.00    +0.292 HD
ENDBRANCH  21  38
ENDBRANCH  14  15
ENDBRANCH   2  14
BRANCH   1  40
ATOM     40  O   UNL     1       3.845  -2.602  25.568  0.00  0.00    -0.337 OA
BRANCH  40  44
ATOM     41  C   UNL     1       6.398  -4.744  22.990  0.00  0.00    +0.041 C 
ATOM     42  C   UNL     1       4.918  -5.090  23.143  0.00  0.00    +0.149 C 
ATOM     43  O   UNL     1       4.186  -4.049  23.779  0.00  0.00    -0.343 OA
ATOM     44  C   UNL     1       4.473  -3.819  25.149  0.00  0.00    +0.282 C 
ATOM     45  C   UNL     1       3.950  -5.032  25.938  0.00  0.00    +0.201 C 
ATOM     46  C   UNL     1       4.635  -6.306  25.390  0.00  0.00    +0.179 C 
ATOM     47  C   UNL     1       4.569  -6.404  23.849  0.00  0.00    +0.174 C 
BRANCH  47  48
ATOM     48  O   UNL     1       3.208  -6.728  23.498  0.00  0.00    -0.387 OA
ATOM     49  H   UNL     1       3.024  -6.368  22.606  0.00  0.00    +0.210 HD
ENDBRANCH  47  48
BRANCH  46  50
ATOM     50  O   UNL     1       5.979  -6.378  25.889  0.00  0.00    -0.386 OA
ATOM     51  H   UNL     1       5.997  -6.727  26.794  0.00  0.00    +0.210 HD
ENDBRANCH  46  50
BRANCH  45  52
ATOM     52  O   UNL     1       4.202  -4.891  27.345  0.00  0.00    -0.384 OA
ATOM     53  H   UNL     1       5.173  -4.961  27.458  0.00  0.00    +0.210 HD
ENDBRANCH  45  52
ENDBRANCH  40  44
ENDBRANCH   1  40
TORSDOF 16
ENDMDL
MODEL 5
REMARK VINA RESULT:      -6.8      2.247      5.195
REMARK  Name = 
REMARK  17 active torsions:
REMARK  status: ('A' for Active; 'I' for Inactive)
REMARK    1  A    between atoms: C_1  and  C_2
REMARK    2  A    between atoms: C_4  and  O_53
REMARK    3  A    between atoms: C_6  and  O_52
REMARK    4  A    between atoms: C_8  and  O_51
REMARK    5  A    between atoms: C_10  and  O_13
REMARK    6  A    between atoms: O_13  and  C_14
REMARK    7  A    between atoms: C_16  and  O_50
REMARK    8  A    between atoms: C_18  and  O_49
REMARK    9  A    between atoms: C_20  and  C_47
REMARK   10  A    between atoms: C_23  and  O_25
REMARK   11  A    between atoms: O_25  and  C_26
REMARK   12  A    between atoms: C_27  and  C_39
REMARK   13  A    between atoms: C_31  and  O_38
REMARK   14  A    between atoms: C_33  and  O_37
REMARK   15  A    between atoms: C_41  and  O_46
REMARK   16  A    between atoms: C_42  and  O_45
REMARK   17  A    between atoms: C_47  and  O_48
REMARK                            x       y       z     vdW  Elec       q    Type
REMARK                         _______ _______ _______ _____ _____    ______ ____
ROOT
ATOM      1  C   UNL     1       7.548   0.107  23.148  0.00  0.00    +0.221 C 
ATOM      2  C   UNL     1       6.922  -1.245  23.597  0.00  0.00    +0.340 C 
ATOM      3  O   UNL     1       7.924  -1.972  24.350  0.00  0.00    -0.331 OA
ATOM      4  C   UNL     1       8.987  -2.406  23.464  0.00  0.00    +0.179 C 
ATOM      5  C   UNL     1       9.792  -1.185  22.995  0.00  0.00    +0.177 C 
ATOM      6  C   UNL     1       8.829  -0.212  22.339  0.00  0.00    +0.180 C 
ENDROOT
BRANCH   6   7
ATOM      7  O   UNL     1       9.505   0.986  21.944  0.00  0.00    -0.386 OA
ATOM      8  H   UNL     1       9.914   1.327  22.764  0.00  0.00    +0.210 HD
ENDBRANCH   6   7
BRANCH   5   9
ATOM      9  O   UNL     1      10.747  -1.577  21.995  0.00  0.00    -0.386 OA
ATOM     10  H   UNL     1      10.228  -1.705  21.174  0.00  0.00    +0.210 HD
ENDBRANCH   5   9
BRANCH   4  11
ATOM     11  C   UNL     1       9.881  -3.474  24.103  0.00  0.00    +0.190 C 
BRANCH  11  12
ATOM     12  O   UNL     1       9.179  -4.677  24.393  0.00  0.00    -0.392 OA
ATOM     13  H   UNL     1       9.176  -5.196  23.576  0.00  0.00    +0.210 HD
ENDBRANCH  11  12
ENDBRANCH   4  11
BRANCH   2  14
ATOM     14  O   UNL     1       5.689  -1.044  24.330  0.00  0.00    -0.453 OA
BRANCH  14  15
ATOM     15  C   UNL     1       5.314  -2.031  25.258  0.00  0.00    +0.214 A 
ATOM     16  C   UNL     1       4.941  -3.429  24.815  0.00  0.00    +0.238 A 
ATOM     17  O   UNL     1       4.532  -3.674  23.685  0.00  0.00    -0.283 OA
ATOM     18  C   UNL     1       4.931  -4.498  25.821  0.00  0.00    +0.109 A 
ATOM     19  C   UNL     1       4.893  -4.105  27.147  0.00  0.00    +0.147 A 
ATOM     20  C   UNL     1       4.807  -5.056  28.169  0.00  0.00    +0.092 A 
ATOM     21  C   UNL     1       4.756  -6.405  27.842  0.00  0.00    +0.124 A 
ATOM     22  C   UNL     1       4.780  -6.816  26.515  0.00  0.00    +0.091 A 
ATOM     23  O   UNL     1       4.875  -2.795  27.514  0.00  0.00    -0.451 OA
ATOM     24  C   UNL     1       4.872  -5.861  25.503  0.00  0.00    +0.135 A 
ATOM     25  C   UNL     1       5.198  -1.795  26.591  0.00  0.00    +0.181 A 
BRANCH  25  26
ATOM     26  C   UNL     1       5.293  -0.472  27.321  0.00  0.00    +0.025 A 
ATOM     27  C   UNL     1       4.096   0.168  27.715  0.00  0.00    +0.015 A 
ATOM     28  C   UNL     1       4.072   1.485  28.207  0.00  0.00    +0.050 A 
ATOM     29  C   UNL     1       5.265   2.167  28.335  0.00  0.00    +0.158 A 
ATOM     30  C   UNL     1       6.464   1.548  27.994  0.00  0.00    +0.159 A 
ATOM     31  C   UNL     1       6.488   0.239  27.483  0.00  0.00    +0.060 A 
BRANCH  30  32
ATOM     32  O   UNL     1       7.605   2.282  28.158  0.00  0.00    -0.503 OA
ATOM     33  H   UNL     1       7.400   3.223  27.977  0.00  0.00    +0.292 HD
ENDBRANCH  30  32
BRANCH  29  34
ATOM     34  O   UNL     1       5.248   3.459  28.777  0.00  0.00    -0.503 OA
ATOM     35  H   UNL     1       5.787   3.447  29.594  0.00  0.00    +0.292 HD
ENDBRANCH  29  34
ENDBRANCH  25  26
BRANCH  24  36
ATOM     36  O   UNL     1       4.912  -6.281  24.204  0.00  0.00    -0.506 OA
ATOM     37  H   UNL     1       4.448  -5.648  23.632  0.00  0.00    +0.292 HD
ENDBRANCH  24  36
BRANCH  21  38
ATOM     38  O   UNL     1       4.667  -7.373  28.797  0.00  0.00    -0.507 OA
ATOM     39  H   UNL     1       4.995  -8.215  28.436  0.00  0.00    +0.292 HD
ENDBRANCH  21  38
ENDBRANCH  14  15
ENDBRANCH   2  14
BRANCH   1  40
ATOM     40  O   UNL     1       6.677   0.999  22.396  0.00  0.00    -0.337 OA
BRANCH  40  44
ATOM     41  C   UNL     1       7.185   5.179  22.255  0.00  0.00    +0.041 C 
ATOM     42  C   UNL     1       7.741   4.329  23.396  0.00  0.00    +0.149 C 
ATOM     43  O   UNL     1       7.759   2.944  23.073  0.00  0.00    -0.343 OA
ATOM     44  C   UNL     1       6.497   2.304  22.955  0.00  0.00    +0.282 C 
ATOM     45  C   UNL     1       5.880   2.243  24.363  0.00  0.00    +0.201 C 
ATOM     46  C   UNL     1       5.770   3.684  24.914  0.00  0.00    +0.179 C 
ATOM     47  C   UNL     1       7.088   4.479  24.773  0.00  0.00    +0.174 C 
BRANCH  47  48
ATOM     48  O   UNL     1       8.015   3.951  25.744  0.00  0.00    -0.387 OA
ATOM     49  H   UNL     1       8.433   3.149  25.369  0.00  0.00    +0.210 HD
ENDBRANCH  47  48
BRANCH  46  50
ATOM     50  O   UNL     1       4.658   4.348  24.298  0.00  0.00    -0.386 OA
ATOM     51  H   UNL     1       4.934   4.824  23.499  0.00  0.00    +0.210 HD
ENDBRANCH  46  50
BRANCH  45  52
ATOM     52  O   UNL     1       4.589   1.613  24.343  0.00  0.00    -0.384 OA
ATOM     53  H   UNL     1       4.666   0.812  24.902  0.00  0.00    +0.210 HD
ENDBRANCH  45  52
ENDBRANCH  40  44
ENDBRANCH   1  40
TORSDOF 16
ENDMDL
MODEL 6
REMARK VINA RESULT:      -6.8      2.184      4.920
REMARK  Name = 
REMARK  17 active torsions:
REMARK  status: ('A' for Active; 'I' for Inactive)
REMARK    1  A    between atoms: C_1  and  C_2
REMARK    2  A    between atoms: C_4  and  O_53
REMARK    3  A    between atoms: C_6  and  O_52
REMARK    4  A    between atoms: C_8  and  O_51
REMARK    5  A    between atoms: C_10  and  O_13
REMARK    6  A    between atoms: O_13  and  C_14
REMARK    7  A    between atoms: C_16  and  O_50
REMARK    8  A    between atoms: C_18  and  O_49
REMARK    9  A    between atoms: C_20  and  C_47
REMARK   10  A    between atoms: C_23  and  O_25
REMARK   11  A    between atoms: O_25  and  C_26
REMARK   12  A    between atoms: C_27  and  C_39
REMARK   13  A    between atoms: C_31  and  O_38
REMARK   14  A    between atoms: C_33  and  O_37
REMARK   15  A    between atoms: C_41  and  O_46
REMARK   16  A    between atoms: C_42  and  O_45
REMARK   17  A    between atoms: C_47  and  O_48
REMARK                            x       y       z     vdW  Elec       q    Type
REMARK                         _______ _______ _______ _____ _____    ______ ____
ROOT
ATOM      1  C   UNL     1       7.200   2.744  23.091  0.00  0.00    +0.221 C 
ATOM      2  C   UNL     1       7.395   1.204  23.191  0.00  0.00    +0.340 C 
ATOM      3  O   UNL     1       8.474   0.951  24.125  0.00  0.00    -0.331 OA
ATOM      4  C   UNL     1       9.734   1.381  23.549  0.00  0.00    +0.179 C 
ATOM      5  C   UNL     1       9.761   2.915  23.469  0.00  0.00    +0.177 C 
ATOM      6  C   UNL     1       8.554   3.364  22.665  0.00  0.00    +0.180 C 
ENDROOT
BRANCH   6   7
ATOM      7  O   UNL     1       8.478   4.792  22.614  0.00  0.00    -0.386 OA
ATOM      8  H   UNL     1       9.291   5.071  22.148  0.00  0.00    +0.210 HD
ENDBRANCH   6   7
BRANCH   5   9
ATOM      9  O   UNL     1      10.931   3.352  22.758  0.00  0.00    -0.386 OA
ATOM     10  H   UNL     1      11.691   3.055  23.298  0.00  0.00    +0.210 HD
ENDBRANCH   5   9
BRANCH   4  11
ATOM     11  C   UNL     1      10.943   0.824  24.308  0.00  0.00    +0.190 C 
BRANCH  11  12
ATOM     12  O   UNL     1      10.607   0.358  25.610  0.00  0.00    -0.392 OA
ATOM     13  H   UNL     1       9.645   0.426  25.686  0.00  0.00    +0.210 HD
ENDBRANCH  11  12
ENDBRANCH   4  11
BRANCH   2  14
ATOM     14  O   UNL     1       6.161   0.533  23.546  0.00  0.00    -0.453 OA
BRANCH  14  15
ATOM     15  C   UNL     1       6.250  -0.596  24.379  0.00  0.00    +0.214 A 
ATOM     16  C   UNL     1       6.463  -1.982  23.810  0.00  0.00    +0.238 A 
ATOM     17  O   UNL     1       6.154  -2.275  22.660  0.00  0.00    -0.283 OA
ATOM     18  C   UNL     1       6.921  -3.043  24.715  0.00  0.00    +0.109 A 
ATOM     19  C   UNL     1       6.768  -2.814  26.071  0.00  0.00    +0.147 A 
ATOM     20  C   UNL     1       7.109  -3.800  27.002  0.00  0.00    +0.092 A 
ATOM     21  C   UNL     1       7.600  -5.019  26.554  0.00  0.00    +0.124 A 
ATOM     22  C   UNL     1       7.747  -5.271  25.196  0.00  0.00    +0.091 A 
ATOM     23  O   UNL     1       6.231  -1.661  26.554  0.00  0.00    -0.451 OA
ATOM     24  C   UNL     1       7.411  -4.279  24.274  0.00  0.00    +0.135 A 
ATOM     25  C   UNL     1       6.090  -0.542  25.727  0.00  0.00    +0.181 A 
BRANCH  25  26
ATOM     26  C   UNL     1       5.662   0.638  26.574  0.00  0.00    +0.025 A 
ATOM     27  C   UNL     1       4.303   0.743  26.946  0.00  0.00    +0.015 A 
ATOM     28  C   UNL     1       3.773   1.896  27.549  0.00  0.00    +0.050 A 
ATOM     29  C   UNL     1       4.618   2.956  27.811  0.00  0.00    +0.158 A 
ATOM     30  C   UNL     1       5.970   2.866  27.493  0.00  0.00    +0.159 A 
ATOM     31  C   UNL     1       6.498   1.721  26.873  0.00  0.00    +0.060 A 
BRANCH  30  32
ATOM     32  O   UNL     1       6.747   3.950  27.792  0.00  0.00    -0.503 OA
ATOM     33  H   UNL     1       6.181   4.634  28.207  0.00  0.00    +0.292 HD
ENDBRANCH  30  32
BRANCH  29  34
ATOM     34  O   UNL     1       4.105   4.095  28.362  0.00  0.00    -0.503 OA
ATOM     35  H   UNL     1       4.043   4.724  27.614  0.00  0.00    +0.292 HD
ENDBRANCH  29  34
ENDBRANCH  25  26
BRANCH  24  36
ATOM     36  O   UNL     1       7.578  -4.535  22.943  0.00  0.00    -0.506 OA
ATOM     37  H   UNL     1       6.720  -4.720  22.528  0.00  0.00    +0.292 HD
ENDBRANCH  24  36
BRANCH  21  38
ATOM     38  O   UNL     1       7.943  -6.017  27.417  0.00  0.00    -0.507 OA
ATOM     39  H   UNL     1       7.137  -6.429  27.772  0.00  0.00    +0.292 HD
ENDBRANCH  21  38
ENDBRANCH  14  15
ENDBRANCH   2  14
BRANCH   1  40
ATOM     40  O   UNL     1       6.131   3.200  22.213  0.00  0.00    -0.337 OA
BRANCH  40  44
ATOM     41  C   UNL     1       4.146   6.910  22.427  0.00  0.00    +0.041 C 
ATOM     42  C   UNL     1       4.962   6.354  23.593  0.00  0.00    +0.149 C 
ATOM     43  O   UNL     1       5.811   5.285  23.193  0.00  0.00    -0.343 OA
ATOM     44  C   UNL     1       5.172   4.077  22.812  0.00  0.00    +0.282 C 
ATOM     45  C   UNL     1       4.554   3.466  24.083  0.00  0.00    +0.201 C 
ATOM     46  C   UNL     1       3.573   4.493  24.695  0.00  0.00    +0.179 C 
ATOM     47  C   UNL     1       4.196   5.900  24.839  0.00  0.00    +0.174 C 
BRANCH  47  48
ATOM     48  O   UNL     1       5.145   5.840  25.924  0.00  0.00    -0.387 OA
ATOM     49  H   UNL     1       5.638   4.997  25.858  0.00  0.00    +0.210 HD
ENDBRANCH  47  48
BRANCH  46  50
ATOM     50  O   UNL     1       2.357   4.506  23.934  0.00  0.00    -0.386 OA
ATOM     51  H   UNL     1       2.304   3.734  23.348  0.00  0.00    +0.210 HD
ENDBRANCH  46  50
BRANCH  45  52
ATOM     52  O   UNL     1       3.874   2.233  23.794  0.00  0.00    -0.384 OA
ATOM     53  H   UNL     1       3.877   1.717  24.627  0.00  0.00    +0.210 HD
ENDBRANCH  45  52
ENDBRANCH  40  44
ENDBRANCH   1  40
TORSDOF 16
ENDMDL
MODEL 7
REMARK VINA RESULT:      -6.6      2.922      8.977
REMARK  Name = 
REMARK  17 active torsions:
REMARK  status: ('A' for Active; 'I' for Inactive)
REMARK    1  A    between atoms: C_1  and  C_2
REMARK    2  A    between atoms: C_4  and  O_53
REMARK    3  A    between atoms: C_6  and  O_52
REMARK    4  A    between atoms: C_8  and  O_51
REMARK    5  A    between atoms: C_10  and  O_13
REMARK    6  A    between atoms: O_13  and  C_14
REMARK    7  A    between atoms: C_16  and  O_50
REMARK    8  A    between atoms: C_18  and  O_49
REMARK    9  A    between atoms: C_20  and  C_47
REMARK   10  A    between atoms: C_23  and  O_25
REMARK   11  A    between atoms: O_25  and  C_26
REMARK   12  A    between atoms: C_27  and  C_39
REMARK   13  A    between atoms: C_31  and  O_38
REMARK   14  A    between atoms: C_33  and  O_37
REMARK   15  A    between atoms: C_41  and  O_46
REMARK   16  A    between atoms: C_42  and  O_45
REMARK   17  A    between atoms: C_47  and  O_48
REMARK                            x       y       z     vdW  Elec       q    Type
REMARK                         _______ _______ _______ _____ _____    ______ ____
ROOT
ATOM      1  C   UNL     1       4.861  -3.832  25.321  0.00  0.00    +0.221 C 
ATOM      2  C   UNL     1       6.374  -4.168  25.196  0.00  0.00    +0.340 C 
ATOM      3  O   UNL     1       6.723  -4.137  23.790  0.00  0.00    -0.331 OA
ATOM      4  C   UNL     1       6.105  -5.254  23.104  0.00  0.00    +0.179 C 
ATOM      5  C   UNL     1       4.586  -5.037  23.040  0.00  0.00    +0.177 C 
ATOM      6  C   UNL     1       4.078  -4.853  24.459  0.00  0.00    +0.180 C 
ENDROOT
BRANCH   6   7
ATOM      7  O   UNL     1       2.675  -4.571  24.466  0.00  0.00    -0.386 OA
ATOM      8  H   UNL     1       2.474  -4.314  25.387  0.00  0.00    +0.210 HD
ENDBRANCH   6   7
BRANCH   5   9
ATOM      9  O   UNL     1       3.941  -6.205  22.506  0.00  0.00    -0.386 OA
ATOM     10  H   UNL     1       3.965  -6.096  21.534  0.00  0.00    +0.210 HD
ENDBRANCH   5   9
BRANCH   4  11
ATOM     11  C   UNL     1       6.710  -5.496  21.717  0.00  0.00    +0.190 C 
BRANCH  11  12
ATOM     12  O   UNL     1       5.875  -5.024  20.664  0.00  0.00    -0.392 OA
ATOM     13  H   UNL     1       6.379  -4.339  20.202  0.00  0.00    +0.210 HD
ENDBRANCH  11  12
ENDBRANCH   4  11
BRANCH   2  14
ATOM     14  O   UNL     1       7.185  -3.284  26.007  0.00  0.00    -0.453 OA
BRANCH  14  15
ATOM     15  C   UNL     1       7.633  -2.087  25.420  0.00  0.00    +0.214 A 
ATOM     16  C   UNL     1       8.818  -2.066  24.480  0.00  0.00    +0.238 A 
ATOM     17  O   UNL     1       9.689  -2.928  24.499  0.00  0.00    -0.283 OA
ATOM     18  C   UNL     1       9.000  -0.892  23.617  0.00  0.00    +0.109 A 
ATOM     19  C   UNL     1       8.317   0.257  23.977  0.00  0.00    +0.147 A 
ATOM     20  C   UNL     1       8.489   1.443  23.255  0.00  0.00    +0.092 A 
ATOM     21  C   UNL     1       9.359   1.461  22.172  0.00  0.00    +0.124 A 
ATOM     22  C   UNL     1      10.064   0.320  21.807  0.00  0.00    +0.091 A 
ATOM     23  O   UNL     1       7.504   0.305  25.067  0.00  0.00    -0.451 OA
ATOM     24  C   UNL     1       9.880  -0.859  22.528  0.00  0.00    +0.135 A 
ATOM     25  C   UNL     1       7.088  -0.873  25.694  0.00  0.00    +0.181 A 
BRANCH  25  26
ATOM     26  C   UNL     1       6.044  -0.527  26.735  0.00  0.00    +0.025 A 
ATOM     27  C   UNL     1       4.690  -0.464  26.337  0.00  0.00    +0.015 A 
ATOM     28  C   UNL     1       3.681   0.047  27.172  0.00  0.00    +0.050 A 
ATOM     29  C   UNL     1       4.023   0.479  28.437  0.00  0.00    +0.158 A 
ATOM     30  C   UNL     1       5.342   0.391  28.873  0.00  0.00    +0.159 A 
ATOM     31  C   UNL     1       6.355  -0.102  28.032  0.00  0.00    +0.060 A 
BRANCH  30  32
ATOM     32  O   UNL     1       5.603   0.827  30.142  0.00  0.00    -0.503 OA
ATOM     33  H   UNL     1       6.560   0.713  30.320  0.00  0.00    +0.292 HD
ENDBRANCH  30  32
BRANCH  29  34
ATOM     34  O   UNL     1       3.057   1.011  29.242  0.00  0.00    -0.503 OA
ATOM     35  H   UNL     1       2.325   0.364  29.210  0.00  0.00    +0.292 HD
ENDBRANCH  29  34
ENDBRANCH  25  26
BRANCH  24  36
ATOM     36  O   UNL     1      10.566  -1.977  22.146  0.00  0.00    -0.506 OA
ATOM     37  H   UNL     1       9.978  -2.582  21.664  0.00  0.00    +0.292 HD
ENDBRANCH  24  36
BRANCH  21  38
ATOM     38  O   UNL     1       9.569   2.589  21.438  0.00  0.00    -0.507 OA
ATOM     39  H   UNL     1       9.293   3.367  21.953  0.00  0.00    +0.292 HD
ENDBRANCH  21  38
ENDBRANCH  14  15
ENDBRANCH   2  14
BRANCH   1  40
ATOM     40  O   UNL     1       4.323  -3.787  26.673  0.00  0.00    -0.337 OA
BRANCH  40  44
ATOM     41  C   UNL     1       2.312  -7.483  26.890  0.00  0.00    +0.041 C 
ATOM     42  C   UNL     1       2.282  -6.471  28.034  0.00  0.00    +0.149 C 
ATOM     43  O   UNL     1       2.722  -5.183  27.622  0.00  0.00    -0.343 OA
ATOM     44  C   UNL     1       4.096  -5.058  27.291  0.00  0.00    +0.282 C 
ATOM     45  C   UNL     1       4.898  -5.209  28.596  0.00  0.00    +0.201 C 
ATOM     46  C   UNL     1       4.557  -6.580  29.226  0.00  0.00    +0.179 C 
ATOM     47  C   UNL     1       3.035  -6.833  29.318  0.00  0.00    +0.174 C 
BRANCH  47  48
ATOM     48  O   UNL     1       2.522  -5.985  30.366  0.00  0.00    -0.387 OA
ATOM     49  H   UNL     1       2.311  -5.110  29.981  0.00  0.00    +0.210 HD
ENDBRANCH  47  48
BRANCH  46  50
ATOM     50  O   UNL     1       5.245  -7.618  28.513  0.00  0.00    -0.386 OA
ATOM     51  H   UNL     1       5.760  -8.175  29.118  0.00  0.00    +0.210 HD
ENDBRANCH  46  50
BRANCH  45  52
ATOM     52  O   UNL     1       6.311  -5.103  28.359  0.00  0.00    -0.384 OA
ATOM     53  H   UNL     1       6.706  -5.944  28.670  0.00  0.00    +0.210 HD
ENDBRANCH  45  52
ENDBRANCH  40  44
ENDBRANCH   1  40
TORSDOF 16
ENDMDL
MODEL 8
REMARK VINA RESULT:      -6.5      2.451      8.103
REMARK  Name = 
REMARK  17 active torsions:
REMARK  status: ('A' for Active; 'I' for Inactive)
REMARK    1  A    between atoms: C_1  and  C_2
REMARK    2  A    between atoms: C_4  and  O_53
REMARK    3  A    between atoms: C_6  and  O_52
REMARK    4  A    between atoms: C_8  and  O_51
REMARK    5  A    between atoms: C_10  and  O_13
REMARK    6  A    between atoms: O_13  and  C_14
REMARK    7  A    between atoms: C_16  and  O_50
REMARK    8  A    between atoms: C_18  and  O_49
REMARK    9  A    between atoms: C_20  and  C_47
REMARK   10  A    between atoms: C_23  and  O_25
REMARK   11  A    between atoms: O_25  and  C_26
REMARK   12  A    between atoms: C_27  and  C_39
REMARK   13  A    between atoms: C_31  and  O_38
REMARK   14  A    between atoms: C_33  and  O_37
REMARK   15  A    between atoms: C_41  and  O_46
REMARK   16  A    between atoms: C_42  and  O_45
REMARK   17  A    between atoms: C_47  and  O_48
REMARK                            x       y       z     vdW  Elec       q    Type
REMARK                         _______ _______ _______ _____ _____    ______ ____
ROOT
ATOM      1  C   UNL     1       6.732  -3.523  25.354  0.00  0.00    +0.221 C 
ATOM      2  C   UNL     1       7.046  -2.046  24.983  0.00  0.00    +0.340 C 
ATOM      3  O   UNL     1       7.890  -2.052  23.805  0.00  0.00    -0.331 OA
ATOM      4  C   UNL     1       9.202  -2.567  24.143  0.00  0.00    +0.179 C 
ATOM      5  C   UNL     1       9.099  -4.070  24.445  0.00  0.00    +0.177 C 
ATOM      6  C   UNL     1       8.081  -4.256  25.556  0.00  0.00    +0.180 C 
ENDROOT
BRANCH   6   7
ATOM      7  O   UNL     1       7.881  -5.645  25.836  0.00  0.00    -0.386 OA
ATOM      8  H   UNL     1       8.245  -5.775  26.734  0.00  0.00    +0.210 HD
ENDBRANCH   6   7
BRANCH   5   9
ATOM      9  O   UNL     1      10.357  -4.563  24.934  0.00  0.00    -0.386 OA
ATOM     10  H   UNL     1      10.237  -5.529  25.037  0.00  0.00    +0.210 HD
ENDBRANCH   5   9
BRANCH   4  11
ATOM     11  C   UNL     1      10.244  -2.269  23.059  0.00  0.00    +0.190 C 
BRANCH  11  12
ATOM     12  O   UNL     1       9.654  -1.888  21.821  0.00  0.00    -0.392 OA
ATOM     13  H   UNL     1      10.377  -1.825  21.181  0.00  0.00    +0.210 HD
ENDBRANCH  11  12
ENDBRANCH   4  11
BRANCH   2  14
ATOM     14  O   UNL     1       5.834  -1.270  24.815  0.00  0.00    -0.453 OA
BRANCH  14  15
ATOM     15  C   UNL     1       5.701  -0.095  25.577  0.00  0.00    +0.214 A 
ATOM     16  C   UNL     1       4.577   0.074  26.575  0.00  0.00    +0.238 A 
ATOM     17  O   UNL     1       3.523  -0.548  26.492  0.00  0.00    -0.283 OA
ATOM     18  C   UNL     1       4.702   1.125  27.592  0.00  0.00    +0.109 A 
ATOM     19  C   UNL     1       5.634   2.119  27.349  0.00  0.00    +0.147 A 
ATOM     20  C   UNL     1       5.768   3.199  28.227  0.00  0.00    +0.092 A 
ATOM     21  C   UNL     1       4.952   3.270  29.349  0.00  0.00    +0.124 A 
ATOM     22  C   UNL     1       4.001   2.289  29.600  0.00  0.00    +0.091 A 
ATOM     23  O   UNL     1       6.410   2.126  26.231  0.00  0.00    -0.451 OA
ATOM     24  C   UNL     1       3.879   1.212  28.723  0.00  0.00    +0.135 A 
ATOM     25  C   UNL     1       6.516   0.982  25.434  0.00  0.00    +0.181 A 
BRANCH  25  26
ATOM     26  C   UNL     1       7.590   1.214  24.392  0.00  0.00    +0.025 A 
ATOM     27  C   UNL     1       8.882   1.588  24.826  0.00  0.00    +0.015 A 
ATOM     28  C   UNL     1       9.879   2.023  23.937  0.00  0.00    +0.050 A 
ATOM     29  C   UNL     1       9.595   2.062  22.588  0.00  0.00    +0.158 A 
ATOM     30  C   UNL     1       8.344   1.661  22.126  0.00  0.00    +0.159 A 
ATOM     31  C   UNL     1       7.339   1.244  23.015  0.00  0.00    +0.060 A 
BRANCH  30  32
ATOM     32  O   UNL     1       8.139   1.716  20.776  0.00  0.00    -0.503 OA
ATOM     33  H   UNL     1       7.591   2.504  20.575  0.00  0.00    +0.292 HD
ENDBRANCH  30  32
BRANCH  29  34
ATOM     34  O   UNL     1      10.545   2.520  21.720  0.00  0.00    -0.503 OA
ATOM     35  H   UNL     1      10.336   2.079  20.872  0.00  0.00    +0.292 HD
ENDBRANCH  29  34
ENDBRANCH  25  26
BRANCH  24  36
ATOM     36  O   UNL     1       2.953   0.246  28.993  0.00  0.00    -0.506 OA
ATOM     37  H   UNL     1       2.324   0.561  29.662  0.00  0.00    +0.292 HD
ENDBRANCH  24  36
BRANCH  21  38
ATOM     38  O   UNL     1       5.037   4.303  30.234  0.00  0.00    -0.507 OA
ATOM     39  H   UNL     1       4.996   3.955  31.142  0.00  0.00    +0.292 HD
ENDBRANCH  21  38
ENDBRANCH  14  15
ENDBRANCH   2  14
BRANCH   1  40
ATOM     40  O   UNL     1       5.864  -3.725  26.506  0.00  0.00    -0.337 OA
BRANCH  40  44
ATOM     41  C   UNL     1       3.407  -6.923  27.724  0.00  0.00    +0.041 C 
ATOM     42  C   UNL     1       4.191  -6.953  26.414  0.00  0.00    +0.149 C 
ATOM     43  O   UNL     1       5.200  -5.951  26.371  0.00  0.00    -0.343 OA
ATOM     44  C   UNL     1       4.754  -4.605  26.298  0.00  0.00    +0.282 C 
ATOM     45  C   UNL     1       4.121  -4.407  24.909  0.00  0.00    +0.201 C 
ATOM     46  C   UNL     1       2.970  -5.427  24.745  0.00  0.00    +0.179 C 
ATOM     47  C   UNL     1       3.393  -6.868  25.110  0.00  0.00    +0.174 C 
BRANCH  47  48
ATOM     48  O   UNL     1       4.252  -7.344  24.054  0.00  0.00    -0.387 OA
ATOM     49  H   UNL     1       4.861  -8.013  24.427  0.00  0.00    +0.210 HD
ENDBRANCH  47  48
BRANCH  46  50
ATOM     50  O   UNL     1       1.827  -4.984  25.490  0.00  0.00    -0.386 OA
ATOM     51  H   UNL     1       1.779  -4.015  25.512  0.00  0.00    +0.210 HD
ENDBRANCH  46  50
BRANCH  45  52
ATOM     52  O   UNL     1       3.631  -3.066  24.743  0.00  0.00    -0.384 OA
ATOM     53  H   UNL     1       3.161  -3.050  23.884  0.00  0.00    +0.210 HD
ENDBRANCH  45  52
ENDBRANCH  40  44
ENDBRANCH   1  40
TORSDOF 16
ENDMDL
MODEL 9
REMARK VINA RESULT:      -6.5      2.535      7.868
REMARK  Name = 
REMARK  17 active torsions:
REMARK  status: ('A' for Active; 'I' for Inactive)
REMARK    1  A    between atoms: C_1  and  C_2
REMARK    2  A    between atoms: C_4  and  O_53
REMARK    3  A    between atoms: C_6  and  O_52
REMARK    4  A    between atoms: C_8  and  O_51
REMARK    5  A    between atoms: C_10  and  O_13
REMARK    6  A    between atoms: O_13  and  C_14
REMARK    7  A    between atoms: C_16  and  O_50
REMARK    8  A    between atoms: C_18  and  O_49
REMARK    9  A    between atoms: C_20  and  C_47
REMARK   10  A    between atoms: C_23  and  O_25
REMARK   11  A    between atoms: O_25  and  C_26
REMARK   12  A    between atoms: C_27  and  C_39
REMARK   13  A    between atoms: C_31  and  O_38
REMARK   14  A    between atoms: C_33  and  O_37
REMARK   15  A    between atoms: C_41  and  O_46
REMARK   16  A    between atoms: C_42  and  O_45
REMARK   17  A    between atoms: C_47  and  O_48
REMARK                            x       y       z     vdW  Elec       q    Type
REMARK                         _______ _______ _______ _____ _____    ______ ____
ROOT
ATOM      1  C   UNL     1       6.309  -2.943  23.650  0.00  0.00    +0.221 C 
ATOM      2  C   UNL     1       6.033  -3.429  25.102  0.00  0.00    +0.340 C 
ATOM      3  O   UNL     1       6.209  -4.867  25.131  0.00  0.00    -0.331 OA
ATOM      4  C   UNL     1       5.143  -5.508  24.386  0.00  0.00    +0.179 C 
ATOM      5  C   UNL     1       5.319  -5.216  22.889  0.00  0.00    +0.177 C 
ATOM      6  C   UNL     1       5.351  -3.709  22.706  0.00  0.00    +0.180 C 
ENDROOT
BRANCH   6   7
ATOM      7  O   UNL     1       5.588  -3.367  21.336  0.00  0.00    -0.386 OA
ATOM      8  H   UNL     1       4.700  -3.330  20.929  0.00  0.00    +0.210 HD
ENDBRANCH   6   7
BRANCH   5   9
ATOM      9  O   UNL     1       4.187  -5.709  22.153  0.00  0.00    -0.386 OA
ATOM     10  H   UNL     1       3.480  -5.839  22.816  0.00  0.00    +0.210 HD
ENDBRANCH   5   9
BRANCH   4  11
ATOM     11  C   UNL     1       5.053  -7.011  24.672  0.00  0.00    +0.190 C 
BRANCH  11  12
ATOM     12  O   UNL     1       3.881  -7.605  24.123  0.00  0.00    -0.392 OA
ATOM     13  H   UNL     1       4.156  -8.451  23.742  0.00  0.00    +0.210 HD
ENDBRANCH  11  12
ENDBRANCH   4  11
BRANCH   2  14
ATOM     14  O   UNL     1       6.860  -2.731  26.064  0.00  0.00    -0.453 OA
BRANCH  14  15
ATOM     15  C   UNL     1       6.239  -1.774  26.887  0.00  0.00    +0.214 A 
ATOM     16  C   UNL     1       6.843  -0.403  27.096  0.00  0.00    +0.238 A 
ATOM     17  O   UNL     1       8.040  -0.182  26.948  0.00  0.00    -0.283 OA
ATOM     18  C   UNL     1       5.986   0.660  27.636  0.00  0.00    +0.109 A 
ATOM     19  C   UNL     1       4.818   0.260  28.262  0.00  0.00    +0.147 A 
ATOM     20  C   UNL     1       3.978   1.199  28.869  0.00  0.00    +0.092 A 
ATOM     21  C   UNL     1       4.330   2.543  28.845  0.00  0.00    +0.124 A 
ATOM     22  C   UNL     1       5.506   2.960  28.234  0.00  0.00    +0.091 A 
ATOM     23  O   UNL     1       4.465  -1.050  28.367  0.00  0.00    -0.451 OA
ATOM     24  C   UNL     1       6.333   2.016  27.625  0.00  0.00    +0.135 A 
ATOM     25  C   UNL     1       5.105  -2.022  27.593  0.00  0.00    +0.181 A 
BRANCH  25  26
ATOM     26  C   UNL     1       4.378  -3.339  27.766  0.00  0.00    +0.025 A 
ATOM     27  C   UNL     1       5.019  -4.374  28.483  0.00  0.00    +0.015 A 
ATOM     28  C   UNL     1       4.519  -5.687  28.520  0.00  0.00    +0.050 A 
ATOM     29  C   UNL     1       3.345  -5.969  27.853  0.00  0.00    +0.158 A 
ATOM     30  C   UNL     1       2.668  -4.961  27.172  0.00  0.00    +0.159 A 
ATOM     31  C   UNL     1       3.177  -3.652  27.118  0.00  0.00    +0.060 A 
BRANCH  30  32
ATOM     32  O   UNL     1       1.506  -5.312  26.545  0.00  0.00    -0.503 OA
ATOM     33  H   UNL     1       1.580  -6.244  26.251  0.00  0.00    +0.292 HD
ENDBRANCH  30  32
BRANCH  29  34
ATOM     34  O   UNL     1       2.871  -7.250  27.851  0.00  0.00    -0.503 OA
ATOM     35  H   UNL     1       2.648  -7.431  28.787  0.00  0.00    +0.292 HD
ENDBRANCH  29  34
ENDBRANCH  25  26
BRANCH  24  36
ATOM     36  O   UNL     1       7.477   2.443  27.012  0.00  0.00    -0.506 OA
ATOM     37  H   UNL     1       7.344   3.327  26.632  0.00  0.00    +0.292 HD
ENDBRANCH  24  36
BRANCH  21  38
ATOM     38  O   UNL     1       3.552   3.500  29.425  0.00  0.00    -0.507 OA
ATOM     39  H   UNL     1       2.774   3.667  28.866  0.00  0.00    +0.292 HD
ENDBRANCH  21  38
ENDBRANCH  14  15
ENDBRANCH   2  14
BRANCH   1  40
ATOM     40  O   UNL     1       6.209  -1.507  23.424  0.00  0.00    -0.337 OA
BRANCH  40  44
ATOM     41  C   UNL     1      10.312  -1.595  22.472  0.00  0.00    +0.041 C 
ATOM     42  C   UNL     1       9.777  -0.863  23.701  0.00  0.00    +0.149 C 
ATOM     43  O   UNL     1       8.444  -1.247  24.016  0.00  0.00    -0.343 OA
ATOM     44  C   UNL     1       7.436  -0.846  23.100  0.00  0.00    +0.282 C 
ATOM     45  C   UNL     1       7.306   0.684  23.204  0.00  0.00    +0.201 C 
ATOM     46  C   UNL     1       8.682   1.317  22.892  0.00  0.00    +0.179 C 
ATOM     47  C   UNL     1       9.833   0.667  23.694  0.00  0.00    +0.174 C 
BRANCH  47  48
ATOM     48  O   UNL     1       9.703   1.105  25.062  0.00  0.00    -0.387 OA
ATOM     49  H   UNL     1       8.767   1.006  25.332  0.00  0.00    +0.210 HD
ENDBRANCH  47  48
BRANCH  46  50
ATOM     50  O   UNL     1       8.913   1.287  21.476  0.00  0.00    -0.386 OA
ATOM     51  H   UNL     1       9.191   2.157  21.150  0.00  0.00    +0.210 HD
ENDBRANCH  46  50
BRANCH  45  52
ATOM     52  O   UNL     1       6.306   1.187  22.302  0.00  0.00    -0.384 OA
ATOM     53  H   UNL     1       5.482   0.697  22.505  0.00  0.00    +0.210 HD
ENDBRANCH  45  52
ENDBRANCH  40  44
ENDBRANCH   1  40
TORSDOF 16
ENDMDL
