MODEL 1
REMARK VINA RESULT:      -7.1      0.000      0.000
REMARK  Name = 
REMARK  17 active torsions:
REMARK  status: ('A' for Active; 'I' for Inactive)
REMARK    1  A    between atoms: C_1  and  C_2
REMARK    2  A    between atoms: C_3  and  O_43
REMARK    3  A    between atoms: C_4  and  O_42
REMARK    4  A    between atoms: C_5  and  O_41
REMARK    5  A    between atoms: C_6  and  O_8
REMARK    6  A    between atoms: O_8  and  C_9
REMARK    7  A    between atoms: C_11  and  O_40
REMARK    8  A    between atoms: C_16  and  C_32
REMARK    9  A    between atoms: C_17  and  O_20
REMARK   10  A    between atoms: O_20  and  C_21
REMARK   11  A    between atoms: C_22  and  O_31
REMARK   12  A    between atoms: C_23  and  O_30
REMARK   13  A    between atoms: C_24  and  O_29
REMARK   14  A    between atoms: C_25  and  C_27
REMARK   15  A    between atoms: C_27  and  O_28
REMARK   16  A    between atoms: C_34  and  O_39
REMARK   17  A    between atoms: C_35  and  O_38
REMARK                            x       y       z     vdW  Elec       q    Type
REMARK                         _______ _______ _______ _____ _____    ______ ____
ROOT
ATOM      1  C   UNL     1       7.049  -2.960  22.578  0.00  0.00    +0.131 A 
ATOM      2  C   UNL     1       6.355  -1.807  22.974  0.00  0.00    +0.093 A 
ATOM      3  C   UNL     1       7.020  -0.572  23.042  0.00  0.00    +0.147 A 
ATOM      4  O   UNL     1       6.303   0.533  23.442  0.00  0.00    -0.451 OA
ATOM      5  C   UNL     1       6.901   1.799  23.395  0.00  0.00    +0.181 A 
ATOM      6  C   UNL     1       8.224   1.997  23.165  0.00  0.00    +0.214 A 
ATOM      7  C   UNL     1       9.063   0.763  22.998  0.00  0.00    +0.238 A 
ATOM      8  O   UNL     1      10.281   0.759  23.140  0.00  0.00    -0.283 OA
ATOM      9  C   UNL     1       8.369  -0.498  22.729  0.00  0.00    +0.109 A 
ATOM     10  C   UNL     1       9.042  -1.635  22.266  0.00  0.00    +0.135 A 
ATOM     11  C   UNL     1       8.386  -2.858  22.197  0.00  0.00    +0.092 A 
ENDROOT
BRANCH   5  12
ATOM     12  C   UNL     1       5.921   2.909  23.661  0.00  0.00    +0.025 A 
ATOM     13  C   UNL     1       5.506   3.191  24.982  0.00  0.00    +0.015 A 
ATOM     14  C   UNL     1       4.630   4.252  25.259  0.00  0.00    +0.050 A 
ATOM     15  C   UNL     1       4.152   5.041  24.227  0.00  0.00    +0.158 A 
ATOM     16  C   UNL     1       4.545   4.783  22.919  0.00  0.00    +0.159 A 
ATOM     17  C   UNL     1       5.425   3.746  22.640  0.00  0.00    +0.060 A 
BRANCH  16  18
ATOM     18  O   UNL     1       4.032   5.590  21.938  0.00  0.00    -0.503 OA
ATOM     19  H   UNL     1       3.324   6.134  22.316  0.00  0.00    +0.292 HD
ENDBRANCH  16  18
BRANCH  15  20
ATOM     20  O   UNL     1       3.299   6.072  24.488  0.00  0.00    -0.503 OA
ATOM     21  H   UNL     1       3.633   6.475  25.317  0.00  0.00    +0.292 HD
ENDBRANCH  15  20
ENDBRANCH   5  12
BRANCH  10  22
ATOM     22  O   UNL     1      10.342  -1.561  21.852  0.00  0.00    -0.506 OA
ATOM     23  H   UNL     1      10.590  -2.366  21.368  0.00  0.00    +0.292 HD
ENDBRANCH  10  22
BRANCH   6  24
ATOM     24  O   UNL     1       8.768   3.284  23.106  0.00  0.00    -0.453 OA
BRANCH  24  25
ATOM     25  C   UNL     1       9.300   3.847  24.320  0.00  0.00    +0.340 C 
ATOM     26  O   UNL     1       8.456   4.891  24.824  0.00  0.00    -0.331 OA
ATOM     27  C   UNL     1       8.431   6.073  24.013  0.00  0.00    +0.179 C 
ATOM     28  C   UNL     1       9.835   6.682  24.017  0.00  0.00    +0.177 C 
ATOM     29  C   UNL     1      10.793   5.685  23.362  0.00  0.00    +0.180 C 
ATOM     30  C   UNL     1      10.754   4.337  24.104  0.00  0.00    +0.214 C 
BRANCH  30  31
ATOM     31  O   UNL     1      11.554   3.348  23.442  0.00  0.00    -0.383 OA
ATOM     32  H   UNL     1      11.171   3.190  22.562  0.00  0.00    +0.210 HD
ENDBRANCH  30  31
BRANCH  29  33
ATOM     33  O   UNL     1      12.117   6.234  23.393  0.00  0.00    -0.386 OA
ATOM     34  H   UNL     1      12.106   6.973  22.750  0.00  0.00    +0.210 HD
ENDBRANCH  29  33
BRANCH  28  35
ATOM     35  O   UNL     1      10.328   6.913  25.349  0.00  0.00    -0.386 OA
ATOM     36  H   UNL     1      11.304   6.980  25.291  0.00  0.00    +0.210 HD
ENDBRANCH  28  35
BRANCH  27  37
ATOM     37  C   UNL     1       7.355   7.000  24.585  0.00  0.00    +0.190 C 
BRANCH  37  38
ATOM     38  O   UNL     1       7.347   6.935  26.006  0.00  0.00    -0.392 OA
ATOM     39  H   UNL     1       8.097   6.357  26.244  0.00  0.00    +0.210 HD
ENDBRANCH  37  38
ENDBRANCH  27  37
ENDBRANCH  24  25
ENDBRANCH   6  24
BRANCH   1  40
ATOM     40  O   UNL     1       6.576  -4.241  22.520  0.00  0.00    -0.461 OA
BRANCH  40  44
ATOM     41  C   UNL     1       5.019  -4.550  26.501  0.00  0.00    +0.041 C 
ATOM     42  C   UNL     1       5.794  -5.669  25.798  0.00  0.00    +0.150 C 
ATOM     43  O   UNL     1       6.549  -5.162  24.691  0.00  0.00    -0.334 OA
ATOM     44  C   UNL     1       5.754  -4.725  23.583  0.00  0.00    +0.339 C 
ATOM     45  C   UNL     1       4.952  -5.931  23.037  0.00  0.00    +0.214 C 
ATOM     46  C   UNL     1       4.062  -6.489  24.150  0.00  0.00    +0.180 C 
ATOM     47  C   UNL     1       4.907  -6.853  25.383  0.00  0.00    +0.174 C 
BRANCH  47  48
ATOM     48  O   UNL     1       4.088  -7.253  26.484  0.00  0.00    -0.387 OA
ATOM     49  H   UNL     1       4.571  -7.046  27.305  0.00  0.00    +0.210 HD
ENDBRANCH  47  48
BRANCH  46  50
ATOM     50  O   UNL     1       3.358  -7.653  23.698  0.00  0.00    -0.386 OA
ATOM     51  H   UNL     1       3.627  -7.781  22.764  0.00  0.00    +0.210 HD
ENDBRANCH  46  50
BRANCH  45  52
ATOM     52  O   UNL     1       5.816  -7.004  22.597  0.00  0.00    -0.383 OA
ATOM     53  H   UNL     1       5.277  -7.585  22.023  0.00  0.00    +0.210 HD
ENDBRANCH  45  52
ENDBRANCH  40  44
ENDBRANCH   1  40
TORSDOF 16
ENDMDL
MODEL 2
REMARK VINA RESULT:      -6.7      1.487      1.643
REMARK  Name = 
REMARK  17 active torsions:
REMARK  status: ('A' for Active; 'I' for Inactive)
REMARK    1  A    between atoms: C_1  and  C_2
REMARK    2  A    between atoms: C_3  and  O_43
REMARK    3  A    between atoms: C_4  and  O_42
REMARK    4  A    between atoms: C_5  and  O_41
REMARK    5  A    between atoms: C_6  and  O_8
REMARK    6  A    between atoms: O_8  and  C_9
REMARK    7  A    between atoms: C_11  and  O_40
REMARK    8  A    between atoms: C_16  and  C_32
REMARK    9  A    between atoms: C_17  and  O_20
REMARK   10  A    between atoms: O_20  and  C_21
REMARK   11  A    between atoms: C_22  and  O_31
REMARK   12  A    between atoms: C_23  and  O_30
REMARK   13  A    between atoms: C_24  and  O_29
REMARK   14  A    between atoms: C_25  and  C_27
REMARK   15  A    between atoms: C_27  and  O_28
REMARK   16  A    between atoms: C_34  and  O_39
REMARK   17  A    between atoms: C_35  and  O_38
REMARK                            x       y       z     vdW  Elec       q    Type
REMARK                         _______ _______ _______ _____ _____    ______ ____
ROOT
ATOM      1  C   UNL     1       6.938  -4.044  24.210  0.00  0.00    +0.131 A 
ATOM      2  C   UNL     1       6.173  -2.875  24.330  0.00  0.00    +0.093 A 
ATOM      3  C   UNL     1       6.777  -1.617  24.174  0.00  0.00    +0.147 A 
ATOM      4  O   UNL     1       5.990  -0.495  24.307  0.00  0.00    -0.451 OA
ATOM      5  C   UNL     1       6.533   0.766  24.030  0.00  0.00    +0.181 A 
ATOM      6  C   UNL     1       7.857   0.986  23.824  0.00  0.00    +0.214 A 
ATOM      7  C   UNL     1       8.757  -0.208  23.952  0.00  0.00    +0.238 A 
ATOM      8  O   UNL     1       9.965  -0.116  24.147  0.00  0.00    -0.283 OA
ATOM      9  C   UNL     1       8.137  -1.533  23.915  0.00  0.00    +0.109 A 
ATOM     10  C   UNL     1       8.885  -2.702  23.726  0.00  0.00    +0.135 A 
ATOM     11  C   UNL     1       8.288  -3.948  23.878  0.00  0.00    +0.092 A 
ENDROOT
BRANCH   5  12
ATOM     12  C   UNL     1       5.492   1.852  24.019  0.00  0.00    +0.025 A 
ATOM     13  C   UNL     1       4.708   2.100  25.168  0.00  0.00    +0.015 A 
ATOM     14  C   UNL     1       3.764   3.137  25.196  0.00  0.00    +0.050 A 
ATOM     15  C   UNL     1       3.583   3.937  24.081  0.00  0.00    +0.158 A 
ATOM     16  C   UNL     1       4.341   3.713  22.937  0.00  0.00    +0.159 A 
ATOM     17  C   UNL     1       5.288   2.699  22.910  0.00  0.00    +0.060 A 
BRANCH  16  18
ATOM     18  O   UNL     1       4.111   4.529  21.862  0.00  0.00    -0.503 OA
ATOM     19  H   UNL     1       4.495   5.402  22.041  0.00  0.00    +0.292 HD
ENDBRANCH  16  18
BRANCH  15  20
ATOM     20  O   UNL     1       2.666   4.946  24.100  0.00  0.00    -0.503 OA
ATOM     21  H   UNL     1       1.890   4.576  24.572  0.00  0.00    +0.292 HD
ENDBRANCH  15  20
ENDBRANCH   5  12
BRANCH  10  22
ATOM     22  O   UNL     1      10.201  -2.642  23.364  0.00  0.00    -0.506 OA
ATOM     23  H   UNL     1      10.317  -2.052  22.602  0.00  0.00    +0.292 HD
ENDBRANCH  10  22
BRANCH   6  24
ATOM     24  O   UNL     1       8.345   2.263  23.529  0.00  0.00    -0.453 OA
BRANCH  24  25
ATOM     25  C   UNL     1       9.185   2.905  24.506  0.00  0.00    +0.340 C 
ATOM     26  O   UNL     1       8.407   3.503  25.551  0.00  0.00    -0.331 OA
ATOM     27  C   UNL     1       7.628   4.633  25.136  0.00  0.00    +0.179 C 
ATOM     28  C   UNL     1       8.592   5.738  24.700  0.00  0.00    +0.177 C 
ATOM     29  C   UNL     1       9.378   5.239  23.485  0.00  0.00    +0.180 C 
ATOM     30  C   UNL     1      10.122   3.936  23.827  0.00  0.00    +0.214 C 
BRANCH  30  31
ATOM     31  O   UNL     1      10.773   3.384  22.675  0.00  0.00    -0.383 OA
ATOM     32  H   UNL     1      11.646   3.802  22.591  0.00  0.00    +0.210 HD
ENDBRANCH  30  31
BRANCH  29  33
ATOM     33  O   UNL     1      10.308   6.258  23.092  0.00  0.00    -0.386 OA
ATOM     34  H   UNL     1      11.166   5.990  23.482  0.00  0.00    +0.210 HD
ENDBRANCH  29  33
BRANCH  28  35
ATOM     35  O   UNL     1       9.561   6.054  25.716  0.00  0.00    -0.386 OA
ATOM     36  H   UNL     1      10.358   5.511  25.539  0.00  0.00    +0.210 HD
ENDBRANCH  28  35
BRANCH  27  37
ATOM     37  C   UNL     1       6.729   5.028  26.310  0.00  0.00    +0.190 C 
BRANCH  37  38
ATOM     38  O   UNL     1       7.460   5.000  27.529  0.00  0.00    -0.392 OA
ATOM     39  H   UNL     1       6.866   4.576  28.179  0.00  0.00    +0.210 HD
ENDBRANCH  37  38
ENDBRANCH  27  37
ENDBRANCH  24  25
ENDBRANCH   6  24
BRANCH   1  40
ATOM     40  O   UNL     1       6.526  -5.335  24.394  0.00  0.00    -0.461 OA
BRANCH  40  44
ATOM     41  C   UNL     1       4.190  -5.664  27.972  0.00  0.00    +0.041 C 
ATOM     42  C   UNL     1       4.557  -6.854  27.079  0.00  0.00    +0.150 C 
ATOM     43  O   UNL     1       5.667  -6.543  26.228  0.00  0.00    -0.334 OA
ATOM     44  C   UNL     1       5.376  -5.587  25.202  0.00  0.00    +0.339 C 
ATOM     45  C   UNL     1       4.278  -6.165  24.277  0.00  0.00    +0.214 C 
ATOM     46  C   UNL     1       3.026  -6.461  25.106  0.00  0.00    +0.180 C 
ATOM     47  C   UNL     1       3.365  -7.400  26.277  0.00  0.00    +0.174 C 
BRANCH  47  48
ATOM     48  O   UNL     1       2.244  -7.587  27.144  0.00  0.00    -0.387 OA
ATOM     49  H   UNL     1       1.769  -6.738  27.204  0.00  0.00    +0.210 HD
ENDBRANCH  47  48
BRANCH  46  50
ATOM     50  O   UNL     1       2.012  -7.065  24.293  0.00  0.00    -0.386 OA
ATOM     51  H   UNL     1       1.160  -6.696  24.610  0.00  0.00    +0.210 HD
ENDBRANCH  46  50
BRANCH  45  52
ATOM     52  O   UNL     1       4.687  -7.406  23.657  0.00  0.00    -0.383 OA
ATOM     53  H   UNL     1       4.077  -8.100  23.980  0.00  0.00    +0.210 HD
ENDBRANCH  45  52
ENDBRANCH  40  44
ENDBRANCH   1  40
TORSDOF 16
ENDMDL
MODEL 3
REMARK VINA RESULT:      -6.7      2.236     10.200
REMARK  Name = 
REMARK  17 active torsions:
REMARK  status: ('A' for Active; 'I' for Inactive)
REMARK    1  A    between atoms: C_1  and  C_2
REMARK    2  A    between atoms: C_3  and  O_43
REMARK    3  A    between atoms: C_4  and  O_42
REMARK    4  A    between atoms: C_5  and  O_41
REMARK    5  A    between atoms: C_6  and  O_8
REMARK    6  A    between atoms: O_8  and  C_9
REMARK    7  A    between atoms: C_11  and  O_40
REMARK    8  A    between atoms: C_16  and  C_32
REMARK    9  A    between atoms: C_17  and  O_20
REMARK   10  A    between atoms: O_20  and  C_21
REMARK   11  A    between atoms: C_22  and  O_31
REMARK   12  A    between atoms: C_23  and  O_30
REMARK   13  A    between atoms: C_24  and  O_29
REMARK   14  A    between atoms: C_25  and  C_27
REMARK   15  A    between atoms: C_27  and  O_28
REMARK   16  A    between atoms: C_34  and  O_39
REMARK   17  A    between atoms: C_35  and  O_38
REMARK                            x       y       z     vdW  Elec       q    Type
REMARK                         _______ _______ _______ _____ _____    ______ ____
ROOT
ATOM      1  C   UNL     1      10.121   0.245  24.202  0.00  0.00    +0.131 A 
ATOM      2  C   UNL     1       9.333  -0.373  25.183  0.00  0.00    +0.093 A 
ATOM      3  C   UNL     1       8.534  -1.480  24.854  0.00  0.00    +0.147 A 
ATOM      4  O   UNL     1       7.771  -2.052  25.846  0.00  0.00    -0.451 OA
ATOM      5  C   UNL     1       7.066  -3.233  25.582  0.00  0.00    +0.181 A 
ATOM      6  C   UNL     1       6.921  -3.760  24.339  0.00  0.00    +0.214 A 
ATOM      7  C   UNL     1       7.530  -2.979  23.210  0.00  0.00    +0.238 A 
ATOM      8  O   UNL     1       7.190  -3.121  22.040  0.00  0.00    -0.283 OA
ATOM      9  C   UNL     1       8.517  -1.952  23.550  0.00  0.00    +0.109 A 
ATOM     10  C   UNL     1       9.357  -1.379  22.587  0.00  0.00    +0.135 A 
ATOM     11  C   UNL     1      10.149  -0.284  22.912  0.00  0.00    +0.092 A 
ENDROOT
BRANCH   5  12
ATOM     12  C   UNL     1       6.461  -3.834  26.821  0.00  0.00    +0.025 A 
ATOM     13  C   UNL     1       5.363  -3.208  27.453  0.00  0.00    +0.015 A 
ATOM     14  C   UNL     1       4.753  -3.774  28.582  0.00  0.00    +0.050 A 
ATOM     15  C   UNL     1       5.230  -4.965  29.101  0.00  0.00    +0.158 A 
ATOM     16  C   UNL     1       6.310  -5.600  28.498  0.00  0.00    +0.159 A 
ATOM     17  C   UNL     1       6.907  -5.053  27.370  0.00  0.00    +0.060 A 
BRANCH  16  18
ATOM     18  O   UNL     1       6.745  -6.770  29.062  0.00  0.00    -0.503 OA
ATOM     19  H   UNL     1       7.648  -6.952  28.756  0.00  0.00    +0.292 HD
ENDBRANCH  16  18
BRANCH  15  20
ATOM     20  O   UNL     1       4.644  -5.521  30.200  0.00  0.00    -0.503 OA
ATOM     21  H   UNL     1       4.150  -6.297  29.860  0.00  0.00    +0.292 HD
ENDBRANCH  15  20
ENDBRANCH   5  12
BRANCH  10  22
ATOM     22  O   UNL     1       9.434  -1.895  21.325  0.00  0.00    -0.506 OA
ATOM     23  H   UNL     1      10.134  -1.453  20.820  0.00  0.00    +0.292 HD
ENDBRANCH  10  22
BRANCH   6  24
ATOM     24  O   UNL     1       6.225  -4.955  24.131  0.00  0.00    -0.453 OA
BRANCH  24  25
ATOM     25  C   UNL     1       5.114  -4.937  23.215  0.00  0.00    +0.340 C 
ATOM     26  O   UNL     1       4.071  -4.067  23.676  0.00  0.00    -0.331 OA
ATOM     27  C   UNL     1       3.394  -4.529  24.852  0.00  0.00    +0.179 C 
ATOM     28  C   UNL     1       2.676  -5.835  24.504  0.00  0.00    +0.177 C 
ATOM     29  C   UNL     1       3.730  -6.879  24.130  0.00  0.00    +0.180 C 
ATOM     30  C   UNL     1       4.593  -6.374  22.960  0.00  0.00    +0.214 C 
BRANCH  30  31
ATOM     31  O   UNL     1       5.663  -7.281  22.664  0.00  0.00    -0.383 OA
ATOM     32  H   UNL     1       6.503  -6.816  22.816  0.00  0.00    +0.210 HD
ENDBRANCH  30  31
BRANCH  29  33
ATOM     33  O   UNL     1       3.061  -8.095  23.768  0.00  0.00    -0.386 OA
ATOM     34  H   UNL     1       2.167  -8.025  24.160  0.00  0.00    +0.210 HD
ENDBRANCH  29  33
BRANCH  28  35
ATOM     35  O   UNL     1       1.810  -5.696  23.363  0.00  0.00    -0.386 OA
ATOM     36  H   UNL     1       1.549  -6.599  23.083  0.00  0.00    +0.210 HD
ENDBRANCH  28  35
BRANCH  27  37
ATOM     37  C   UNL     1       2.454  -3.412  25.311  0.00  0.00    +0.190 C 
BRANCH  37  38
ATOM     38  O   UNL     1       1.152  -3.928  25.558  0.00  0.00    -0.392 OA
ATOM     39  H   UNL     1       0.545  -3.360  25.044  0.00  0.00    +0.210 HD
ENDBRANCH  37  38
ENDBRANCH  27  37
ENDBRANCH  24  25
ENDBRANCH   6  24
BRANCH   1  40
ATOM     40  O   UNL     1      10.900   1.361  24.336  0.00  0.00    -0.461 OA
BRANCH  40  44
ATOM     41  C   UNL     1       7.972   4.197  25.658  0.00  0.00    +0.041 C 
ATOM     42  C   UNL     1       8.199   3.827  24.189  0.00  0.00    +0.150 C 
ATOM     43  O   UNL     1       8.901   2.583  24.069  0.00  0.00    -0.334 OA
ATOM     44  C   UNL     1      10.269   2.632  24.491  0.00  0.00    +0.339 C 
ATOM     45  C   UNL     1      11.031   3.641  23.598  0.00  0.00    +0.214 C 
ATOM     46  C   UNL     1      10.379   5.020  23.726  0.00  0.00    +0.180 C 
ATOM     47  C   UNL     1       8.882   4.941  23.381  0.00  0.00    +0.174 C 
BRANCH  47  48
ATOM     48  O   UNL     1       8.221   6.185  23.619  0.00  0.00    -0.387 OA
ATOM     49  H   UNL     1       7.317   6.116  23.259  0.00  0.00    +0.210 HD
ENDBRANCH  47  48
BRANCH  46  50
ATOM     50  O   UNL     1      11.017   5.963  22.856  0.00  0.00    -0.386 OA
ATOM     51  H   UNL     1      10.303   6.549  22.528  0.00  0.00    +0.210 HD
ENDBRANCH  46  50
BRANCH  45  52
ATOM     52  O   UNL     1      10.987   3.271  22.200  0.00  0.00    -0.383 OA
ATOM     53  H   UNL     1      10.054   3.345  21.916  0.00  0.00    +0.210 HD
ENDBRANCH  45  52
ENDBRANCH  40  44
ENDBRANCH   1  40
TORSDOF 16
ENDMDL
MODEL 4
REMARK VINA RESULT:      -6.6      2.219     10.283
REMARK  Name = 
REMARK  17 active torsions:
REMARK  status: ('A' for Active; 'I' for Inactive)
REMARK    1  A    between atoms: C_1  and  C_2
REMARK    2  A    between atoms: C_3  and  O_43
REMARK    3  A    between atoms: C_4  and  O_42
REMARK    4  A    between atoms: C_5  and  O_41
REMARK    5  A    between atoms: C_6  and  O_8
REMARK    6  A    between atoms: O_8  and  C_9
REMARK    7  A    between atoms: C_11  and  O_40
REMARK    8  A    between atoms: C_16  and  C_32
REMARK    9  A    between atoms: C_17  and  O_20
REMARK   10  A    between atoms: O_20  and  C_21
REMARK   11  A    between atoms: C_22  and  O_31
REMARK   12  A    between atoms: C_23  and  O_30
REMARK   13  A    between atoms: C_24  and  O_29
REMARK   14  A    between atoms: C_25  and  C_27
REMARK   15  A    between atoms: C_27  and  O_28
REMARK   16  A    between atoms: C_34  and  O_39
REMARK   17  A    between atoms: C_35  and  O_38
REMARK                            x       y       z     vdW  Elec       q    Type
REMARK                         _______ _______ _______ _____ _____    ______ ____
ROOT
ATOM      1  C   UNL     1       5.976   2.943  24.732  0.00  0.00    +0.131 A 
ATOM      2  C   UNL     1       6.157   1.699  24.110  0.00  0.00    +0.093 A 
ATOM      3  C   UNL     1       5.773   0.518  24.767  0.00  0.00    +0.147 A 
ATOM      4  O   UNL     1       5.975  -0.681  24.123  0.00  0.00    -0.451 OA
ATOM      5  C   UNL     1       5.486  -1.863  24.694  0.00  0.00    +0.181 A 
ATOM      6  C   UNL     1       4.989  -1.938  25.955  0.00  0.00    +0.214 A 
ATOM      7  C   UNL     1       5.023  -0.672  26.761  0.00  0.00    +0.238 A 
ATOM      8  O   UNL     1       4.952  -0.657  27.985  0.00  0.00    -0.283 OA
ATOM      9  C   UNL     1       5.228   0.586  26.040  0.00  0.00    +0.109 A 
ATOM     10  C   UNL     1       4.983   1.832  26.631  0.00  0.00    +0.135 A 
ATOM     11  C   UNL     1       5.360   3.001  25.981  0.00  0.00    +0.092 A 
ENDROOT
BRANCH   5  12
ATOM     12  C   UNL     1       5.604  -3.043  23.768  0.00  0.00    +0.025 A 
ATOM     13  C   UNL     1       6.798  -3.265  23.047  0.00  0.00    +0.015 A 
ATOM     14  C   UNL     1       6.947  -4.384  22.214  0.00  0.00    +0.050 A 
ATOM     15  C   UNL     1       5.910  -5.292  22.082  0.00  0.00    +0.158 A 
ATOM     16  C   UNL     1       4.725  -5.094  22.781  0.00  0.00    +0.159 A 
ATOM     17  C   UNL     1       4.578  -3.998  23.620  0.00  0.00    +0.060 A 
BRANCH  16  18
ATOM     18  O   UNL     1       3.731  -6.019  22.605  0.00  0.00    -0.503 OA
ATOM     19  H   UNL     1       3.247  -6.126  23.439  0.00  0.00    +0.292 HD
ENDBRANCH  16  18
BRANCH  15  20
ATOM     20  O   UNL     1       6.047  -6.380  21.273  0.00  0.00    -0.503 OA
ATOM     21  H   UNL     1       6.760  -6.141  20.643  0.00  0.00    +0.292 HD
ENDBRANCH  15  20
ENDBRANCH   5  12
BRANCH  10  22
ATOM     22  O   UNL     1       4.349   1.924  27.837  0.00  0.00    -0.506 OA
ATOM     23  H   UNL     1       4.735   1.298  28.471  0.00  0.00    +0.292 HD
ENDBRANCH  10  22
BRANCH   6  24
ATOM     24  O   UNL     1       4.493  -3.140  26.471  0.00  0.00    -0.453 OA
BRANCH  24  25
ATOM     25  C   UNL     1       5.134  -3.688  27.638  0.00  0.00    +0.340 C 
ATOM     26  O   UNL     1       6.562  -3.644  27.517  0.00  0.00    -0.331 OA
ATOM     27  C   UNL     1       7.098  -4.527  26.522  0.00  0.00    +0.179 C 
ATOM     28  C   UNL     1       6.796  -5.964  26.951  0.00  0.00    +0.177 C 
ATOM     29  C   UNL     1       5.277  -6.150  26.972  0.00  0.00    +0.180 C 
ATOM     30  C   UNL     1       4.625  -5.125  27.917  0.00  0.00    +0.214 C 
BRANCH  30  31
ATOM     31  O   UNL     1       3.194  -5.199  27.868  0.00  0.00    -0.383 OA
ATOM     32  H   UNL     1       2.855  -4.321  27.623  0.00  0.00    +0.210 HD
ENDBRANCH  30  31
BRANCH  29  33
ATOM     33  O   UNL     1       4.985  -7.485  27.407  0.00  0.00    -0.386 OA
ATOM     34  H   UNL     1       5.155  -8.054  26.628  0.00  0.00    +0.210 HD
ENDBRANCH  29  33
BRANCH  28  35
ATOM     35  O   UNL     1       7.265  -6.250  28.281  0.00  0.00    -0.386 OA
ATOM     36  H   UNL     1       8.077  -5.719  28.424  0.00  0.00    +0.210 HD
ENDBRANCH  28  35
BRANCH  27  37
ATOM     37  C   UNL     1       8.593  -4.223  26.395  0.00  0.00    +0.190 C 
BRANCH  37  38
ATOM     38  O   UNL     1       9.335  -5.429  26.257  0.00  0.00    -0.392 OA
ATOM     39  H   UNL     1       8.780  -6.014  25.705  0.00  0.00    +0.210 HD
ENDBRANCH  37  38
ENDBRANCH  27  37
ENDBRANCH  24  25
ENDBRANCH   6  24
BRANCH   1  40
ATOM     40  O   UNL     1       6.349   4.173  24.265  0.00  0.00    -0.461 OA
BRANCH  40  44
ATOM     41  C   UNL     1       9.392   6.634  26.010  0.00  0.00    +0.041 C 
ATOM     42  C   UNL     1       9.077   6.600  24.512  0.00  0.00    +0.150 C 
ATOM     43  O   UNL     1       7.777   6.049  24.266  0.00  0.00    -0.334 OA
ATOM     44  C   UNL     1       7.668   4.647  24.539  0.00  0.00    +0.339 C 
ATOM     45  C   UNL     1       8.639   3.880  23.611  0.00  0.00    +0.214 C 
ATOM     46  C   UNL     1      10.068   4.366  23.864  0.00  0.00    +0.180 C 
ATOM     47  C   UNL     1      10.157   5.891  23.680  0.00  0.00    +0.174 C 
BRANCH  47  48
ATOM     48  O   UNL     1      11.448   6.390  24.038  0.00  0.00    -0.387 OA
ATOM     49  H   UNL     1      11.319   7.144  24.643  0.00  0.00    +0.210 HD
ENDBRANCH  47  48
BRANCH  46  50
ATOM     50  O   UNL     1      10.986   3.726  22.969  0.00  0.00    -0.386 OA
ATOM     51  H   UNL     1      10.801   2.766  23.039  0.00  0.00    +0.210 HD
ENDBRANCH  46  50
BRANCH  45  52
ATOM     52  O   UNL     1       8.348   4.107  22.212  0.00  0.00    -0.383 OA
ATOM     53  H   UNL     1       7.716   3.413  21.937  0.00  0.00    +0.210 HD
ENDBRANCH  45  52
ENDBRANCH  40  44
ENDBRANCH   1  40
TORSDOF 16
ENDMDL
MODEL 5
REMARK VINA RESULT:      -6.3      2.376     10.714
REMARK  Name = 
REMARK  17 active torsions:
REMARK  status: ('A' for Active; 'I' for Inactive)
REMARK    1  A    between atoms: C_1  and  C_2
REMARK    2  A    between atoms: C_3  and  O_43
REMARK    3  A    between atoms: C_4  and  O_42
REMARK    4  A    between atoms: C_5  and  O_41
REMARK    5  A    between atoms: C_6  and  O_8
REMARK    6  A    between atoms: O_8  and  C_9
REMARK    7  A    between atoms: C_11  and  O_40
REMARK    8  A    between atoms: C_16  and  C_32
REMARK    9  A    between atoms: C_17  and  O_20
REMARK   10  A    between atoms: O_20  and  C_21
REMARK   11  A    between atoms: C_22  and  O_31
REMARK   12  A    between atoms: C_23  and  O_30
REMARK   13  A    between atoms: C_24  and  O_29
REMARK   14  A    between atoms: C_25  and  C_27
REMARK   15  A    between atoms: C_27  and  O_28
REMARK   16  A    between atoms: C_34  and  O_39
REMARK   17  A    between atoms: C_35  and  O_38
REMARK                            x       y       z     vdW  Elec       q    Type
REMARK                         _______ _______ _______ _____ _____    ______ ____
ROOT
ATOM      1  C   UNL     1       5.850   2.712  24.696  0.00  0.00    +0.131 A 
ATOM      2  C   UNL     1       6.089   1.420  24.206  0.00  0.00    +0.093 A 
ATOM      3  C   UNL     1       5.643   0.298  24.925  0.00  0.00    +0.147 A 
ATOM      4  O   UNL     1       5.905  -0.951  24.412  0.00  0.00    -0.451 OA
ATOM      5  C   UNL     1       5.363  -2.082  25.036  0.00  0.00    +0.181 A 
ATOM      6  C   UNL     1       4.746  -2.051  26.245  0.00  0.00    +0.214 A 
ATOM      7  C   UNL     1       4.703  -0.718  26.935  0.00  0.00    +0.238 A 
ATOM      8  O   UNL     1       4.514  -0.596  28.141  0.00  0.00    -0.283 OA
ATOM      9  C   UNL     1       4.977   0.473  26.129  0.00  0.00    +0.109 A 
ATOM     10  C   UNL     1       4.677   1.764  26.581  0.00  0.00    +0.135 A 
ATOM     11  C   UNL     1       5.116   2.874  25.870  0.00  0.00    +0.092 A 
ENDROOT
BRANCH   5  12
ATOM     12  C   UNL     1       5.568  -3.338  24.233  0.00  0.00    +0.025 A 
ATOM     13  C   UNL     1       4.480  -3.940  23.562  0.00  0.00    +0.015 A 
ATOM     14  C   UNL     1       4.656  -5.084  22.770  0.00  0.00    +0.050 A 
ATOM     15  C   UNL     1       5.914  -5.648  22.639  0.00  0.00    +0.158 A 
ATOM     16  C   UNL     1       7.000  -5.075  23.291  0.00  0.00    +0.159 A 
ATOM     17  C   UNL     1       6.835  -3.933  24.062  0.00  0.00    +0.060 A 
BRANCH  16  18
ATOM     18  O   UNL     1       8.218  -5.681  23.133  0.00  0.00    -0.503 OA
ATOM     19  H   UNL     1       8.467  -6.110  23.967  0.00  0.00    +0.292 HD
ENDBRANCH  16  18
BRANCH  15  20
ATOM     20  O   UNL     1       6.093  -6.761  21.873  0.00  0.00    -0.503 OA
ATOM     21  H   UNL     1       5.430  -6.685  21.154  0.00  0.00    +0.292 HD
ENDBRANCH  15  20
ENDBRANCH   5  12
BRANCH  10  22
ATOM     22  O   UNL     1       3.930   1.957  27.708  0.00  0.00    -0.506 OA
ATOM     23  H   UNL     1       3.759   2.903  27.843  0.00  0.00    +0.292 HD
ENDBRANCH  10  22
BRANCH   6  24
ATOM     24  O   UNL     1       4.202  -3.206  26.815  0.00  0.00    -0.453 OA
BRANCH  24  25
ATOM     25  C   UNL     1       5.093  -4.101  27.505  0.00  0.00    +0.340 C 
ATOM     26  O   UNL     1       5.310  -5.303  26.754  0.00  0.00    -0.331 OA
ATOM     27  C   UNL     1       4.160  -6.153  26.654  0.00  0.00    +0.179 C 
ATOM     28  C   UNL     1       3.807  -6.641  28.060  0.00  0.00    +0.177 C 
ATOM     29  C   UNL     1       3.420  -5.427  28.908  0.00  0.00    +0.180 C 
ATOM     30  C   UNL     1       4.567  -4.402  28.932  0.00  0.00    +0.214 C 
BRANCH  30  31
ATOM     31  O   UNL     1       4.189  -3.204  29.621  0.00  0.00    -0.383 OA
ATOM     32  H   UNL     1       4.041  -3.428  30.556  0.00  0.00    +0.210 HD
ENDBRANCH  30  31
BRANCH  29  33
ATOM     33  O   UNL     1       3.121  -5.874  30.238  0.00  0.00    -0.386 OA
ATOM     34  H   UNL     1       3.155  -6.851  30.196  0.00  0.00    +0.210 HD
ENDBRANCH  29  33
BRANCH  28  35
ATOM     35  O   UNL     1       4.923  -7.266  28.720  0.00  0.00    -0.386 OA
ATOM     36  H   UNL     1       4.713  -7.302  29.677  0.00  0.00    +0.210 HD
ENDBRANCH  28  35
BRANCH  27  37
ATOM     37  C   UNL     1       4.505  -7.281  25.678  0.00  0.00    +0.190 C 
BRANCH  37  38
ATOM     38  O   UNL     1       3.382  -8.133  25.486  0.00  0.00    -0.392 OA
ATOM     39  H   UNL     1       3.217  -8.546  26.356  0.00  0.00    +0.210 HD
ENDBRANCH  37  38
ENDBRANCH  27  37
ENDBRANCH  24  25
ENDBRANCH   6  24
BRANCH   1  40
ATOM     40  O   UNL     1       6.267   3.899  24.160  0.00  0.00    -0.461 OA
BRANCH  40  44
ATOM     41  C   UNL     1       9.245   6.320  26.065  0.00  0.00    +0.041 C 
ATOM     42  C   UNL     1       8.951   6.354  24.562  0.00  0.00    +0.150 C 
ATOM     43  O   UNL     1       7.664   5.795  24.272  0.00  0.00    -0.334 OA
ATOM     44  C   UNL     1       7.574   4.380  24.475  0.00  0.00    +0.339 C 
ATOM     45  C   UNL     1       8.570   3.674  23.525  0.00  0.00    +0.214 C 
ATOM     46  C   UNL     1       9.987   4.170  23.822  0.00  0.00    +0.180 C 
ATOM     47  C   UNL     1      10.054   5.703  23.713  0.00  0.00    +0.174 C 
BRANCH  47  48
ATOM     48  O   UNL     1      11.331   6.204  24.114  0.00  0.00    -0.387 OA
ATOM     49  H   UNL     1      11.375   7.145  23.862  0.00  0.00    +0.210 HD
ENDBRANCH  47  48
BRANCH  46  50
ATOM     50  O   UNL     1      10.928   3.588  22.911  0.00  0.00    -0.386 OA
ATOM     51  H   UNL     1      11.490   2.993  23.452  0.00  0.00    +0.210 HD
ENDBRANCH  46  50
BRANCH  45  52
ATOM     52  O   UNL     1       8.295   3.964  22.135  0.00  0.00    -0.383 OA
ATOM     53  H   UNL     1       9.147   3.904  21.658  0.00  0.00    +0.210 HD
ENDBRANCH  45  52
ENDBRANCH  40  44
ENDBRANCH   1  40
TORSDOF 16
ENDMDL
MODEL 6
REMARK VINA RESULT:      -6.2      2.206      3.263
REMARK  Name = 
REMARK  17 active torsions:
REMARK  status: ('A' for Active; 'I' for Inactive)
REMARK    1  A    between atoms: C_1  and  C_2
REMARK    2  A    between atoms: C_3  and  O_43
REMARK    3  A    between atoms: C_4  and  O_42
REMARK    4  A    between atoms: C_5  and  O_41
REMARK    5  A    between atoms: C_6  and  O_8
REMARK    6  A    between atoms: O_8  and  C_9
REMARK    7  A    between atoms: C_11  and  O_40
REMARK    8  A    between atoms: C_16  and  C_32
REMARK    9  A    between atoms: C_17  and  O_20
REMARK   10  A    between atoms: O_20  and  C_21
REMARK   11  A    between atoms: C_22  and  O_31
REMARK   12  A    between atoms: C_23  and  O_30
REMARK   13  A    between atoms: C_24  and  O_29
REMARK   14  A    between atoms: C_25  and  C_27
REMARK   15  A    between atoms: C_27  and  O_28
REMARK   16  A    between atoms: C_34  and  O_39
REMARK   17  A    between atoms: C_35  and  O_38
REMARK                            x       y       z     vdW  Elec       q    Type
REMARK                         _______ _______ _______ _____ _____    ______ ____
ROOT
ATOM      1  C   UNL     1       7.285  -3.715  24.374  0.00  0.00    +0.131 A 
ATOM      2  C   UNL     1       6.865  -2.724  25.272  0.00  0.00    +0.093 A 
ATOM      3  C   UNL     1       7.357  -1.413  25.157  0.00  0.00    +0.147 A 
ATOM      4  O   UNL     1       6.923  -0.473  26.064  0.00  0.00    -0.451 OA
ATOM      5  C   UNL     1       7.292   0.868  25.898  0.00  0.00    +0.181 A 
ATOM      6  C   UNL     1       8.223   1.287  25.003  0.00  0.00    +0.214 A 
ATOM      7  C   UNL     1       8.899   0.216  24.197  0.00  0.00    +0.238 A 
ATOM      8  O   UNL     1       9.974   0.385  23.630  0.00  0.00    -0.283 OA
ATOM      9  C   UNL     1       8.271  -1.106  24.161  0.00  0.00    +0.109 A 
ATOM     10  C   UNL     1       8.635  -2.079  23.222  0.00  0.00    +0.135 A 
ATOM     11  C   UNL     1       8.149  -3.376  23.334  0.00  0.00    +0.092 A 
ENDROOT
BRANCH   5  12
ATOM     12  C   UNL     1       6.567   1.787  26.843  0.00  0.00    +0.025 A 
ATOM     13  C   UNL     1       5.168   1.955  26.740  0.00  0.00    +0.015 A 
ATOM     14  C   UNL     1       4.464   2.770  27.639  0.00  0.00    +0.050 A 
ATOM     15  C   UNL     1       5.141   3.432  28.648  0.00  0.00    +0.158 A 
ATOM     16  C   UNL     1       6.518   3.285  28.770  0.00  0.00    +0.159 A 
ATOM     17  C   UNL     1       7.218   2.466  27.893  0.00  0.00    +0.060 A 
BRANCH  16  18
ATOM     18  O   UNL     1       7.136   3.972  29.780  0.00  0.00    -0.503 OA
ATOM     19  H   UNL     1       8.086   4.030  29.588  0.00  0.00    +0.292 HD
ENDBRANCH  16  18
BRANCH  15  20
ATOM     20  O   UNL     1       4.465   4.228  29.524  0.00  0.00    -0.503 OA
ATOM     21  H   UNL     1       4.727   3.907  30.413  0.00  0.00    +0.292 HD
ENDBRANCH  15  20
ENDBRANCH   5  12
BRANCH  10  22
ATOM     22  O   UNL     1       9.450  -1.770  22.171  0.00  0.00    -0.506 OA
ATOM     23  H   UNL     1       9.045  -2.048  21.334  0.00  0.00    +0.292 HD
ENDBRANCH  10  22
BRANCH   6  24
ATOM     24  O   UNL     1       8.540   2.642  24.861  0.00  0.00    -0.453 OA
BRANCH  24  25
ATOM     25  C   UNL     1       8.572   3.190  23.531  0.00  0.00    +0.340 C 
ATOM     26  O   UNL     1       9.751   3.979  23.320  0.00  0.00    -0.331 OA
ATOM     27  C   UNL     1       9.789   5.197  24.074  0.00  0.00    +0.179 C 
ATOM     28  C   UNL     1       8.643   6.090  23.592  0.00  0.00    +0.177 C 
ATOM     29  C   UNL     1       7.321   5.386  23.907  0.00  0.00    +0.180 C 
ATOM     30  C   UNL     1       7.281   3.999  23.242  0.00  0.00    +0.214 C 
BRANCH  30  31
ATOM     31  O   UNL     1       6.105   3.270  23.615  0.00  0.00    -0.383 OA
ATOM     32  H   UNL     1       5.675   2.955  22.802  0.00  0.00    +0.210 HD
ENDBRANCH  30  31
BRANCH  29  33
ATOM     33  O   UNL     1       6.243   6.201  23.427  0.00  0.00    -0.386 OA
ATOM     34  H   UNL     1       6.658   6.848  22.820  0.00  0.00    +0.210 HD
ENDBRANCH  29  33
BRANCH  28  35
ATOM     35  O   UNL     1       8.672   6.298  22.169  0.00  0.00    -0.386 OA
ATOM     36  H   UNL     1       8.668   5.414  21.745  0.00  0.00    +0.210 HD
ENDBRANCH  28  35
BRANCH  27  37
ATOM     37  C   UNL     1      11.176   5.816  23.878  0.00  0.00    +0.190 C 
BRANCH  37  38
ATOM     38  O   UNL     1      11.670   5.528  22.576  0.00  0.00    -0.392 OA
ATOM     39  H   UNL     1      10.956   5.033  22.131  0.00  0.00    +0.210 HD
ENDBRANCH  37  38
ENDBRANCH  27  37
ENDBRANCH  24  25
ENDBRANCH   6  24
BRANCH   1  40
ATOM     40  O   UNL     1       6.959  -5.043  24.383  0.00  0.00    -0.461 OA
BRANCH  40  44
ATOM     41  C   UNL     1       3.975  -5.766  27.373  0.00  0.00    +0.041 C 
ATOM     42  C   UNL     1       4.642  -6.871  26.548  0.00  0.00    +0.150 C 
ATOM     43  O   UNL     1       5.867  -6.414  25.960  0.00  0.00    -0.334 OA
ATOM     44  C   UNL     1       5.698  -5.444  24.921  0.00  0.00    +0.339 C 
ATOM     45  C   UNL     1       4.884  -6.081  23.770  0.00  0.00    +0.214 C 
ATOM     46  C   UNL     1       3.524  -6.535  24.306  0.00  0.00    +0.180 C 
ATOM     47  C   UNL     1       3.709  -7.492  25.497  0.00  0.00    +0.174 C 
BRANCH  47  48
ATOM     48  O   UNL     1       2.457  -7.828  26.100  0.00  0.00    -0.387 OA
ATOM     49  H   UNL     1       2.238  -7.126  26.741  0.00  0.00    +0.210 HD
ENDBRANCH  47  48
BRANCH  46  50
ATOM     50  O   UNL     1       2.772  -7.195  23.280  0.00  0.00    -0.386 OA
ATOM     51  H   UNL     1       2.658  -6.534  22.565  0.00  0.00    +0.210 HD
ENDBRANCH  46  50
BRANCH  45  52
ATOM     52  O   UNL     1       5.541  -7.246  23.218  0.00  0.00    -0.383 OA
ATOM     53  H   UNL     1       6.027  -6.948  22.423  0.00  0.00    +0.210 HD
ENDBRANCH  45  52
ENDBRANCH  40  44
ENDBRANCH   1  40
TORSDOF 16
ENDMDL
MODEL 7
REMARK VINA RESULT:      -6.2      2.565     10.747
REMARK  Name = 
REMARK  17 active torsions:
REMARK  status: ('A' for Active; 'I' for Inactive)
REMARK    1  A    between atoms: C_1  and  C_2
REMARK    2  A    between atoms: C_3  and  O_43
REMARK    3  A    between atoms: C_4  and  O_42
REMARK    4  A    between atoms: C_5  and  O_41
REMARK    5  A    between atoms: C_6  and  O_8
REMARK    6  A    between atoms: O_8  and  C_9
REMARK    7  A    between atoms: C_11  and  O_40
REMARK    8  A    between atoms: C_16  and  C_32
REMARK    9  A    between atoms: C_17  and  O_20
REMARK   10  A    between atoms: O_20  and  C_21
REMARK   11  A    between atoms: C_22  and  O_31
REMARK   12  A    between atoms: C_23  and  O_30
REMARK   13  A    between atoms: C_24  and  O_29
REMARK   14  A    between atoms: C_25  and  C_27
REMARK   15  A    between atoms: C_27  and  O_28
REMARK   16  A    between atoms: C_34  and  O_39
REMARK   17  A    between atoms: C_35  and  O_38
REMARK                            x       y       z     vdW  Elec       q    Type
REMARK                         _______ _______ _______ _____ _____    ______ ____
ROOT
ATOM      1  C   UNL     1       6.876   2.729  26.415  0.00  0.00    +0.131 A 
ATOM      2  C   UNL     1       7.193   1.536  25.750  0.00  0.00    +0.093 A 
ATOM      3  C   UNL     1       6.348   0.419  25.861  0.00  0.00    +0.147 A 
ATOM      4  O   UNL     1       6.701  -0.733  25.197  0.00  0.00    -0.451 OA
ATOM      5  C   UNL     1       5.817  -1.820  25.182  0.00  0.00    +0.181 A 
ATOM      6  C   UNL     1       4.701  -1.892  25.952  0.00  0.00    +0.214 A 
ATOM      7  C   UNL     1       4.462  -0.741  26.886  0.00  0.00    +0.238 A 
ATOM      8  O   UNL     1       3.728  -0.818  27.866  0.00  0.00    -0.283 OA
ATOM      9  C   UNL     1       5.206   0.496  26.644  0.00  0.00    +0.109 A 
ATOM     10  C   UNL     1       4.854   1.708  27.250  0.00  0.00    +0.135 A 
ATOM     11  C   UNL     1       5.687   2.814  27.140  0.00  0.00    +0.092 A 
ENDROOT
BRANCH   5  12
ATOM     12  C   UNL     1       6.259  -2.910  24.244  0.00  0.00    +0.025 A 
ATOM     13  C   UNL     1       7.196  -3.879  24.669  0.00  0.00    +0.015 A 
ATOM     14  C   UNL     1       7.587  -4.931  23.828  0.00  0.00    +0.050 A 
ATOM     15  C   UNL     1       7.058  -5.030  22.553  0.00  0.00    +0.158 A 
ATOM     16  C   UNL     1       6.135  -4.089  22.111  0.00  0.00    +0.159 A 
ATOM     17  C   UNL     1       5.731  -3.055  22.945  0.00  0.00    +0.060 A 
BRANCH  16  18
ATOM     18  O   UNL     1       5.653  -4.233  20.837  0.00  0.00    -0.503 OA
ATOM     19  H   UNL     1       5.378  -3.364  20.504  0.00  0.00    +0.292 HD
ENDBRANCH  16  18
BRANCH  15  20
ATOM     20  O   UNL     1       7.435  -6.049  21.729  0.00  0.00    -0.503 OA
ATOM     21  H   UNL     1       7.989  -6.636  22.287  0.00  0.00    +0.292 HD
ENDBRANCH  15  20
ENDBRANCH   5  12
BRANCH  10  22
ATOM     22  O   UNL     1       3.679   1.835  27.936  0.00  0.00    -0.506 OA
ATOM     23  H   UNL     1       3.051   2.378  27.434  0.00  0.00    +0.292 HD
ENDBRANCH  10  22
BRANCH   6  24
ATOM     24  O   UNL     1       3.839  -2.991  25.882  0.00  0.00    -0.453 OA
BRANCH  24  25
ATOM     25  C   UNL     1       4.076  -4.091  26.780  0.00  0.00    +0.340 C 
ATOM     26  O   UNL     1       4.591  -5.232  26.081  0.00  0.00    -0.331 OA
ATOM     27  C   UNL     1       3.653  -5.855  25.194  0.00  0.00    +0.179 C 
ATOM     28  C   UNL     1       2.502  -6.411  26.036  0.00  0.00    +0.177 C 
ATOM     29  C   UNL     1       1.794  -5.238  26.718  0.00  0.00    +0.180 C 
ATOM     30  C   UNL     1       2.790  -4.436  27.574  0.00  0.00    +0.214 C 
BRANCH  30  31
ATOM     31  O   UNL     1       2.181  -3.264  28.131  0.00  0.00    -0.383 OA
ATOM     32  H   UNL     1       2.650  -3.042  28.953  0.00  0.00    +0.210 HD
ENDBRANCH  30  31
BRANCH  29  33
ATOM     33  O   UNL     1       0.736  -5.755  27.536  0.00  0.00    -0.386 OA
ATOM     34  H   UNL     1       0.762  -5.225  28.358  0.00  0.00    +0.210 HD
ENDBRANCH  29  33
BRANCH  28  35
ATOM     35  O   UNL     1       2.962  -7.282  27.085  0.00  0.00    -0.386 OA
ATOM     36  H   UNL     1       3.261  -8.115  26.663  0.00  0.00    +0.210 HD
ENDBRANCH  28  35
BRANCH  27  37
ATOM     37  C   UNL     1       4.409  -6.924  24.401  0.00  0.00    +0.190 C 
BRANCH  37  38
ATOM     38  O   UNL     1       3.554  -8.021  24.104  0.00  0.00    -0.392 OA
ATOM     39  H   UNL     1       4.032  -8.815  24.412  0.00  0.00    +0.210 HD
ENDBRANCH  37  38
ENDBRANCH  27  37
ENDBRANCH  24  25
ENDBRANCH   6  24
BRANCH   1  40
ATOM     40  O   UNL     1       7.613   3.879  26.466  0.00  0.00    -0.461 OA
BRANCH  40  44
ATOM     41  C   UNL     1       5.734   6.501  23.645  0.00  0.00    +0.041 C 
ATOM     42  C   UNL     1       6.479   5.221  23.256  0.00  0.00    +0.150 C 
ATOM     43  O   UNL     1       6.622   4.340  24.377  0.00  0.00    -0.334 OA
ATOM     44  C   UNL     1       7.520   4.811  25.388  0.00  0.00    +0.339 C 
ATOM     45  C   UNL     1       8.934   4.953  24.774  0.00  0.00    +0.214 C 
ATOM     46  C   UNL     1       8.878   5.938  23.604  0.00  0.00    +0.180 C 
ATOM     47  C   UNL     1       7.829   5.488  22.572  0.00  0.00    +0.174 C 
BRANCH  47  48
ATOM     48  O   UNL     1       7.662   6.458  21.535  0.00  0.00    -0.387 OA
ATOM     49  H   UNL     1       6.708   6.636  21.445  0.00  0.00    +0.210 HD
ENDBRANCH  47  48
BRANCH  46  50
ATOM     50  O   UNL     1      10.158   6.038  22.967  0.00  0.00    -0.386 OA
ATOM     51  H   UNL     1      10.784   6.315  23.669  0.00  0.00    +0.210 HD
ENDBRANCH  46  50
BRANCH  45  52
ATOM     52  O   UNL     1       9.431   3.696  24.256  0.00  0.00    -0.383 OA
ATOM     53  H   UNL     1      10.389   3.669  24.451  0.00  0.00    +0.210 HD
ENDBRANCH  45  52
ENDBRANCH  40  44
ENDBRANCH   1  40
TORSDOF 16
ENDMDL
MODEL 8
REMARK VINA RESULT:      -6.1      2.295      3.528
REMARK  Name = 
REMARK  17 active torsions:
REMARK  status: ('A' for Active; 'I' for Inactive)
REMARK    1  A    between atoms: C_1  and  C_2
REMARK    2  A    between atoms: C_3  and  O_43
REMARK    3  A    between atoms: C_4  and  O_42
REMARK    4  A    between atoms: C_5  and  O_41
REMARK    5  A    between atoms: C_6  and  O_8
REMARK    6  A    between atoms: O_8  and  C_9
REMARK    7  A    between atoms: C_11  and  O_40
REMARK    8  A    between atoms: C_16  and  C_32
REMARK    9  A    between atoms: C_17  and  O_20
REMARK   10  A    between atoms: O_20  and  C_21
REMARK   11  A    between atoms: C_22  and  O_31
REMARK   12  A    between atoms: C_23  and  O_30
REMARK   13  A    between atoms: C_24  and  O_29
REMARK   14  A    between atoms: C_25  and  C_27
REMARK   15  A    between atoms: C_27  and  O_28
REMARK   16  A    between atoms: C_34  and  O_39
REMARK   17  A    between atoms: C_35  and  O_38
REMARK                            x       y       z     vdW  Elec       q    Type
REMARK                         _______ _______ _______ _____ _____    ______ ____
ROOT
ATOM      1  C   UNL     1       7.785  -3.590  25.355  0.00  0.00    +0.131 A 
ATOM      2  C   UNL     1       7.183  -2.545  26.071  0.00  0.00    +0.093 A 
ATOM      3  C   UNL     1       7.588  -1.217  25.857  0.00  0.00    +0.147 A 
ATOM      4  O   UNL     1       6.975  -0.224  26.586  0.00  0.00    -0.451 OA
ATOM      5  C   UNL     1       7.264   1.118  26.304  0.00  0.00    +0.181 A 
ATOM      6  C   UNL     1       8.268   1.514  25.480  0.00  0.00    +0.214 A 
ATOM      7  C   UNL     1       9.117   0.423  24.895  0.00  0.00    +0.238 A 
ATOM      8  O   UNL     1      10.240   0.621  24.442  0.00  0.00    -0.283 OA
ATOM      9  C   UNL     1       8.596  -0.944  24.945  0.00  0.00    +0.109 A 
ATOM     10  C   UNL     1       9.147  -1.980  24.180  0.00  0.00    +0.135 A 
ATOM     11  C   UNL     1       8.746  -3.294  24.390  0.00  0.00    +0.092 A 
ENDROOT
BRANCH   5  12
ATOM     12  C   UNL     1       6.359   2.069  27.039  0.00  0.00    +0.025 A 
ATOM     13  C   UNL     1       4.960   2.008  26.854  0.00  0.00    +0.015 A 
ATOM     14  C   UNL     1       4.093   2.852  27.563  0.00  0.00    +0.050 A 
ATOM     15  C   UNL     1       4.607   3.772  28.461  0.00  0.00    +0.158 A 
ATOM     16  C   UNL     1       5.980   3.853  28.660  0.00  0.00    +0.159 A 
ATOM     17  C   UNL     1       6.841   3.008  27.974  0.00  0.00    +0.060 A 
BRANCH  16  18
ATOM     18  O   UNL     1       6.431   4.789  29.553  0.00  0.00    -0.503 OA
ATOM     19  H   UNL     1       6.053   4.599  30.426  0.00  0.00    +0.292 HD
ENDBRANCH  16  18
BRANCH  15  20
ATOM     20  O   UNL     1       3.772   4.598  29.153  0.00  0.00    -0.503 OA
ATOM     21  H   UNL     1       3.006   4.038  29.399  0.00  0.00    +0.292 HD
ENDBRANCH  15  20
ENDBRANCH   5  12
BRANCH  10  22
ATOM     22  O   UNL     1      10.064  -1.719  23.202  0.00  0.00    -0.506 OA
ATOM     23  H   UNL     1      10.009  -2.386  22.499  0.00  0.00    +0.292 HD
ENDBRANCH  10  22
BRANCH   6  24
ATOM     24  O   UNL     1       8.500   2.867  25.214  0.00  0.00    -0.453 OA
BRANCH  24  25
ATOM     25  C   UNL     1       8.550   3.284  23.837  0.00  0.00    +0.340 C 
ATOM     26  O   UNL     1       9.752   4.014  23.557  0.00  0.00    -0.331 OA
ATOM     27  C   UNL     1       9.825   5.298  24.190  0.00  0.00    +0.179 C 
ATOM     28  C   UNL     1       8.706   6.172  23.620  0.00  0.00    +0.177 C 
ATOM     29  C   UNL     1       7.363   5.540  23.994  0.00  0.00    +0.180 C 
ATOM     30  C   UNL     1       7.285   4.097  23.466  0.00  0.00    +0.214 C 
BRANCH  30  31
ATOM     31  O   UNL     1       6.087   3.441  23.902  0.00  0.00    -0.383 OA
ATOM     32  H   UNL     1       5.463   4.123  24.204  0.00  0.00    +0.210 HD
ENDBRANCH  30  31
BRANCH  29  33
ATOM     33  O   UNL     1       6.311   6.336  23.433  0.00  0.00    -0.386 OA
ATOM     34  H   UNL     1       5.992   5.833  22.656  0.00  0.00    +0.210 HD
ENDBRANCH  29  33
BRANCH  28  35
ATOM     35  O   UNL     1       8.743   6.241  22.183  0.00  0.00    -0.386 OA
ATOM     36  H   UNL     1       9.670   6.431  21.923  0.00  0.00    +0.210 HD
ENDBRANCH  28  35
BRANCH  27  37
ATOM     37  C   UNL     1      11.229   5.855  23.943  0.00  0.00    +0.190 C 
BRANCH  37  38
ATOM     38  O   UNL     1      11.642   5.588  22.608  0.00  0.00    -0.392 OA
ATOM     39  H   UNL     1      11.247   4.723  22.382  0.00  0.00    +0.210 HD
ENDBRANCH  37  38
ENDBRANCH  27  37
ENDBRANCH  24  25
ENDBRANCH   6  24
BRANCH   1  40
ATOM     40  O   UNL     1       7.558  -4.932  25.486  0.00  0.00    -0.461 OA
BRANCH  40  44
ATOM     41  C   UNL     1       5.605  -5.893  21.794  0.00  0.00    +0.041 C 
ATOM     42  C   UNL     1       4.926  -5.156  22.953  0.00  0.00    +0.150 C 
ATOM     43  O   UNL     1       5.892  -4.597  23.851  0.00  0.00    -0.334 OA
ATOM     44  C   UNL     1       6.622  -5.565  24.612  0.00  0.00    +0.339 C 
ATOM     45  C   UNL     1       5.630  -6.360  25.494  0.00  0.00    +0.214 C 
ATOM     46  C   UNL     1       4.599  -7.049  24.596  0.00  0.00    +0.180 C 
ATOM     47  C   UNL     1       3.894  -6.018  23.697  0.00  0.00    +0.174 C 
BRANCH  47  48
ATOM     48  O   UNL     1       3.022  -6.648  22.757  0.00  0.00    -0.387 OA
ATOM     49  H   UNL     1       3.002  -7.602  22.961  0.00  0.00    +0.210 HD
ENDBRANCH  47  48
BRANCH  46  50
ATOM     50  O   UNL     1       3.620  -7.736  25.386  0.00  0.00    -0.386 OA
ATOM     51  H   UNL     1       3.038  -8.199  24.746  0.00  0.00    +0.210 HD
ENDBRANCH  46  50
BRANCH  45  52
ATOM     52  O   UNL     1       4.903  -5.502  26.404  0.00  0.00    -0.383 OA
ATOM     53  H   UNL     1       4.585  -6.069  27.136  0.00  0.00    +0.210 HD
ENDBRANCH  45  52
ENDBRANCH  40  44
ENDBRANCH   1  40
TORSDOF 16
ENDMDL
MODEL 9
REMARK VINA RESULT:      -6.1      2.644     10.639
REMARK  Name = 
REMARK  17 active torsions:
REMARK  status: ('A' for Active; 'I' for Inactive)
REMARK    1  A    between atoms: C_1  and  C_2
REMARK    2  A    between atoms: C_3  and  O_43
REMARK    3  A    between atoms: C_4  and  O_42
REMARK    4  A    between atoms: C_5  and  O_41
REMARK    5  A    between atoms: C_6  and  O_8
REMARK    6  A    between atoms: O_8  and  C_9
REMARK    7  A    between atoms: C_11  and  O_40
REMARK    8  A    between atoms: C_16  and  C_32
REMARK    9  A    between atoms: C_17  and  O_20
REMARK   10  A    between atoms: O_20  and  C_21
REMARK   11  A    between atoms: C_22  and  O_31
REMARK   12  A    between atoms: C_23  and  O_30
REMARK   13  A    between atoms: C_24  and  O_29
REMARK   14  A    between atoms: C_25  and  C_27
REMARK   15  A    between atoms: C_27  and  O_28
REMARK   16  A    between atoms: C_34  and  O_39
REMARK   17  A    between atoms: C_35  and  O_38
REMARK                            x       y       z     vdW  Elec       q    Type
REMARK                         _______ _______ _______ _____ _____    ______ ____
ROOT
ATOM      1  C   UNL     1       5.009   2.600  25.407  0.00  0.00    +0.131 A 
ATOM      2  C   UNL     1       5.327   1.382  24.789  0.00  0.00    +0.093 A 
ATOM      3  C   UNL     1       5.064   0.168  25.445  0.00  0.00    +0.147 A 
ATOM      4  O   UNL     1       5.398  -1.004  24.805  0.00  0.00    -0.451 OA
ATOM      5  C   UNL     1       5.031  -2.230  25.374  0.00  0.00    +0.181 A 
ATOM      6  C   UNL     1       4.532  -2.357  26.630  0.00  0.00    +0.214 A 
ATOM      7  C   UNL     1       4.424  -1.094  27.433  0.00  0.00    +0.238 A 
ATOM      8  O   UNL     1       4.340  -1.085  28.657  0.00  0.00    -0.283 OA
ATOM      9  C   UNL     1       4.502   0.178  26.712  0.00  0.00    +0.109 A 
ATOM     10  C   UNL     1       4.121   1.392  27.298  0.00  0.00    +0.135 A 
ATOM     11  C   UNL     1       4.379   2.594  26.650  0.00  0.00    +0.092 A 
ENDROOT
BRANCH   5  12
ATOM     12  C   UNL     1       5.281  -3.392  24.451  0.00  0.00    +0.025 A 
ATOM     13  C   UNL     1       6.602  -3.743  24.090  0.00  0.00    +0.015 A 
ATOM     14  C   UNL     1       6.862  -4.850  23.269  0.00  0.00    +0.050 A 
ATOM     15  C   UNL     1       5.814  -5.618  22.792  0.00  0.00    +0.158 A 
ATOM     16  C   UNL     1       4.506  -5.293  23.131  0.00  0.00    +0.159 A 
ATOM     17  C   UNL     1       4.243  -4.209  23.957  0.00  0.00    +0.060 A 
BRANCH  16  18
ATOM     18  O   UNL     1       3.510  -6.083  22.622  0.00  0.00    -0.503 OA
ATOM     19  H   UNL     1       3.607  -6.981  22.976  0.00  0.00    +0.292 HD
ENDBRANCH  16  18
BRANCH  15  20
ATOM     20  O   UNL     1       6.059  -6.695  21.992  0.00  0.00    -0.503 OA
ATOM     21  H   UNL     1       6.947  -7.014  22.259  0.00  0.00    +0.292 HD
ENDBRANCH  15  20
ENDBRANCH   5  12
BRANCH  10  22
ATOM     22  O   UNL     1       3.469   1.417  28.499  0.00  0.00    -0.506 OA
ATOM     23  H   UNL     1       3.841   2.107  29.072  0.00  0.00    +0.292 HD
ENDBRANCH  10  22
BRANCH   6  24
ATOM     24  O   UNL     1       4.161  -3.604  27.143  0.00  0.00    -0.453 OA
BRANCH  24  25
ATOM     25  C   UNL     1       4.817  -4.063  28.339  0.00  0.00    +0.340 C 
ATOM     26  O   UNL     1       6.191  -4.391  28.087  0.00  0.00    -0.331 OA
ATOM     27  C   UNL     1       6.380  -5.547  27.261  0.00  0.00    +0.179 C 
ATOM     28  C   UNL     1       5.829  -6.762  28.011  0.00  0.00    +0.177 C 
ATOM     29  C   UNL     1       4.324  -6.566  28.205  0.00  0.00    +0.180 C 
ATOM     30  C   UNL     1       4.048  -5.255  28.962  0.00  0.00    +0.214 C 
BRANCH  30  31
ATOM     31  O   UNL     1       2.642  -4.987  29.056  0.00  0.00    -0.383 OA
ATOM     32  H   UNL     1       2.224  -5.732  29.521  0.00  0.00    +0.210 HD
ENDBRANCH  30  31
BRANCH  29  33
ATOM     33  O   UNL     1       3.808  -7.685  28.939  0.00  0.00    -0.386 OA
ATOM     34  H   UNL     1       2.924  -7.403  29.253  0.00  0.00    +0.210 HD
ENDBRANCH  29  33
BRANCH  28  35
ATOM     35  O   UNL     1       6.400  -6.899  29.325  0.00  0.00    -0.386 OA
ATOM     36  H   UNL     1       5.790  -6.461  29.956  0.00  0.00    +0.210 HD
ENDBRANCH  28  35
BRANCH  27  37
ATOM     37  C   UNL     1       7.874  -5.645  26.941  0.00  0.00    +0.190 C 
BRANCH  37  38
ATOM     38  O   UNL     1       8.475  -4.357  26.976  0.00  0.00    -0.392 OA
ATOM     39  H   UNL     1       8.815  -4.254  27.886  0.00  0.00    +0.210 HD
ENDBRANCH  37  38
ENDBRANCH  27  37
ENDBRANCH  24  25
ENDBRANCH   6  24
BRANCH   1  40
ATOM     40  O   UNL     1       5.255   3.862  24.942  0.00  0.00    -0.461 OA
BRANCH  40  44
ATOM     41  C   UNL     1       9.464   3.693  24.157  0.00  0.00    +0.041 C 
ATOM     42  C   UNL     1       8.718   4.974  24.541  0.00  0.00    +0.150 C 
ATOM     43  O   UNL     1       7.457   4.678  25.153  0.00  0.00    -0.334 OA
ATOM     44  C   UNL     1       6.483   4.124  24.262  0.00  0.00    +0.339 C 
ATOM     45  C   UNL     1       6.185   5.152  23.144  0.00  0.00    +0.214 C 
ATOM     46  C   UNL     1       7.480   5.470  22.394  0.00  0.00    +0.180 C 
ATOM     47  C   UNL     1       8.562   5.959  23.372  0.00  0.00    +0.174 C 
BRANCH  47  48
ATOM     48  O   UNL     1       9.821   6.138  22.719  0.00  0.00    -0.387 OA
ATOM     49  H   UNL     1       9.666   6.096  21.757  0.00  0.00    +0.210 HD
ENDBRANCH  47  48
BRANCH  46  50
ATOM     50  O   UNL     1       7.253   6.475  21.397  0.00  0.00    -0.386 OA
ATOM     51  H   UNL     1       8.050   7.046  21.408  0.00  0.00    +0.210 HD
ENDBRANCH  46  50
BRANCH  45  52
ATOM     52  O   UNL     1       5.676   6.399  23.674  0.00  0.00    -0.383 OA
ATOM     53  H   UNL     1       5.637   6.299  24.646  0.00  0.00    +0.210 HD
ENDBRANCH  45  52
ENDBRANCH  40  44
ENDBRANCH   1  40
TORSDOF 16
ENDMDL
