MODEL 1
REMARK VINA RESULT:      -7.1      0.000      0.000
REMARK  Name = 
REMARK  9 active torsions:
REMARK  status: ('A' for Active; 'I' for Inactive)
REMARK    1  A    between atoms: C_3  and  O_25
REMARK    2  A    between atoms: C_4  and  O_24
REMARK    3  A    between atoms: C_6  and  C_7
REMARK    4  A    between atoms: C_8  and  O_23
REMARK    5  A    between atoms: C_12  and  O_22
REMARK    6  A    between atoms: C_14  and  O_18
REMARK    7  A    between atoms: O_18  and  C_19
REMARK    8  A    between atoms: C_19  and  C_20
REMARK    9  A    between atoms: C_20  and  O_21
REMARK                            x       y       z     vdW  Elec       q    Type
REMARK                         _______ _______ _______ _____ _____    ______ ____
ROOT
ATOM      1  C   UNL     1       7.437  -0.464  23.619  0.00  0.00    +0.181 A 
ATOM      2  O   UNL     1       8.663   0.108  23.256  0.00  0.00    -0.451 OA
ATOM      3  C   UNL     1       8.892   1.436  23.541  0.00  0.00    +0.147 A 
ATOM      4  C   UNL     1       7.907   2.265  24.067  0.00  0.00    +0.109 A 
ATOM      5  C   UNL     1       8.182   3.610  24.329  0.00  0.00    +0.135 A 
ATOM      6  C   UNL     1       9.448   4.132  24.088  0.00  0.00    +0.092 A 
ATOM      7  C   UNL     1      10.457   3.309  23.587  0.00  0.00    +0.128 A 
ATOM      8  C   UNL     1       6.594   1.699  24.366  0.00  0.00    +0.238 A 
ATOM      9  O   UNL     1       5.693   2.426  24.781  0.00  0.00    -0.283 OA
ATOM     10  C   UNL     1      10.169   1.964  23.294  0.00  0.00    +0.092 A 
ATOM     11  C   UNL     1       6.429   0.236  24.190  0.00  0.00    +0.208 A 
ENDROOT
BRANCH   1  13
ATOM     12  C   UNL     1       8.099  -2.870  24.110  0.00  0.00    +0.015 A 
ATOM     13  C   UNL     1       7.348  -1.935  23.360  0.00  0.00    +0.025 A 
ATOM     14  C   UNL     1       6.522  -2.435  22.342  0.00  0.00    +0.060 A 
ATOM     15  C   UNL     1       6.534  -3.795  22.037  0.00  0.00    +0.159 A 
ATOM     16  C   UNL     1       7.356  -4.682  22.724  0.00  0.00    +0.158 A 
ATOM     17  C   UNL     1       8.134  -4.231  23.776  0.00  0.00    +0.050 A 
BRANCH  15  18
ATOM     18  O   UNL     1       5.735  -4.259  21.029  0.00  0.00    -0.503 OA
ATOM     19  H   UNL     1       5.496  -3.461  20.515  0.00  0.00    +0.292 HD
ENDBRANCH  15  18
BRANCH  16  20
ATOM     20  O   UNL     1       7.366  -5.989  22.323  0.00  0.00    -0.503 OA
ATOM     21  H   UNL     1       8.291  -6.266  22.197  0.00  0.00    +0.292 HD
ENDBRANCH  16  20
ENDBRANCH   1  13
BRANCH   5  22
ATOM     22  O   UNL     1       7.254   4.480  24.838  0.00  0.00    -0.506 OA
ATOM     23  H   UNL     1       6.483   4.499  24.225  0.00  0.00    +0.292 HD
ENDBRANCH   5  22
BRANCH  11  24
ATOM     24  O   UNL     1       5.250  -0.300  24.672  0.00  0.00    -0.501 OA
ATOM     25  H   UNL     1       4.529   0.320  24.480  0.00  0.00    +0.292 HD
ENDBRANCH  11  24
BRANCH   7  26
ATOM     26  O   UNL     1      11.738   3.731  23.321  0.00  0.00    -0.489 OA
BRANCH  26  27
ATOM     27  C   UNL     1      11.942   5.155  23.379  0.00  0.00    +0.256 C 
BRANCH  27  28
ATOM     28  C   UNL     1      13.144   5.533  22.516  0.00  0.00    +0.196 C 
BRANCH  28  29
ATOM     29  O   UNL     1      14.355   5.093  23.129  0.00  0.00    -0.392 OA
ATOM     30  H   UNL     1      14.692   4.364  22.578  0.00  0.00    +0.210 HD
ENDBRANCH  28  29
ENDBRANCH  27  28
ENDBRANCH  26  27
ENDBRANCH   7  26
TORSDOF 9
ENDMDL
MODEL 2
REMARK VINA RESULT:      -7.0      1.933      2.257
REMARK  Name = 
REMARK  9 active torsions:
REMARK  status: ('A' for Active; 'I' for Inactive)
REMARK    1  A    between atoms: C_3  and  O_25
REMARK    2  A    between atoms: C_4  and  O_24
REMARK    3  A    between atoms: C_6  and  C_7
REMARK    4  A    between atoms: C_8  and  O_23
REMARK    5  A    between atoms: C_12  and  O_22
REMARK    6  A    between atoms: C_14  and  O_18
REMARK    7  A    between atoms: O_18  and  C_19
REMARK    8  A    between atoms: C_19  and  C_20
REMARK    9  A    between atoms: C_20  and  O_21
REMARK                            x       y       z     vdW  Elec       q    Type
REMARK                         _______ _______ _______ _____ _____    ______ ____
ROOT
ATOM      1  C   UNL     1       7.867  -0.765  24.498  0.00  0.00    +0.181 A 
ATOM      2  O   UNL     1       9.116  -0.161  24.305  0.00  0.00    -0.451 OA
ATOM      3  C   UNL     1       9.169   1.162  23.924  0.00  0.00    +0.147 A 
ATOM      4  C   UNL     1       8.027   1.891  23.607  0.00  0.00    +0.109 A 
ATOM      5  C   UNL     1       8.131   3.229  23.215  0.00  0.00    +0.135 A 
ATOM      6  C   UNL     1       9.371   3.854  23.157  0.00  0.00    +0.092 A 
ATOM      7  C   UNL     1      10.524   3.147  23.499  0.00  0.00    +0.128 A 
ATOM      8  C   UNL     1       6.723   1.243  23.718  0.00  0.00    +0.238 A 
ATOM      9  O   UNL     1       5.706   1.852  23.391  0.00  0.00    -0.283 OA
ATOM     10  C   UNL     1      10.421   1.792  23.862  0.00  0.00    +0.092 A 
ATOM     11  C   UNL     1       6.692  -0.130  24.275  0.00  0.00    +0.208 A 
ENDROOT
BRANCH   1  13
ATOM     12  C   UNL     1       6.954  -2.689  25.889  0.00  0.00    +0.015 A 
ATOM     13  C   UNL     1       7.938  -2.166  25.017  0.00  0.00    +0.025 A 
ATOM     14  C   UNL     1       9.005  -3.007  24.665  0.00  0.00    +0.060 A 
ATOM     15  C   UNL     1       9.120  -4.270  25.244  0.00  0.00    +0.159 A 
ATOM     16  C   UNL     1       8.192  -4.725  26.175  0.00  0.00    +0.158 A 
ATOM     17  C   UNL     1       7.093  -3.946  26.494  0.00  0.00    +0.050 A 
BRANCH  15  18
ATOM     18  O   UNL     1      10.176  -5.067  24.901  0.00  0.00    -0.503 OA
ATOM     19  H   UNL     1      10.478  -5.455  25.748  0.00  0.00    +0.292 HD
ENDBRANCH  15  18
BRANCH  16  20
ATOM     20  O   UNL     1       8.406  -5.946  26.751  0.00  0.00    -0.503 OA
ATOM     21  H   UNL     1       9.007  -5.828  27.508  0.00  0.00    +0.292 HD
ENDBRANCH  16  20
ENDBRANCH   1  13
BRANCH   5  22
ATOM     22  O   UNL     1       7.047   3.997  22.880  0.00  0.00    -0.506 OA
ATOM     23  H   UNL     1       6.575   3.556  22.136  0.00  0.00    +0.292 HD
ENDBRANCH   5  22
BRANCH  11  24
ATOM     24  O   UNL     1       5.439  -0.637  24.559  0.00  0.00    -0.501 OA
ATOM     25  H   UNL     1       4.827  -0.358  23.860  0.00  0.00    +0.292 HD
ENDBRANCH  11  24
BRANCH   7  26
ATOM     26  O   UNL     1      11.792   3.679  23.478  0.00  0.00    -0.489 OA
BRANCH  26  27
ATOM     27  C   UNL     1      11.855   5.116  23.439  0.00  0.00    +0.256 C 
BRANCH  27  28
ATOM     28  C   UNL     1      13.067   5.550  22.617  0.00  0.00    +0.196 C 
BRANCH  28  29
ATOM     29  O   UNL     1      14.264   5.004  23.167  0.00  0.00    -0.392 OA
ATOM     30  H   UNL     1      14.921   5.003  22.448  0.00  0.00    +0.210 HD
ENDBRANCH  28  29
ENDBRANCH  27  28
ENDBRANCH  26  27
ENDBRANCH   7  26
TORSDOF 9
ENDMDL
MODEL 3
REMARK VINA RESULT:      -6.8      3.042      5.204
REMARK  Name = 
REMARK  9 active torsions:
REMARK  status: ('A' for Active; 'I' for Inactive)
REMARK    1  A    between atoms: C_3  and  O_25
REMARK    2  A    between atoms: C_4  and  O_24
REMARK    3  A    between atoms: C_6  and  C_7
REMARK    4  A    between atoms: C_8  and  O_23
REMARK    5  A    between atoms: C_12  and  O_22
REMARK    6  A    between atoms: C_14  and  O_18
REMARK    7  A    between atoms: O_18  and  C_19
REMARK    8  A    between atoms: C_19  and  C_20
REMARK    9  A    between atoms: C_20  and  O_21
REMARK                            x       y       z     vdW  Elec       q    Type
REMARK                         _______ _______ _______ _____ _____    ______ ____
ROOT
ATOM      1  C   UNL     1       7.014  -4.048  24.292  0.00  0.00    +0.181 A 
ATOM      2  O   UNL     1       6.372  -2.814  24.130  0.00  0.00    -0.451 OA
ATOM      3  C   UNL     1       7.116  -1.717  23.754  0.00  0.00    +0.147 A 
ATOM      4  C   UNL     1       8.502  -1.759  23.646  0.00  0.00    +0.109 A 
ATOM      5  C   UNL     1       9.216  -0.617  23.272  0.00  0.00    +0.135 A 
ATOM      6  C   UNL     1       8.550   0.568  22.983  0.00  0.00    +0.092 A 
ATOM      7  C   UNL     1       7.158   0.622  23.058  0.00  0.00    +0.128 A 
ATOM      8  C   UNL     1       9.192  -3.021  23.903  0.00  0.00    +0.238 A 
ATOM      9  O   UNL     1      10.420  -3.068  23.865  0.00  0.00    -0.283 OA
ATOM     10  C   UNL     1       6.444  -0.519  23.465  0.00  0.00    +0.092 A 
ATOM     11  C   UNL     1       8.350  -4.215  24.155  0.00  0.00    +0.208 A 
ENDROOT
BRANCH   1  13
ATOM     12  C   UNL     1       5.225  -5.722  23.607  0.00  0.00    +0.015 A 
ATOM     13  C   UNL     1       6.088  -5.184  24.592  0.00  0.00    +0.025 A 
ATOM     14  C   UNL     1       6.033  -5.744  25.877  0.00  0.00    +0.060 A 
ATOM     15  C   UNL     1       5.087  -6.725  26.172  0.00  0.00    +0.159 A 
ATOM     16  C   UNL     1       4.182  -7.168  25.213  0.00  0.00    +0.158 A 
ATOM     17  C   UNL     1       4.253  -6.683  23.919  0.00  0.00    +0.050 A 
BRANCH  15  18
ATOM     18  O   UNL     1       5.038  -7.245  27.436  0.00  0.00    -0.503 OA
ATOM     19  H   UNL     1       5.876  -6.959  27.854  0.00  0.00    +0.292 HD
ENDBRANCH  15  18
BRANCH  16  20
ATOM     20  O   UNL     1       3.239  -8.082  25.594  0.00  0.00    -0.503 OA
ATOM     21  H   UNL     1       3.632  -8.669  26.264  0.00  0.00    +0.292 HD
ENDBRANCH  16  20
ENDBRANCH   1  13
BRANCH   5  22
ATOM     22  O   UNL     1      10.581  -0.591  23.157  0.00  0.00    -0.506 OA
ATOM     23  H   UNL     1      10.919   0.165  23.690  0.00  0.00    +0.292 HD
ENDBRANCH   5  22
BRANCH  11  24
ATOM     24  O   UNL     1       9.016  -5.426  24.190  0.00  0.00    -0.501 OA
ATOM     25  H   UNL     1       9.456  -5.511  25.051  0.00  0.00    +0.292 HD
ENDBRANCH  11  24
BRANCH   7  26
ATOM     26  O   UNL     1       6.412   1.745  22.786  0.00  0.00    -0.489 OA
BRANCH  26  27
ATOM     27  C   UNL     1       7.066   2.736  21.972  0.00  0.00    +0.256 C 
BRANCH  27  28
ATOM     28  C   UNL     1       6.948   4.103  22.643  0.00  0.00    +0.196 C 
BRANCH  28  29
ATOM     29  O   UNL     1       7.624   5.096  21.872  0.00  0.00    -0.392 OA
ATOM     30  H   UNL     1       7.156   5.146  21.019  0.00  0.00    +0.210 HD
ENDBRANCH  28  29
ENDBRANCH  27  28
ENDBRANCH  26  27
ENDBRANCH   7  26
TORSDOF 9
ENDMDL
MODEL 4
REMARK VINA RESULT:      -6.8      3.940      9.724
REMARK  Name = 
REMARK  9 active torsions:
REMARK  status: ('A' for Active; 'I' for Inactive)
REMARK    1  A    between atoms: C_3  and  O_25
REMARK    2  A    between atoms: C_4  and  O_24
REMARK    3  A    between atoms: C_6  and  C_7
REMARK    4  A    between atoms: C_8  and  O_23
REMARK    5  A    between atoms: C_12  and  O_22
REMARK    6  A    between atoms: C_14  and  O_18
REMARK    7  A    between atoms: O_18  and  C_19
REMARK    8  A    between atoms: C_19  and  C_20
REMARK    9  A    between atoms: C_20  and  O_21
REMARK                            x       y       z     vdW  Elec       q    Type
REMARK                         _______ _______ _______ _____ _____    ______ ____
ROOT
ATOM      1  C   UNL     1       6.970  -3.485  24.264  0.00  0.00    +0.181 A 
ATOM      2  O   UNL     1       5.901  -4.056  23.563  0.00  0.00    -0.451 OA
ATOM      3  C   UNL     1       5.190  -5.082  24.145  0.00  0.00    +0.147 A 
ATOM      4  C   UNL     1       5.569  -5.658  25.354  0.00  0.00    +0.109 A 
ATOM      5  C   UNL     1       4.823  -6.705  25.901  0.00  0.00    +0.135 A 
ATOM      6  C   UNL     1       3.683  -7.172  25.257  0.00  0.00    +0.092 A 
ATOM      7  C   UNL     1       3.271  -6.589  24.058  0.00  0.00    +0.128 A 
ATOM      8  C   UNL     1       6.739  -5.129  26.051  0.00  0.00    +0.238 A 
ATOM      9  O   UNL     1       7.122  -5.658  27.093  0.00  0.00    -0.283 OA
ATOM     10  C   UNL     1       4.041  -5.556  23.493  0.00  0.00    +0.092 A 
ATOM     11  C   UNL     1       7.388  -3.928  25.473  0.00  0.00    +0.208 A 
ENDROOT
BRANCH   1  13
ATOM     12  C   UNL     1       6.970  -1.038  23.570  0.00  0.00    +0.015 A 
ATOM     13  C   UNL     1       7.592  -2.309  23.580  0.00  0.00    +0.025 A 
ATOM     14  C   UNL     1       8.815  -2.437  22.905  0.00  0.00    +0.060 A 
ATOM     15  C   UNL     1       9.327  -1.364  22.176  0.00  0.00    +0.159 A 
ATOM     16  C   UNL     1       8.647  -0.153  22.100  0.00  0.00    +0.158 A 
ATOM     17  C   UNL     1       7.472   0.026  22.808  0.00  0.00    +0.050 A 
BRANCH  15  18
ATOM     18  O   UNL     1      10.511  -1.515  21.510  0.00  0.00    -0.503 OA
ATOM     19  H   UNL     1      10.740  -2.460  21.622  0.00  0.00    +0.292 HD
ENDBRANCH  15  18
BRANCH  16  20
ATOM     20  O   UNL     1       9.176   0.831  21.312  0.00  0.00    -0.503 OA
ATOM     21  H   UNL     1      10.091   0.587  21.087  0.00  0.00    +0.292 HD
ENDBRANCH  16  20
ENDBRANCH   1  13
BRANCH   5  22
ATOM     22  O   UNL     1       5.148  -7.320  27.082  0.00  0.00    -0.506 OA
ATOM     23  H   UNL     1       5.370  -8.260  26.888  0.00  0.00    +0.292 HD
ENDBRANCH   5  22
BRANCH  11  24
ATOM     24  O   UNL     1       8.357  -3.332  26.257  0.00  0.00    -0.501 OA
ATOM     25  H   UNL     1       8.140  -2.390  26.352  0.00  0.00    +0.292 HD
ENDBRANCH  11  24
BRANCH   7  26
ATOM     26  O   UNL     1       2.157  -6.977  23.352  0.00  0.00    -0.489 OA
BRANCH  26  27
ATOM     27  C   UNL     1       1.672  -8.300  23.647  0.00  0.00    +0.256 C 
BRANCH  27  28
ATOM     28  C   UNL     1       0.707  -8.745  22.549  0.00  0.00    +0.196 C 
BRANCH  28  29
ATOM     29  O   UNL     1       1.371  -8.777  21.287  0.00  0.00    -0.392 OA
ATOM     30  H   UNL     1       1.468  -7.849  21.004  0.00  0.00    +0.210 HD
ENDBRANCH  28  29
ENDBRANCH  27  28
ENDBRANCH  26  27
ENDBRANCH   7  26
TORSDOF 9
ENDMDL
MODEL 5
REMARK VINA RESULT:      -6.8      2.313      8.671
REMARK  Name = 
REMARK  9 active torsions:
REMARK  status: ('A' for Active; 'I' for Inactive)
REMARK    1  A    between atoms: C_3  and  O_25
REMARK    2  A    between atoms: C_4  and  O_24
REMARK    3  A    between atoms: C_6  and  C_7
REMARK    4  A    between atoms: C_8  and  O_23
REMARK    5  A    between atoms: C_12  and  O_22
REMARK    6  A    between atoms: C_14  and  O_18
REMARK    7  A    between atoms: O_18  and  C_19
REMARK    8  A    between atoms: C_19  and  C_20
REMARK    9  A    between atoms: C_20  and  O_21
REMARK                            x       y       z     vdW  Elec       q    Type
REMARK                         _______ _______ _______ _____ _____    ______ ____
ROOT
ATOM      1  C   UNL     1       8.037  -0.601  23.113  0.00  0.00    +0.181 A 
ATOM      2  O   UNL     1       6.913  -1.309  22.670  0.00  0.00    -0.451 OA
ATOM      3  C   UNL     1       6.858  -2.671  22.869  0.00  0.00    +0.147 A 
ATOM      4  C   UNL     1       7.931  -3.391  23.384  0.00  0.00    +0.109 A 
ATOM      5  C   UNL     1       7.834  -4.775  23.557  0.00  0.00    +0.135 A 
ATOM      6  C   UNL     1       6.659  -5.446  23.238  0.00  0.00    +0.092 A 
ATOM      7  C   UNL     1       5.563  -4.737  22.746  0.00  0.00    +0.128 A 
ATOM      8  C   UNL     1       9.145  -2.674  23.765  0.00  0.00    +0.238 A 
ATOM      9  O   UNL     1      10.124  -3.297  24.172  0.00  0.00    -0.283 OA
ATOM     10  C   UNL     1       5.674  -3.349  22.542  0.00  0.00    +0.092 A 
ATOM     11  C   UNL     1       9.113  -1.194  23.680  0.00  0.00    +0.208 A 
ENDROOT
BRANCH   1  13
ATOM     12  C   UNL     1       6.746   1.496  22.475  0.00  0.00    +0.015 A 
ATOM     13  C   UNL     1       7.932   0.882  22.943  0.00  0.00    +0.025 A 
ATOM     14  C   UNL     1       9.025   1.714  23.226  0.00  0.00    +0.060 A 
ATOM     15  C   UNL     1       8.951   3.080  22.956  0.00  0.00    +0.159 A 
ATOM     16  C   UNL     1       7.807   3.647  22.404  0.00  0.00    +0.158 A 
ATOM     17  C   UNL     1       6.690   2.864  22.174  0.00  0.00    +0.050 A 
BRANCH  15  18
ATOM     18  O   UNL     1      10.034   3.872  23.223  0.00  0.00    -0.503 OA
ATOM     19  H   UNL     1      10.800   3.263  23.187  0.00  0.00    +0.292 HD
ENDBRANCH  15  18
BRANCH  16  20
ATOM     20  O   UNL     1       7.833   4.980  22.103  0.00  0.00    -0.503 OA
ATOM     21  H   UNL     1       7.015   5.388  22.441  0.00  0.00    +0.292 HD
ENDBRANCH  16  20
ENDBRANCH   1  13
BRANCH   5  22
ATOM     22  O   UNL     1       8.857  -5.542  24.050  0.00  0.00    -0.506 OA
ATOM     23  H   UNL     1       8.851  -6.404  23.575  0.00  0.00    +0.292 HD
ENDBRANCH   5  22
BRANCH  11  24
ATOM     24  O   UNL     1      10.193  -0.535  24.237  0.00  0.00    -0.501 OA
ATOM     25  H   UNL     1      11.008  -0.935  23.895  0.00  0.00    +0.292 HD
ENDBRANCH  11  24
BRANCH   7  26
ATOM     26  O   UNL     1       4.360  -5.310  22.408  0.00  0.00    -0.489 OA
BRANCH  26  27
ATOM     27  C   UNL     1       3.367  -5.318  23.450  0.00  0.00    +0.256 C 
BRANCH  27  28
ATOM     28  C   UNL     1       2.861  -6.743  23.660  0.00  0.00    +0.196 C 
BRANCH  28  29
ATOM     29  O   UNL     1       3.951  -7.625  23.921  0.00  0.00    -0.392 OA
ATOM     30  H   UNL     1       4.085  -8.145  23.108  0.00  0.00    +0.210 HD
ENDBRANCH  28  29
ENDBRANCH  27  28
ENDBRANCH  26  27
ENDBRANCH   7  26
TORSDOF 9
ENDMDL
MODEL 6
REMARK VINA RESULT:      -6.8      3.844      9.140
REMARK  Name = 
REMARK  9 active torsions:
REMARK  status: ('A' for Active; 'I' for Inactive)
REMARK    1  A    between atoms: C_3  and  O_25
REMARK    2  A    between atoms: C_4  and  O_24
REMARK    3  A    between atoms: C_6  and  C_7
REMARK    4  A    between atoms: C_8  and  O_23
REMARK    5  A    between atoms: C_12  and  O_22
REMARK    6  A    between atoms: C_14  and  O_18
REMARK    7  A    between atoms: O_18  and  C_19
REMARK    8  A    between atoms: C_19  and  C_20
REMARK    9  A    between atoms: C_20  and  O_21
REMARK                            x       y       z     vdW  Elec       q    Type
REMARK                         _______ _______ _______ _____ _____    ______ ____
ROOT
ATOM      1  C   UNL     1       6.484  -3.332  23.342  0.00  0.00    +0.181 A 
ATOM      2  O   UNL     1       6.577  -3.696  24.691  0.00  0.00    -0.451 OA
ATOM      3  C   UNL     1       5.934  -4.834  25.124  0.00  0.00    +0.147 A 
ATOM      4  C   UNL     1       5.094  -5.573  24.297  0.00  0.00    +0.109 A 
ATOM      5  C   UNL     1       4.453  -6.717  24.784  0.00  0.00    +0.135 A 
ATOM      6  C   UNL     1       4.662  -7.141  26.091  0.00  0.00    +0.092 A 
ATOM      7  C   UNL     1       5.523  -6.429  26.926  0.00  0.00    +0.128 A 
ATOM      8  C   UNL     1       4.918  -5.151  22.910  0.00  0.00    +0.238 A 
ATOM      9  O   UNL     1       4.139  -5.759  22.178  0.00  0.00    -0.283 OA
ATOM     10  C   UNL     1       6.142  -5.261  26.444  0.00  0.00    +0.092 A 
ATOM     11  C   UNL     1       5.741  -4.013  22.438  0.00  0.00    +0.208 A 
ENDROOT
BRANCH   1  13
ATOM     12  C   UNL     1       6.821  -0.823  23.096  0.00  0.00    +0.015 A 
ATOM     13  C   UNL     1       7.313  -2.143  22.970  0.00  0.00    +0.025 A 
ATOM     14  C   UNL     1       8.610  -2.306  22.461  0.00  0.00    +0.060 A 
ATOM     15  C   UNL     1       9.329  -1.198  22.012  0.00  0.00    +0.159 A 
ATOM     16  C   UNL     1       8.785   0.082  22.056  0.00  0.00    +0.158 A 
ATOM     17  C   UNL     1       7.534   0.283  22.612  0.00  0.00    +0.050 A 
BRANCH  15  18
ATOM     18  O   UNL     1      10.584  -1.380  21.503  0.00  0.00    -0.503 OA
ATOM     19  H   UNL     1      10.478  -2.079  20.825  0.00  0.00    +0.292 HD
ENDBRANCH  15  18
BRANCH  16  20
ATOM     20  O   UNL     1       9.521   1.109  21.535  0.00  0.00    -0.503 OA
ATOM     21  H   UNL     1      10.464   0.875  21.599  0.00  0.00    +0.292 HD
ENDBRANCH  16  20
ENDBRANCH   1  13
BRANCH   5  22
ATOM     22  O   UNL     1       3.608  -7.482  24.024  0.00  0.00    -0.506 OA
ATOM     23  H   UNL     1       4.121  -7.848  23.267  0.00  0.00    +0.292 HD
ENDBRANCH   5  22
BRANCH  11  24
ATOM     24  O   UNL     1       5.707  -3.768  21.078  0.00  0.00    -0.501 OA
ATOM     25  H   UNL     1       4.780  -3.729  20.795  0.00  0.00    +0.292 HD
ENDBRANCH  11  24
BRANCH   7  26
ATOM     26  O   UNL     1       5.797  -6.772  28.229  0.00  0.00    -0.489 OA
BRANCH  26  27
ATOM     27  C   UNL     1       5.358  -5.825  29.220  0.00  0.00    +0.256 C 
BRANCH  27  28
ATOM     28  C   UNL     1       4.314  -6.480  30.123  0.00  0.00    +0.196 C 
BRANCH  28  29
ATOM     29  O   UNL     1       3.751  -7.624  29.483  0.00  0.00    -0.392 OA
ATOM     30  H   UNL     1       3.905  -8.377  30.082  0.00  0.00    +0.210 HD
ENDBRANCH  28  29
ENDBRANCH  27  28
ENDBRANCH  26  27
ENDBRANCH   7  26
TORSDOF 9
ENDMDL
MODEL 7
REMARK VINA RESULT:      -6.7      2.329      2.683
REMARK  Name = 
REMARK  9 active torsions:
REMARK  status: ('A' for Active; 'I' for Inactive)
REMARK    1  A    between atoms: C_3  and  O_25
REMARK    2  A    between atoms: C_4  and  O_24
REMARK    3  A    between atoms: C_6  and  C_7
REMARK    4  A    between atoms: C_8  and  O_23
REMARK    5  A    between atoms: C_12  and  O_22
REMARK    6  A    between atoms: C_14  and  O_18
REMARK    7  A    between atoms: O_18  and  C_19
REMARK    8  A    between atoms: C_19  and  C_20
REMARK    9  A    between atoms: C_20  and  O_21
REMARK                            x       y       z     vdW  Elec       q    Type
REMARK                         _______ _______ _______ _____ _____    ______ ____
ROOT
ATOM      1  C   UNL     1       8.464   0.975  23.507  0.00  0.00    +0.181 A 
ATOM      2  O   UNL     1       9.460   1.942  23.695  0.00  0.00    -0.451 OA
ATOM      3  C   UNL     1       9.157   3.268  23.477  0.00  0.00    +0.147 A 
ATOM      4  C   UNL     1       7.932   3.675  22.960  0.00  0.00    +0.109 A 
ATOM      5  C   UNL     1       7.672   5.032  22.745  0.00  0.00    +0.135 A 
ATOM      6  C   UNL     1       8.626   5.992  23.064  0.00  0.00    +0.092 A 
ATOM      7  C   UNL     1       9.849   5.604  23.610  0.00  0.00    +0.128 A 
ATOM      8  C   UNL     1       6.915   2.666  22.674  0.00  0.00    +0.238 A 
ATOM      9  O   UNL     1       5.846   2.999  22.167  0.00  0.00    -0.283 OA
ATOM     10  C   UNL     1      10.121   4.237  23.796  0.00  0.00    +0.092 A 
ATOM     11  C   UNL     1       7.219   1.268  23.062  0.00  0.00    +0.208 A 
ENDROOT
BRANCH   1  13
ATOM     12  C   UNL     1       9.806  -1.147  23.104  0.00  0.00    +0.015 A 
ATOM     13  C   UNL     1       8.879  -0.412  23.880  0.00  0.00    +0.025 A 
ATOM     14  C   UNL     1       8.341  -1.040  25.014  0.00  0.00    +0.060 A 
ATOM     15  C   UNL     1       8.649  -2.373  25.287  0.00  0.00    +0.159 A 
ATOM     16  C   UNL     1       9.487  -3.106  24.453  0.00  0.00    +0.158 A 
ATOM     17  C   UNL     1      10.085  -2.496  23.364  0.00  0.00    +0.050 A 
BRANCH  15  18
ATOM     18  O   UNL     1       8.100  -2.972  26.387  0.00  0.00    -0.503 OA
ATOM     19  H   UNL     1       7.813  -3.853  26.071  0.00  0.00    +0.292 HD
ENDBRANCH  15  18
BRANCH  16  20
ATOM     20  O   UNL     1       9.689  -4.426  24.747  0.00  0.00    -0.503 OA
ATOM     21  H   UNL     1      10.589  -4.527  25.106  0.00  0.00    +0.292 HD
ENDBRANCH  16  20
ENDBRANCH   1  13
BRANCH   5  22
ATOM     22  O   UNL     1       6.491   5.497  22.230  0.00  0.00    -0.506 OA
ATOM     23  H   UNL     1       6.494   5.334  21.259  0.00  0.00    +0.292 HD
ENDBRANCH   5  22
BRANCH  11  24
ATOM     24  O   UNL     1       6.169   0.375  22.970  0.00  0.00    -0.501 OA
ATOM     25  H   UNL     1       5.749   0.301  23.842  0.00  0.00    +0.292 HD
ENDBRANCH  11  24
BRANCH   7  26
ATOM     26  O   UNL     1      10.851   6.479  23.962  0.00  0.00    -0.489 OA
BRANCH  26  27
ATOM     27  C   UNL     1      12.130   5.875  24.227  0.00  0.00    +0.256 C 
BRANCH  27  28
ATOM     28  C   UNL     1      12.912   5.746  22.921  0.00  0.00    +0.196 C 
BRANCH  28  29
ATOM     29  O   UNL     1      14.154   5.082  23.148  0.00  0.00    -0.392 OA
ATOM     30  H   UNL     1      14.596   5.565  23.869  0.00  0.00    +0.210 HD
ENDBRANCH  28  29
ENDBRANCH  27  28
ENDBRANCH  26  27
ENDBRANCH   7  26
TORSDOF 9
ENDMDL
MODEL 8
REMARK VINA RESULT:      -6.7      2.267      3.618
REMARK  Name = 
REMARK  9 active torsions:
REMARK  status: ('A' for Active; 'I' for Inactive)
REMARK    1  A    between atoms: C_3  and  O_25
REMARK    2  A    between atoms: C_4  and  O_24
REMARK    3  A    between atoms: C_6  and  C_7
REMARK    4  A    between atoms: C_8  and  O_23
REMARK    5  A    between atoms: C_12  and  O_22
REMARK    6  A    between atoms: C_14  and  O_18
REMARK    7  A    between atoms: O_18  and  C_19
REMARK    8  A    between atoms: C_19  and  C_20
REMARK    9  A    between atoms: C_20  and  O_21
REMARK                            x       y       z     vdW  Elec       q    Type
REMARK                         _______ _______ _______ _____ _____    ______ ____
ROOT
ATOM      1  C   UNL     1       7.797  -1.853  23.350  0.00  0.00    +0.181 A 
ATOM      2  O   UNL     1       7.052  -0.718  23.005  0.00  0.00    -0.451 OA
ATOM      3  C   UNL     1       7.678   0.508  22.966  0.00  0.00    +0.147 A 
ATOM      4  C   UNL     1       8.996   0.684  23.374  0.00  0.00    +0.109 A 
ATOM      5  C   UNL     1       9.586   1.950  23.327  0.00  0.00    +0.135 A 
ATOM      6  C   UNL     1       8.872   3.045  22.854  0.00  0.00    +0.092 A 
ATOM      7  C   UNL     1       7.558   2.883  22.415  0.00  0.00    +0.128 A 
ATOM      8  C   UNL     1       9.757  -0.480  23.821  0.00  0.00    +0.238 A 
ATOM      9  O   UNL     1      10.906  -0.338  24.236  0.00  0.00    -0.283 OA
ATOM     10  C   UNL     1       6.955   1.614  22.493  0.00  0.00    +0.092 A 
ATOM     11  C   UNL     1       9.102  -1.805  23.707  0.00  0.00    +0.208 A 
ENDROOT
BRANCH   1  13
ATOM     12  C   UNL     1       6.574  -3.821  24.398  0.00  0.00    +0.015 A 
ATOM     13  C   UNL     1       7.038  -3.138  23.249  0.00  0.00    +0.025 A 
ATOM     14  C   UNL     1       6.778  -3.721  22.000  0.00  0.00    +0.060 A 
ATOM     15  C   UNL     1       6.170  -4.973  21.926  0.00  0.00    +0.159 A 
ATOM     16  C   UNL     1       5.811  -5.671  23.075  0.00  0.00    +0.158 A 
ATOM     17  C   UNL     1       5.995  -5.095  24.319  0.00  0.00    +0.050 A 
BRANCH  15  18
ATOM     18  O   UNL     1       5.941  -5.532  20.699  0.00  0.00    -0.503 OA
ATOM     19  H   UNL     1       6.096  -4.804  20.063  0.00  0.00    +0.292 HD
ENDBRANCH  15  18
BRANCH  16  20
ATOM     20  O   UNL     1       5.282  -6.923  22.926  0.00  0.00    -0.503 OA
ATOM     21  H   UNL     1       4.427  -6.843  22.467  0.00  0.00    +0.292 HD
ENDBRANCH  16  20
ENDBRANCH   1  13
BRANCH   5  22
ATOM     22  O   UNL     1      10.875   2.191  23.722  0.00  0.00    -0.506 OA
ATOM     23  H   UNL     1      10.977   1.873  24.649  0.00  0.00    +0.292 HD
ENDBRANCH   5  22
BRANCH  11  24
ATOM     24  O   UNL     1       9.912  -2.899  23.942  0.00  0.00    -0.501 OA
ATOM     25  H   UNL     1      10.832  -2.647  23.763  0.00  0.00    +0.292 HD
ENDBRANCH  11  24
BRANCH   7  26
ATOM     26  O   UNL     1       6.774   3.902  21.927  0.00  0.00    -0.489 OA
BRANCH  26  27
ATOM     27  C   UNL     1       6.317   4.851  22.909  0.00  0.00    +0.256 C 
BRANCH  27  28
ATOM     28  C   UNL     1       6.883   6.232  22.585  0.00  0.00    +0.196 C 
BRANCH  28  29
ATOM     29  O   UNL     1       7.484   6.232  21.290  0.00  0.00    -0.392 OA
ATOM     30  H   UNL     1       8.278   5.673  21.357  0.00  0.00    +0.210 HD
ENDBRANCH  28  29
ENDBRANCH  27  28
ENDBRANCH  26  27
ENDBRANCH   7  26
TORSDOF 9
ENDMDL
MODEL 9
REMARK VINA RESULT:      -6.5      2.544      3.860
REMARK  Name = 
REMARK  9 active torsions:
REMARK  status: ('A' for Active; 'I' for Inactive)
REMARK    1  A    between atoms: C_3  and  O_25
REMARK    2  A    between atoms: C_4  and  O_24
REMARK    3  A    between atoms: C_6  and  C_7
REMARK    4  A    between atoms: C_8  and  O_23
REMARK    5  A    between atoms: C_12  and  O_22
REMARK    6  A    between atoms: C_14  and  O_18
REMARK    7  A    between atoms: O_18  and  C_19
REMARK    8  A    between atoms: C_19  and  C_20
REMARK    9  A    between atoms: C_20  and  O_21
REMARK                            x       y       z     vdW  Elec       q    Type
REMARK                         _______ _______ _______ _____ _____    ______ ____
ROOT
ATOM      1  C   UNL     1       7.918  -1.813  24.090  0.00  0.00    +0.181 A 
ATOM      2  O   UNL     1       7.891  -0.707  24.950  0.00  0.00    -0.451 OA
ATOM      3  C   UNL     1       8.274   0.525  24.469  0.00  0.00    +0.147 A 
ATOM      4  C   UNL     1       8.803   0.694  23.194  0.00  0.00    +0.109 A 
ATOM      5  C   UNL     1       9.188   1.964  22.752  0.00  0.00    +0.135 A 
ATOM      6  C   UNL     1       9.030   3.075  23.572  0.00  0.00    +0.092 A 
ATOM      7  C   UNL     1       8.475   2.929  24.844  0.00  0.00    +0.128 A 
ATOM      8  C   UNL     1       8.920  -0.469  22.318  0.00  0.00    +0.238 A 
ATOM      9  O   UNL     1       9.434  -0.351  21.207  0.00  0.00    -0.283 OA
ATOM     10  C   UNL     1       8.117   1.646  25.298  0.00  0.00    +0.092 A 
ATOM     11  C   UNL     1       8.359  -1.749  22.812  0.00  0.00    +0.208 A 
ENDROOT
BRANCH   1  13
ATOM     12  C   UNL     1       6.023  -3.451  24.530  0.00  0.00    +0.015 A 
ATOM     13  C   UNL     1       7.376  -3.070  24.693  0.00  0.00    +0.025 A 
ATOM     14  C   UNL     1       8.197  -3.908  25.462  0.00  0.00    +0.060 A 
ATOM     15  C   UNL     1       7.653  -5.016  26.111  0.00  0.00    +0.159 A 
ATOM     16  C   UNL     1       6.298  -5.315  26.015  0.00  0.00    +0.158 A 
ATOM     17  C   UNL     1       5.475  -4.546  25.212  0.00  0.00    +0.050 A 
BRANCH  15  18
ATOM     18  O   UNL     1       8.467  -5.810  26.870  0.00  0.00    -0.503 OA
ATOM     19  H   UNL     1       8.926  -5.189  27.473  0.00  0.00    +0.292 HD
ENDBRANCH  15  18
BRANCH  16  20
ATOM     20  O   UNL     1       5.824  -6.377  26.734  0.00  0.00    -0.503 OA
ATOM     21  H   UNL     1       6.455  -7.113  26.649  0.00  0.00    +0.292 HD
ENDBRANCH  16  20
ENDBRANCH   1  13
BRANCH   5  22
ATOM     22  O   UNL     1       9.723   2.195  21.512  0.00  0.00    -0.506 OA
ATOM     23  H   UNL     1       9.741   1.341  21.021  0.00  0.00    +0.292 HD
ENDBRANCH   5  22
BRANCH  11  24
ATOM     24  O   UNL     1       8.298  -2.776  21.890  0.00  0.00    -0.501 OA
ATOM     25  H   UNL     1       7.582  -2.586  21.263  0.00  0.00    +0.292 HD
ENDBRANCH  11  24
BRANCH   7  26
ATOM     26  O   UNL     1       8.274   3.967  25.723  0.00  0.00    -0.489 OA
BRANCH  26  27
ATOM     27  C   UNL     1       7.952   5.232  25.118  0.00  0.00    +0.256 C 
BRANCH  27  28
ATOM     28  C   UNL     1       9.030   6.255  25.474  0.00  0.00    +0.196 C 
BRANCH  28  29
ATOM     29  O   UNL     1       9.230   6.297  26.886  0.00  0.00    -0.392 OA
ATOM     30  H   UNL     1       8.485   5.810  27.282  0.00  0.00    +0.210 HD
ENDBRANCH  28  29
ENDBRANCH  27  28
ENDBRANCH  26  27
ENDBRANCH   7  26
TORSDOF 9
ENDMDL
