MODEL 1
REMARK VINA RESULT:      -7.7      0.000      0.000
REMARK  Name = 
REMARK  24 active torsions:
REMARK  status: ('A' for Active; 'I' for Inactive)
REMARK    1  A    between atoms: C_3  and  O_70
REMARK    2  A    between atoms: C_4  and  O_69
REMARK    3  A    between atoms: C_6  and  C_7
REMARK    4  A    between atoms: C_8  and  O_20
REMARK    5  A    between atoms: C_12  and  O_19
REMARK    6  A    between atoms: C_14  and  O_18
REMARK    7  A    between atoms: O_20  and  C_21
REMARK    8  A    between atoms: C_23  and  O_68
REMARK    9  A    between atoms: C_25  and  O_67
REMARK   10  A    between atoms: C_27  and  O_66
REMARK   11  A    between atoms: C_29  and  C_32
REMARK   12  A    between atoms: C_32  and  O_33
REMARK   13  A    between atoms: O_33  and  C_34
REMARK   14  A    between atoms: C_36  and  O_65
REMARK   15  A    between atoms: C_38  and  O_64
REMARK   16  A    between atoms: C_40  and  O_63
REMARK   17  A    between atoms: C_42  and  C_45
REMARK   18  A    between atoms: C_45  and  O_46
REMARK   19  A    between atoms: O_46  and  C_47
REMARK   20  A    between atoms: C_49  and  O_62
REMARK   21  A    between atoms: C_51  and  O_61
REMARK   22  A    between atoms: C_53  and  O_60
REMARK   23  A    between atoms: C_55  and  C_58
REMARK   24  A    between atoms: C_58  and  O_59
REMARK                            x       y       z     vdW  Elec       q    Type
REMARK                         _______ _______ _______ _____ _____    ______ ____
ROOT
ATOM      1  C   UNL     1       8.146   1.101  23.397  0.00  0.00    +0.340 C 
ATOM      2  O   UNL     1       7.399  -0.072  22.993  0.00  0.00    -0.331 OA
ATOM      3  C   UNL     1       7.958  -1.190  22.275  0.00  0.00    +0.179 C 
ATOM      4  C   UNL     1       9.497  -1.340  22.228  0.00  0.00    +0.177 C 
ATOM      5  C   UNL     1      10.153  -0.410  23.240  0.00  0.00    +0.180 C 
ATOM      6  C   UNL     1       9.632   1.021  23.020  0.00  0.00    +0.214 C 
ENDROOT
BRANCH   6   7
ATOM      7  O   UNL     1       9.859   1.439  21.662  0.00  0.00    -0.383 OA
ATOM      8  H   UNL     1       9.108   1.998  21.370  0.00  0.00    +0.210 HD
ENDBRANCH   6   7
BRANCH   5   9
ATOM      9  O   UNL     1       9.930  -0.918  24.556  0.00  0.00    -0.386 OA
ATOM     10  H   UNL     1       9.802  -1.886  24.509  0.00  0.00    +0.210 HD
ENDBRANCH   5   9
BRANCH   4  11
ATOM     11  O   UNL     1       9.929  -1.036  20.888  0.00  0.00    -0.386 OA
ATOM     12  H   UNL     1       9.985  -1.870  20.381  0.00  0.00    +0.210 HD
ENDBRANCH   4  11
BRANCH   3  13
ATOM     13  C   UNL     1       7.328  -2.456  22.906  0.00  0.00    +0.197 C 
BRANCH  13  14
ATOM     14  O   UNL     1       7.948  -2.890  24.135  0.00  0.00    -0.346 OA
BRANCH  14  15
ATOM     15  C   UNL     1       8.239  -4.287  24.203  0.00  0.00    +0.282 C 
ATOM     16  O   UNL     1       7.086  -5.074  24.512  0.00  0.00    -0.341 OA
ATOM     17  C   UNL     1       6.492  -4.939  25.804  0.00  0.00    +0.178 C 
ATOM     18  C   UNL     1       7.521  -4.724  26.975  0.00  0.00    +0.177 C 
ATOM     19  C   UNL     1       8.913  -4.147  26.604  0.00  0.00    +0.179 C 
ATOM     20  C   UNL     1       9.359  -4.592  25.206  0.00  0.00    +0.201 C 
BRANCH  20  21
ATOM     21  O   UNL     1       9.697  -5.986  25.209  0.00  0.00    -0.384 OA
ATOM     22  H   UNL     1      10.333  -6.140  24.482  0.00  0.00    +0.210 HD
ENDBRANCH  20  21
BRANCH  19  23
ATOM     23  O   UNL     1       8.944  -2.736  26.820  0.00  0.00    -0.386 OA
ATOM     24  H   UNL     1       9.021  -2.558  27.772  0.00  0.00    +0.210 HD
ENDBRANCH  19  23
BRANCH  18  25
ATOM     25  O   UNL     1       7.794  -6.046  27.510  0.00  0.00    -0.386 OA
ATOM     26  H   UNL     1       8.168  -5.935  28.406  0.00  0.00    +0.210 HD
ENDBRANCH  18  25
BRANCH  17  27
ATOM     27  C   UNL     1       5.243  -4.013  25.722  0.00  0.00    +0.197 C 
BRANCH  27  28
ATOM     28  O   UNL     1       4.429  -4.225  24.534  0.00  0.00    -0.346 OA
BRANCH  28  29
ATOM     29  C   UNL     1       3.060  -4.628  24.706  0.00  0.00    +0.282 C 
ATOM     30  O   UNL     1       2.827  -5.073  26.033  0.00  0.00    -0.341 OA
ATOM     31  C   UNL     1       3.010  -6.460  26.349  0.00  0.00    +0.178 C 
ATOM     32  C   UNL     1       3.556  -7.443  25.283  0.00  0.00    +0.177 C 
ATOM     33  C   UNL     1       3.506  -6.966  23.824  0.00  0.00    +0.179 C 
ATOM     34  C   UNL     1       2.682  -5.696  23.637  0.00  0.00    +0.201 C 
BRANCH  34  35
ATOM     35  O   UNL     1       1.290  -6.043  23.665  0.00  0.00    -0.384 OA
ATOM     36  H   UNL     1       1.012  -6.234  22.752  0.00  0.00    +0.210 HD
ENDBRANCH  34  35
BRANCH  33  37
ATOM     37  O   UNL     1       4.839  -6.735  23.332  0.00  0.00    -0.386 OA
ATOM     38  H   UNL     1       5.462  -7.056  24.018  0.00  0.00    +0.210 HD
ENDBRANCH  33  37
BRANCH  32  39
ATOM     39  O   UNL     1       2.862  -8.708  25.426  0.00  0.00    -0.386 OA
ATOM     40  H   UNL     1       3.244  -9.347  24.799  0.00  0.00    +0.210 HD
ENDBRANCH  32  39
BRANCH  31  41
ATOM     41  C   UNL     1       3.894  -6.534  27.610  0.00  0.00    +0.190 C 
BRANCH  41  42
ATOM     42  O   UNL     1       4.988  -7.431  27.445  0.00  0.00    -0.392 OA
ATOM     43  H   UNL     1       4.643  -8.345  27.536  0.00  0.00    +0.210 HD
ENDBRANCH  41  42
ENDBRANCH  31  41
ENDBRANCH  28  29
ENDBRANCH  27  28
ENDBRANCH  17  27
ENDBRANCH  14  15
ENDBRANCH  13  14
ENDBRANCH   3  13
BRANCH   1  44
ATOM     44  O   UNL     1       8.039   1.194  24.846  0.00  0.00    -0.453 OA
BRANCH  44  55
ATOM     45  C   UNL     1       6.097   2.458  25.458  0.00  0.00    +0.181 A 
ATOM     46  O   UNL     1       4.950   2.724  26.192  0.00  0.00    -0.451 OA
ATOM     47  C   UNL     1       4.490   1.838  27.112  0.00  0.00    +0.147 A 
ATOM     48  C   UNL     1       5.001   0.558  27.243  0.00  0.00    +0.109 A 
ATOM     49  C   UNL     1       4.330  -0.309  28.126  0.00  0.00    +0.135 A 
ATOM     50  C   UNL     1       3.254   0.138  28.908  0.00  0.00    +0.091 A 
ATOM     51  C   UNL     1       2.841   1.460  28.822  0.00  0.00    +0.124 A 
ATOM     52  C   UNL     1       6.225   0.228  26.444  0.00  0.00    +0.238 A 
ATOM     53  O   UNL     1       6.695  -0.913  26.521  0.00  0.00    -0.283 OA
ATOM     54  C   UNL     1       3.440   2.312  27.908  0.00  0.00    +0.092 A 
ATOM     55  C   UNL     1       6.828   1.319  25.551  0.00  0.00    +0.214 A 
BRANCH  45  57
ATOM     56  C   UNL     1       5.693   3.967  23.438  0.00  0.00    +0.015 A 
ATOM     57  C   UNL     1       6.388   3.694  24.632  0.00  0.00    +0.025 A 
ATOM     58  C   UNL     1       7.568   4.445  24.900  0.00  0.00    +0.060 A 
ATOM     59  C   UNL     1       8.076   5.353  23.979  0.00  0.00    +0.159 A 
ATOM     60  C   UNL     1       7.419   5.523  22.741  0.00  0.00    +0.158 A 
ATOM     61  C   UNL     1       6.215   4.880  22.511  0.00  0.00    +0.050 A 
BRANCH  60  62
ATOM     62  O   UNL     1       8.035   6.322  21.819  0.00  0.00    -0.503 OA
ATOM     63  H   UNL     1       7.376   6.956  21.489  0.00  0.00    +0.292 HD
ENDBRANCH  60  62
BRANCH  59  64
ATOM     64  O   UNL     1       9.241   6.024  24.222  0.00  0.00    -0.503 OA
ATOM     65  H   UNL     1       8.990   6.747  24.831  0.00  0.00    +0.292 HD
ENDBRANCH  59  64
ENDBRANCH  45  57
BRANCH  51  66
ATOM     66  O   UNL     1       1.860   1.967  29.616  0.00  0.00    -0.507 OA
ATOM     67  H   UNL     1       1.354   1.235  30.009  0.00  0.00    +0.292 HD
ENDBRANCH  51  66
BRANCH  49  68
ATOM     68  O   UNL     1       4.648  -1.628  28.314  0.00  0.00    -0.506 OA
ATOM     69  H   UNL     1       3.852  -2.110  28.616  0.00  0.00    +0.292 HD
ENDBRANCH  49  68
ENDBRANCH  44  55
ENDBRANCH   1  44
TORSDOF 24
ENDMDL
MODEL 2
REMARK VINA RESULT:      -7.2      2.027      6.492
REMARK  Name = 
REMARK  24 active torsions:
REMARK  status: ('A' for Active; 'I' for Inactive)
REMARK    1  A    between atoms: C_3  and  O_70
REMARK    2  A    between atoms: C_4  and  O_69
REMARK    3  A    between atoms: C_6  and  C_7
REMARK    4  A    between atoms: C_8  and  O_20
REMARK    5  A    between atoms: C_12  and  O_19
REMARK    6  A    between atoms: C_14  and  O_18
REMARK    7  A    between atoms: O_20  and  C_21
REMARK    8  A    between atoms: C_23  and  O_68
REMARK    9  A    between atoms: C_25  and  O_67
REMARK   10  A    between atoms: C_27  and  O_66
REMARK   11  A    between atoms: C_29  and  C_32
REMARK   12  A    between atoms: C_32  and  O_33
REMARK   13  A    between atoms: O_33  and  C_34
REMARK   14  A    between atoms: C_36  and  O_65
REMARK   15  A    between atoms: C_38  and  O_64
REMARK   16  A    between atoms: C_40  and  O_63
REMARK   17  A    between atoms: C_42  and  C_45
REMARK   18  A    between atoms: C_45  and  O_46
REMARK   19  A    between atoms: O_46  and  C_47
REMARK   20  A    between atoms: C_49  and  O_62
REMARK   21  A    between atoms: C_51  and  O_61
REMARK   22  A    between atoms: C_53  and  O_60
REMARK   23  A    between atoms: C_55  and  C_58
REMARK   24  A    between atoms: C_58  and  O_59
REMARK                            x       y       z     vdW  Elec       q    Type
REMARK                         _______ _______ _______ _____ _____    ______ ____
ROOT
ATOM      1  C   UNL     1       4.482  -0.575  26.998  0.00  0.00    +0.340 C 
ATOM      2  O   UNL     1       3.828  -1.797  26.574  0.00  0.00    -0.331 OA
ATOM      3  C   UNL     1       2.599  -2.303  27.132  0.00  0.00    +0.179 C 
ATOM      4  C   UNL     1       1.724  -1.345  27.975  0.00  0.00    +0.177 C 
ATOM      5  C   UNL     1       2.192   0.094  27.802  0.00  0.00    +0.180 C 
ATOM      6  C   UNL     1       3.702   0.170  28.090  0.00  0.00    +0.214 C 
ENDROOT
BRANCH   6   7
ATOM      7  O   UNL     1       3.995  -0.349  29.400  0.00  0.00    -0.383 OA
ATOM      8  H   UNL     1       4.785  -0.926  29.345  0.00  0.00    +0.210 HD
ENDBRANCH   6   7
BRANCH   5   9
ATOM      9  O   UNL     1       1.821   0.554  26.503  0.00  0.00    -0.386 OA
ATOM     10  H   UNL     1       0.869   0.778  26.501  0.00  0.00    +0.210 HD
ENDBRANCH   5   9
BRANCH   4  11
ATOM     11  O   UNL     1       1.818  -1.758  29.351  0.00  0.00    -0.386 OA
ATOM     12  H   UNL     1       2.743  -2.012  29.539  0.00  0.00    +0.210 HD
ENDBRANCH   4  11
BRANCH   3  13
ATOM     13  C   UNL     1       1.780  -2.841  25.934  0.00  0.00    +0.197 C 
BRANCH  13  14
ATOM     14  O   UNL     1       2.528  -3.662  25.012  0.00  0.00    -0.346 OA
BRANCH  14  15
ATOM     15  C   UNL     1       2.098  -5.022  24.928  0.00  0.00    +0.282 C 
ATOM     16  O   UNL     1       2.757  -5.867  25.874  0.00  0.00    -0.341 OA
ATOM     17  C   UNL     1       4.158  -6.100  25.721  0.00  0.00    +0.178 C 
ATOM     18  C   UNL     1       4.641  -6.219  24.228  0.00  0.00    +0.177 C 
ATOM     19  C   UNL     1       3.755  -5.557  23.139  0.00  0.00    +0.179 C 
ATOM     20  C   UNL     1       2.270  -5.592  23.513  0.00  0.00    +0.201 C 
BRANCH  20  21
ATOM     21  O   UNL     1       1.761  -6.930  23.421  0.00  0.00    -0.384 OA
ATOM     22  H   UNL     1       1.420  -7.180  24.302  0.00  0.00    +0.210 HD
ENDBRANCH  20  21
BRANCH  19  23
ATOM     23  O   UNL     1       4.257  -4.263  22.804  0.00  0.00    -0.386 OA
ATOM     24  H   UNL     1       5.116  -4.129  23.238  0.00  0.00    +0.210 HD
ENDBRANCH  19  23
BRANCH  18  25
ATOM     25  O   UNL     1       4.620  -7.637  23.916  0.00  0.00    -0.386 OA
ATOM     26  H   UNL     1       5.543  -7.957  23.922  0.00  0.00    +0.210 HD
ENDBRANCH  18  25
BRANCH  17  27
ATOM     27  C   UNL     1       4.959  -5.192  26.700  0.00  0.00    +0.197 C 
BRANCH  27  28
ATOM     28  O   UNL     1       6.067  -4.484  26.074  0.00  0.00    -0.346 OA
BRANCH  28  29
ATOM     29  C   UNL     1       7.407  -4.879  26.410  0.00  0.00    +0.282 C 
ATOM     30  O   UNL     1       8.098  -3.823  27.059  0.00  0.00    -0.341 OA
ATOM     31  C   UNL     1       8.842  -2.884  26.272  0.00  0.00    +0.178 C 
ATOM     32  C   UNL     1       8.809  -2.955  24.725  0.00  0.00    +0.177 C 
ATOM     33  C   UNL     1       8.296  -4.267  24.112  0.00  0.00    +0.179 C 
ATOM     34  C   UNL     1       8.146  -5.387  25.136  0.00  0.00    +0.201 C 
BRANCH  34  35
ATOM     35  O   UNL     1       9.445  -5.925  25.423  0.00  0.00    -0.384 OA
ATOM     36  H   UNL     1       9.838  -6.220  24.583  0.00  0.00    +0.210 HD
ENDBRANCH  34  35
BRANCH  33  37
ATOM     37  O   UNL     1       7.028  -4.050  23.466  0.00  0.00    -0.386 OA
ATOM     38  H   UNL     1       6.485  -3.499  24.069  0.00  0.00    +0.210 HD
ENDBRANCH  33  37
BRANCH  32  39
ATOM     39  O   UNL     1      10.133  -2.645  24.221  0.00  0.00    -0.386 OA
ATOM     40  H   UNL     1      10.530  -1.960  24.787  0.00  0.00    +0.210 HD
ENDBRANCH  32  39
BRANCH  31  41
ATOM     41  C   UNL     1       8.426  -1.469  26.725  0.00  0.00    +0.190 C 
BRANCH  41  42
ATOM     42  O   UNL     1       9.375  -0.481  26.333  0.00  0.00    -0.392 OA
ATOM     43  H   UNL     1      10.250  -0.749  26.685  0.00  0.00    +0.210 HD
ENDBRANCH  41  42
ENDBRANCH  31  41
ENDBRANCH  28  29
ENDBRANCH  27  28
ENDBRANCH  17  27
ENDBRANCH  14  15
ENDBRANCH  13  14
ENDBRANCH   3  13
BRANCH   1  44
ATOM     44  O   UNL     1       4.575   0.284  25.825  0.00  0.00    -0.453 OA
BRANCH  44  55
ATOM     45  C   UNL     1       6.430   1.771  25.527  0.00  0.00    +0.181 A 
ATOM     46  O   UNL     1       7.560   2.258  24.886  0.00  0.00    -0.451 OA
ATOM     47  C   UNL     1       8.082   1.617  23.810  0.00  0.00    +0.147 A 
ATOM     48  C   UNL     1       7.659   0.363  23.404  0.00  0.00    +0.109 A 
ATOM     49  C   UNL     1       8.391  -0.254  22.372  0.00  0.00    +0.135 A 
ATOM     50  C   UNL     1       9.438   0.416  21.721  0.00  0.00    +0.091 A 
ATOM     51  C   UNL     1       9.760   1.714  22.089  0.00  0.00    +0.124 A 
ATOM     52  C   UNL     1       6.457  -0.206  24.094  0.00  0.00    +0.238 A 
ATOM     53  O   UNL     1       6.065  -1.334  23.772  0.00  0.00    -0.283 OA
ATOM     54  C   UNL     1       9.102   2.315  23.150  0.00  0.00    +0.092 A 
ATOM     55  C   UNL     1       5.778   0.632  25.184  0.00  0.00    +0.214 A 
BRANCH  45  57
ATOM     56  C   UNL     1       5.171   3.848  26.317  0.00  0.00    +0.015 A 
ATOM     57  C   UNL     1       6.053   2.784  26.588  0.00  0.00    +0.025 A 
ATOM     58  C   UNL     1       6.811   2.841  27.792  0.00  0.00    +0.060 A 
ATOM     59  C   UNL     1       6.759   3.947  28.632  0.00  0.00    +0.159 A 
ATOM     60  C   UNL     1       5.950   5.048  28.276  0.00  0.00    +0.158 A 
ATOM     61  C   UNL     1       5.128   4.963  27.165  0.00  0.00    +0.050 A 
BRANCH  60  62
ATOM     62  O   UNL     1       6.041   6.163  29.061  0.00  0.00    -0.503 OA
ATOM     63  H   UNL     1       5.663   6.907  28.564  0.00  0.00    +0.292 HD
ENDBRANCH  60  62
BRANCH  59  64
ATOM     64  O   UNL     1       7.535   4.016  29.753  0.00  0.00    -0.503 OA
ATOM     65  H   UNL     1       8.453   3.936  29.427  0.00  0.00    +0.292 HD
ENDBRANCH  59  64
ENDBRANCH  45  57
BRANCH  51  66
ATOM     66  O   UNL     1      10.709   2.439  21.437  0.00  0.00    -0.507 OA
ATOM     67  H   UNL     1      11.442   2.631  22.046  0.00  0.00    +0.292 HD
ENDBRANCH  51  66
BRANCH  49  68
ATOM     68  O   UNL     1       8.163  -1.522  21.906  0.00  0.00    -0.506 OA
ATOM     69  H   UNL     1       8.636  -1.642  21.059  0.00  0.00    +0.292 HD
ENDBRANCH  49  68
ENDBRANCH  44  55
ENDBRANCH   1  44
TORSDOF 24
ENDMDL
MODEL 3
REMARK VINA RESULT:      -7.2      1.693      6.434
REMARK  Name = 
REMARK  24 active torsions:
REMARK  status: ('A' for Active; 'I' for Inactive)
REMARK    1  A    between atoms: C_3  and  O_70
REMARK    2  A    between atoms: C_4  and  O_69
REMARK    3  A    between atoms: C_6  and  C_7
REMARK    4  A    between atoms: C_8  and  O_20
REMARK    5  A    between atoms: C_12  and  O_19
REMARK    6  A    between atoms: C_14  and  O_18
REMARK    7  A    between atoms: O_20  and  C_21
REMARK    8  A    between atoms: C_23  and  O_68
REMARK    9  A    between atoms: C_25  and  O_67
REMARK   10  A    between atoms: C_27  and  O_66
REMARK   11  A    between atoms: C_29  and  C_32
REMARK   12  A    between atoms: C_32  and  O_33
REMARK   13  A    between atoms: O_33  and  C_34
REMARK   14  A    between atoms: C_36  and  O_65
REMARK   15  A    between atoms: C_38  and  O_64
REMARK   16  A    between atoms: C_40  and  O_63
REMARK   17  A    between atoms: C_42  and  C_45
REMARK   18  A    between atoms: C_45  and  O_46
REMARK   19  A    between atoms: O_46  and  C_47
REMARK   20  A    between atoms: C_49  and  O_62
REMARK   21  A    between atoms: C_51  and  O_61
REMARK   22  A    between atoms: C_53  and  O_60
REMARK   23  A    between atoms: C_55  and  C_58
REMARK   24  A    between atoms: C_58  and  O_59
REMARK                            x       y       z     vdW  Elec       q    Type
REMARK                         _______ _______ _______ _____ _____    ______ ____
ROOT
ATOM      1  C   UNL     1       5.026  -0.324  26.433  0.00  0.00    +0.340 C 
ATOM      2  O   UNL     1       4.280  -1.520  26.099  0.00  0.00    -0.331 OA
ATOM      3  C   UNL     1       3.137  -2.003  26.832  0.00  0.00    +0.179 C 
ATOM      4  C   UNL     1       2.430  -1.037  27.813  0.00  0.00    +0.177 C 
ATOM      5  C   UNL     1       2.908   0.392  27.589  0.00  0.00    +0.180 C 
ATOM      6  C   UNL     1       4.445   0.422  27.643  0.00  0.00    +0.214 C 
ENDROOT
BRANCH   6   7
ATOM      7  O   UNL     1       4.921  -0.128  28.884  0.00  0.00    -0.383 OA
ATOM      8  H   UNL     1       4.154  -0.311  29.467  0.00  0.00    +0.210 HD
ENDBRANCH   6   7
BRANCH   5   9
ATOM      9  O   UNL     1       2.355   0.885  26.369  0.00  0.00    -0.386 OA
ATOM     10  H   UNL     1       2.673   0.334  25.626  0.00  0.00    +0.210 HD
ENDBRANCH   5   9
BRANCH   4  11
ATOM     11  O   UNL     1       2.721  -1.477  29.153  0.00  0.00    -0.386 OA
ATOM     12  H   UNL     1       3.537  -2.017  29.134  0.00  0.00    +0.210 HD
ENDBRANCH   4  11
BRANCH   3  13
ATOM     13  C   UNL     1       2.128  -2.498  25.767  0.00  0.00    +0.197 C 
BRANCH  13  14
ATOM     14  O   UNL     1       2.603  -3.586  24.947  0.00  0.00    -0.346 OA
BRANCH  14  15
ATOM     15  C   UNL     1       1.694  -4.679  24.809  0.00  0.00    +0.282 C 
ATOM     16  O   UNL     1       1.912  -5.702  25.784  0.00  0.00    -0.341 OA
ATOM     17  C   UNL     1       3.125  -6.453  25.725  0.00  0.00    +0.178 C 
ATOM     18  C   UNL     1       3.631  -6.763  24.268  0.00  0.00    +0.177 C 
ATOM     19  C   UNL     1       3.145  -5.826  23.131  0.00  0.00    +0.179 C 
ATOM     20  C   UNL     1       1.735  -5.287  23.401  0.00  0.00    +0.201 C 
BRANCH  20  21
ATOM     21  O   UNL     1       0.763  -6.331  23.250  0.00  0.00    -0.384 OA
ATOM     22  H   UNL     1      -0.014  -5.950  22.794  0.00  0.00    +0.210 HD
ENDBRANCH  20  21
BRANCH  19  23
ATOM     23  O   UNL     1       4.124  -4.824  22.855  0.00  0.00    -0.386 OA
ATOM     24  H   UNL     1       4.027  -4.524  21.935  0.00  0.00    +0.210 HD
ENDBRANCH  19  23
BRANCH  18  25
ATOM     25  O   UNL     1       3.093  -8.070  23.932  0.00  0.00    -0.386 OA
ATOM     26  H   UNL     1       2.407  -8.289  24.592  0.00  0.00    +0.210 HD
ENDBRANCH  18  25
BRANCH  17  27
ATOM     27  C   UNL     1       4.141  -5.909  26.774  0.00  0.00    +0.197 C 
BRANCH  27  28
ATOM     28  O   UNL     1       5.493  -5.754  26.258  0.00  0.00    -0.346 OA
BRANCH  28  29
ATOM     29  C   UNL     1       5.940  -4.436  25.899  0.00  0.00    +0.282 C 
ATOM     30  O   UNL     1       6.293  -4.380  24.525  0.00  0.00    -0.341 OA
ATOM     31  C   UNL     1       7.643  -4.669  24.136  0.00  0.00    +0.178 C 
ATOM     32  C   UNL     1       8.679  -5.140  25.186  0.00  0.00    +0.177 C 
ATOM     33  C   UNL     1       8.317  -4.899  26.658  0.00  0.00    +0.179 C 
ATOM     34  C   UNL     1       7.102  -3.995  26.837  0.00  0.00    +0.201 C 
BRANCH  34  35
ATOM     35  O   UNL     1       7.506  -2.635  26.621  0.00  0.00    -0.384 OA
ATOM     36  H   UNL     1       8.390  -2.520  27.014  0.00  0.00    +0.210 HD
ENDBRANCH  34  35
BRANCH  33  37
ATOM     37  O   UNL     1       8.067  -6.154  27.320  0.00  0.00    -0.386 OA
ATOM     38  H   UNL     1       8.823  -6.321  27.922  0.00  0.00    +0.210 HD
ENDBRANCH  33  37
BRANCH  32  39
ATOM     39  O   UNL     1       9.959  -4.534  24.873  0.00  0.00    -0.386 OA
ATOM     40  H   UNL     1       9.845  -3.937  24.113  0.00  0.00    +0.210 HD
ENDBRANCH  32  39
BRANCH  31  41
ATOM     41  C   UNL     1       7.581  -5.694  22.985  0.00  0.00    +0.190 C 
BRANCH  41  42
ATOM     42  O   UNL     1       7.003  -5.142  21.806  0.00  0.00    -0.392 OA
ATOM     43  H   UNL     1       6.059  -4.951  21.996  0.00  0.00    +0.210 HD
ENDBRANCH  41  42
ENDBRANCH  31  41
ENDBRANCH  28  29
ENDBRANCH  27  28
ENDBRANCH  17  27
ENDBRANCH  14  15
ENDBRANCH  13  14
ENDBRANCH   3  13
BRANCH   1  44
ATOM     44  O   UNL     1       4.963   0.553  25.272  0.00  0.00    -0.453 OA
BRANCH  44  55
ATOM     45  C   UNL     1       7.060   1.600  24.773  0.00  0.00    +0.181 A 
ATOM     46  O   UNL     1       7.943   2.667  24.685  0.00  0.00    -0.451 OA
ATOM     47  C   UNL     1       7.539   3.931  24.969  0.00  0.00    +0.147 A 
ATOM     48  C   UNL     1       6.211   4.269  25.167  0.00  0.00    +0.109 A 
ATOM     49  C   UNL     1       5.913   5.639  25.295  0.00  0.00    +0.135 A 
ATOM     50  C   UNL     1       6.930   6.606  25.319  0.00  0.00    +0.091 A 
ATOM     51  C   UNL     1       8.257   6.213  25.222  0.00  0.00    +0.124 A 
ATOM     52  C   UNL     1       5.225   3.143  25.240  0.00  0.00    +0.238 A 
ATOM     53  O   UNL     1       4.028   3.410  25.394  0.00  0.00    -0.283 OA
ATOM     54  C   UNL     1       8.570   4.878  25.023  0.00  0.00    +0.092 A 
ATOM     55  C   UNL     1       5.748   1.707  25.100  0.00  0.00    +0.214 A 
BRANCH  45  57
ATOM     56  C   UNL     1       9.136   0.146  25.089  0.00  0.00    +0.015 A 
ATOM     57  C   UNL     1       7.863   0.341  24.518  0.00  0.00    +0.025 A 
ATOM     58  C   UNL     1       7.464  -0.533  23.468  0.00  0.00    +0.060 A 
ATOM     59  C   UNL     1       8.331  -1.491  22.952  0.00  0.00    +0.159 A 
ATOM     60  C   UNL     1       9.640  -1.587  23.468  0.00  0.00    +0.158 A 
ATOM     61  C   UNL     1      10.006  -0.817  24.559  0.00  0.00    +0.050 A 
BRANCH  60  62
ATOM     62  O   UNL     1      10.493  -2.447  22.835  0.00  0.00    -0.503 OA
ATOM     63  H   UNL     1       9.956  -3.112  22.373  0.00  0.00    +0.292 HD
ENDBRANCH  60  62
BRANCH  59  64
ATOM     64  O   UNL     1       7.958  -2.284  21.905  0.00  0.00    -0.503 OA
ATOM     65  H   UNL     1       7.100  -2.667  22.174  0.00  0.00    +0.292 HD
ENDBRANCH  59  64
ENDBRANCH  45  57
BRANCH  51  66
ATOM     66  O   UNL     1       9.285   7.098  25.324  0.00  0.00    -0.507 OA
ATOM     67  H   UNL     1       8.928   8.002  25.363  0.00  0.00    +0.292 HD
ENDBRANCH  51  66
BRANCH  49  68
ATOM     68  O   UNL     1       4.649   6.153  25.414  0.00  0.00    -0.506 OA
ATOM     69  H   UNL     1       4.684   7.122  25.282  0.00  0.00    +0.292 HD
ENDBRANCH  49  68
ENDBRANCH  44  55
ENDBRANCH   1  44
TORSDOF 24
ENDMDL
MODEL 4
REMARK VINA RESULT:      -7.1      2.262      4.792
REMARK  Name = 
REMARK  24 active torsions:
REMARK  status: ('A' for Active; 'I' for Inactive)
REMARK    1  A    between atoms: C_3  and  O_70
REMARK    2  A    between atoms: C_4  and  O_69
REMARK    3  A    between atoms: C_6  and  C_7
REMARK    4  A    between atoms: C_8  and  O_20
REMARK    5  A    between atoms: C_12  and  O_19
REMARK    6  A    between atoms: C_14  and  O_18
REMARK    7  A    between atoms: O_20  and  C_21
REMARK    8  A    between atoms: C_23  and  O_68
REMARK    9  A    between atoms: C_25  and  O_67
REMARK   10  A    between atoms: C_27  and  O_66
REMARK   11  A    between atoms: C_29  and  C_32
REMARK   12  A    between atoms: C_32  and  O_33
REMARK   13  A    between atoms: O_33  and  C_34
REMARK   14  A    between atoms: C_36  and  O_65
REMARK   15  A    between atoms: C_38  and  O_64
REMARK   16  A    between atoms: C_40  and  O_63
REMARK   17  A    between atoms: C_42  and  C_45
REMARK   18  A    between atoms: C_45  and  O_46
REMARK   19  A    between atoms: O_46  and  C_47
REMARK   20  A    between atoms: C_49  and  O_62
REMARK   21  A    between atoms: C_51  and  O_61
REMARK   22  A    between atoms: C_53  and  O_60
REMARK   23  A    between atoms: C_55  and  C_58
REMARK   24  A    between atoms: C_58  and  O_59
REMARK                            x       y       z     vdW  Elec       q    Type
REMARK                         _______ _______ _______ _____ _____    ______ ____
ROOT
ATOM      1  C   UNL     1       8.558   0.802  22.623  0.00  0.00    +0.340 C 
ATOM      2  O   UNL     1       7.984  -0.023  23.666  0.00  0.00    -0.331 OA
ATOM      3  C   UNL     1       8.592  -1.220  24.189  0.00  0.00    +0.179 C 
ATOM      4  C   UNL     1      10.091  -1.472  23.899  0.00  0.00    +0.177 C 
ATOM      5  C   UNL     1      10.745  -0.212  23.348  0.00  0.00    +0.180 C 
ATOM      6  C   UNL     1       9.927   0.295  22.147  0.00  0.00    +0.214 C 
ENDROOT
BRANCH   6   7
ATOM      7  O   UNL     1       9.794  -0.736  21.152  0.00  0.00    -0.383 OA
ATOM      8  H   UNL     1       9.129  -0.456  20.490  0.00  0.00    +0.210 HD
ENDBRANCH   6   7
BRANCH   5   9
ATOM      9  O   UNL     1      10.889   0.740  24.402  0.00  0.00    -0.386 OA
ATOM     10  H   UNL     1      11.238   1.576  24.034  0.00  0.00    +0.210 HD
ENDBRANCH   5   9
BRANCH   4  11
ATOM     11  O   UNL     1      10.181  -2.558  22.957  0.00  0.00    -0.386 OA
ATOM     12  H   UNL     1      11.118  -2.830  22.883  0.00  0.00    +0.210 HD
ENDBRANCH   4  11
BRANCH   3  13
ATOM     13  C   UNL     1       8.354  -1.183  25.719  0.00  0.00    +0.197 C 
BRANCH  13  14
ATOM     14  O   UNL     1       6.971  -1.279  26.117  0.00  0.00    -0.346 OA
BRANCH  14  15
ATOM     15  C   UNL     1       6.612  -0.483  27.249  0.00  0.00    +0.282 C 
ATOM     16  O   UNL     1       5.557  -1.066  28.018  0.00  0.00    -0.341 OA
ATOM     17  C   UNL     1       4.258  -1.163  27.432  0.00  0.00    +0.178 C 
ATOM     18  C   UNL     1       3.861   0.056  26.519  0.00  0.00    +0.177 C 
ATOM     19  C   UNL     1       5.015   0.899  25.916  0.00  0.00    +0.179 C 
ATOM     20  C   UNL     1       6.232   0.948  26.847  0.00  0.00    +0.201 C 
BRANCH  20  21
ATOM     21  O   UNL     1       5.951   1.759  27.996  0.00  0.00    -0.384 OA
ATOM     22  H   UNL     1       6.369   2.632  27.854  0.00  0.00    +0.210 HD
ENDBRANCH  20  21
BRANCH  19  23
ATOM     23  O   UNL     1       5.300   0.476  24.582  0.00  0.00    -0.386 OA
ATOM     24  H   UNL     1       5.159   1.219  23.972  0.00  0.00    +0.210 HD
ENDBRANCH  19  23
BRANCH  18  25
ATOM     25  O   UNL     1       3.136   0.975  27.379  0.00  0.00    -0.386 OA
ATOM     26  H   UNL     1       2.921   1.770  26.853  0.00  0.00    +0.210 HD
ENDBRANCH  18  25
BRANCH  17  27
ATOM     27  C   UNL     1       4.018  -2.608  26.903  0.00  0.00    +0.197 C 
BRANCH  27  28
ATOM     28  O   UNL     1       4.784  -2.932  25.708  0.00  0.00    -0.346 OA
BRANCH  28  29
ATOM     29  C   UNL     1       4.526  -4.183  25.049  0.00  0.00    +0.282 C 
ATOM     30  O   UNL     1       5.589  -5.097  25.267  0.00  0.00    -0.341 OA
ATOM     31  C   UNL     1       6.687  -5.128  24.344  0.00  0.00    +0.178 C 
ATOM     32  C   UNL     1       6.766  -4.105  23.183  0.00  0.00    +0.177 C 
ATOM     33  C   UNL     1       5.468  -3.359  22.841  0.00  0.00    +0.179 C 
ATOM     34  C   UNL     1       4.242  -3.940  23.538  0.00  0.00    +0.201 C 
BRANCH  34  35
ATOM     35  O   UNL     1       3.842  -5.132  22.846  0.00  0.00    -0.384 OA
ATOM     36  H   UNL     1       4.616  -5.721  22.796  0.00  0.00    +0.210 HD
ENDBRANCH  34  35
BRANCH  33  37
ATOM     37  O   UNL     1       5.589  -1.967  23.191  0.00  0.00    -0.386 OA
ATOM     38  H   UNL     1       5.742  -1.923  24.159  0.00  0.00    +0.210 HD
ENDBRANCH  33  37
BRANCH  32  39
ATOM     39  O   UNL     1       7.285  -4.781  22.010  0.00  0.00    -0.386 OA
ATOM     40  H   UNL     1       7.699  -5.617  22.288  0.00  0.00    +0.210 HD
ENDBRANCH  32  39
BRANCH  31  41
ATOM     41  C   UNL     1       7.987  -5.060  25.171  0.00  0.00    +0.190 C 
BRANCH  41  42
ATOM     42  O   UNL     1       9.142  -4.949  24.345  0.00  0.00    -0.392 OA
ATOM     43  H   UNL     1       8.848  -4.999  23.410  0.00  0.00    +0.210 HD
ENDBRANCH  41  42
ENDBRANCH  31  41
ENDBRANCH  28  29
ENDBRANCH  27  28
ENDBRANCH  17  27
ENDBRANCH  14  15
ENDBRANCH  13  14
ENDBRANCH   3  13
BRANCH   1  44
ATOM     44  O   UNL     1       8.725   2.137  23.182  0.00  0.00    -0.453 OA
BRANCH  44  55
ATOM     45  C   UNL     1       7.997   4.364  23.684  0.00  0.00    +0.181 A 
ATOM     46  O   UNL     1       7.058   5.372  23.850  0.00  0.00    -0.451 OA
ATOM     47  C   UNL     1       5.748   5.158  23.566  0.00  0.00    +0.147 A 
ATOM     48  C   UNL     1       5.295   4.018  22.923  0.00  0.00    +0.109 A 
ATOM     49  C   UNL     1       3.938   3.994  22.548  0.00  0.00    +0.135 A 
ATOM     50  C   UNL     1       3.067   5.037  22.900  0.00  0.00    +0.091 A 
ATOM     51  C   UNL     1       3.541   6.112  23.637  0.00  0.00    +0.124 A 
ATOM     52  C   UNL     1       6.289   2.920  22.703  0.00  0.00    +0.238 A 
ATOM     53  O   UNL     1       5.924   1.897  22.112  0.00  0.00    -0.283 OA
ATOM     54  C   UNL     1       4.888   6.192  23.955  0.00  0.00    +0.092 A 
ATOM     55  C   UNL     1       7.724   3.124  23.206  0.00  0.00    +0.214 A 
BRANCH  45  57
ATOM     56  C   UNL     1       9.370   5.969  25.120  0.00  0.00    +0.015 A 
ATOM     57  C   UNL     1       9.315   4.898  24.207  0.00  0.00    +0.025 A 
ATOM     58  C   UNL     1      10.523   4.513  23.561  0.00  0.00    +0.060 A 
ATOM     59  C   UNL     1      11.704   5.222  23.747  0.00  0.00    +0.159 A 
ATOM     60  C   UNL     1      11.702   6.361  24.581  0.00  0.00    +0.158 A 
ATOM     61  C   UNL     1      10.563   6.683  25.298  0.00  0.00    +0.050 A 
BRANCH  60  62
ATOM     62  O   UNL     1      12.851   7.101  24.620  0.00  0.00    -0.503 OA
ATOM     63  H   UNL     1      13.077   7.248  25.554  0.00  0.00    +0.292 HD
ENDBRANCH  60  62
BRANCH  59  64
ATOM     64  O   UNL     1      12.843   4.880  23.076  0.00  0.00    -0.503 OA
ATOM     65  H   UNL     1      13.501   4.701  23.776  0.00  0.00    +0.292 HD
ENDBRANCH  59  64
ENDBRANCH  45  57
BRANCH  51  66
ATOM     66  O   UNL     1       2.724   7.108  24.076  0.00  0.00    -0.507 OA
ATOM     67  H   UNL     1       2.853   7.232  25.032  0.00  0.00    +0.292 HD
ENDBRANCH  51  66
BRANCH  49  68
ATOM     68  O   UNL     1       3.345   2.987  21.835  0.00  0.00    -0.506 OA
ATOM     69  H   UNL     1       3.958   2.686  21.135  0.00  0.00    +0.292 HD
ENDBRANCH  49  68
ENDBRANCH  44  55
ENDBRANCH   1  44
TORSDOF 24
ENDMDL
MODEL 5
REMARK VINA RESULT:      -7.0      1.893      3.623
REMARK  Name = 
REMARK  24 active torsions:
REMARK  status: ('A' for Active; 'I' for Inactive)
REMARK    1  A    between atoms: C_3  and  O_70
REMARK    2  A    between atoms: C_4  and  O_69
REMARK    3  A    between atoms: C_6  and  C_7
REMARK    4  A    between atoms: C_8  and  O_20
REMARK    5  A    between atoms: C_12  and  O_19
REMARK    6  A    between atoms: C_14  and  O_18
REMARK    7  A    between atoms: O_20  and  C_21
REMARK    8  A    between atoms: C_23  and  O_68
REMARK    9  A    between atoms: C_25  and  O_67
REMARK   10  A    between atoms: C_27  and  O_66
REMARK   11  A    between atoms: C_29  and  C_32
REMARK   12  A    between atoms: C_32  and  O_33
REMARK   13  A    between atoms: O_33  and  C_34
REMARK   14  A    between atoms: C_36  and  O_65
REMARK   15  A    between atoms: C_38  and  O_64
REMARK   16  A    between atoms: C_40  and  O_63
REMARK   17  A    between atoms: C_42  and  C_45
REMARK   18  A    between atoms: C_45  and  O_46
REMARK   19  A    between atoms: O_46  and  C_47
REMARK   20  A    between atoms: C_49  and  O_62
REMARK   21  A    between atoms: C_51  and  O_61
REMARK   22  A    between atoms: C_53  and  O_60
REMARK   23  A    between atoms: C_55  and  C_58
REMARK   24  A    between atoms: C_58  and  O_59
REMARK                            x       y       z     vdW  Elec       q    Type
REMARK                         _______ _______ _______ _____ _____    ______ ____
ROOT
ATOM      1  C   UNL     1       7.521   0.861  22.789  0.00  0.00    +0.340 C 
ATOM      2  O   UNL     1       7.120  -0.495  22.477  0.00  0.00    -0.331 OA
ATOM      3  C   UNL     1       8.033  -1.571  22.182  0.00  0.00    +0.179 C 
ATOM      4  C   UNL     1       9.524  -1.394  22.555  0.00  0.00    +0.177 C 
ATOM      5  C   UNL     1       9.704  -0.191  23.471  0.00  0.00    +0.180 C 
ATOM      6  C   UNL     1       9.046   1.039  22.821  0.00  0.00    +0.214 C 
ENDROOT
BRANCH   6   7
ATOM      7  O   UNL     1       9.582   1.266  21.505  0.00  0.00    -0.383 OA
ATOM      8  H   UNL     1       8.959   0.906  20.841  0.00  0.00    +0.210 HD
ENDBRANCH   6   7
BRANCH   5   9
ATOM      9  O   UNL     1       9.198  -0.510  24.767  0.00  0.00    -0.386 OA
ATOM     10  H   UNL     1       8.331  -0.074  24.889  0.00  0.00    +0.210 HD
ENDBRANCH   5   9
BRANCH   4  11
ATOM     11  O   UNL     1      10.268  -1.230  21.332  0.00  0.00    -0.386 OA
ATOM     12  H   UNL     1      11.084  -0.729  21.527  0.00  0.00    +0.210 HD
ENDBRANCH   4  11
BRANCH   3  13
ATOM     13  C   UNL     1       7.461  -2.820  22.896  0.00  0.00    +0.197 C 
BRANCH  13  14
ATOM     14  O   UNL     1       8.149  -3.190  24.109  0.00  0.00    -0.346 OA
BRANCH  14  15
ATOM     15  C   UNL     1       8.322  -4.596  24.300  0.00  0.00    +0.282 C 
ATOM     16  O   UNL     1       7.098  -5.262  24.618  0.00  0.00    -0.341 OA
ATOM     17  C   UNL     1       6.468  -4.975  25.868  0.00  0.00    +0.178 C 
ATOM     18  C   UNL     1       7.466  -4.746  27.063  0.00  0.00    +0.177 C 
ATOM     19  C   UNL     1       8.913  -4.312  26.710  0.00  0.00    +0.179 C 
ATOM     20  C   UNL     1       9.375  -4.904  25.373  0.00  0.00    +0.201 C 
BRANCH  20  21
ATOM     21  O   UNL     1       9.598  -6.315  25.501  0.00  0.00    -0.384 OA
ATOM     22  H   UNL     1      10.066  -6.616  24.697  0.00  0.00    +0.210 HD
ENDBRANCH  20  21
BRANCH  19  23
ATOM     23  O   UNL     1       9.051  -2.895  26.816  0.00  0.00    -0.386 OA
ATOM     24  H   UNL     1       8.602  -2.471  26.065  0.00  0.00    +0.210 HD
ENDBRANCH  19  23
BRANCH  18  25
ATOM     25  O   UNL     1       7.610  -6.037  27.712  0.00  0.00    -0.386 OA
ATOM     26  H   UNL     1       7.774  -6.704  27.016  0.00  0.00    +0.210 HD
ENDBRANCH  18  25
BRANCH  17  27
ATOM     27  C   UNL     1       5.302  -3.964  25.657  0.00  0.00    +0.197 C 
BRANCH  27  28
ATOM     28  O   UNL     1       4.495  -4.234  24.477  0.00  0.00    -0.346 OA
BRANCH  28  29
ATOM     29  C   UNL     1       3.118  -4.606  24.660  0.00  0.00    +0.282 C 
ATOM     30  O   UNL     1       2.878  -5.009  26.000  0.00  0.00    -0.341 OA
ATOM     31  C   UNL     1       3.035  -6.390  26.355  0.00  0.00    +0.178 C 
ATOM     32  C   UNL     1       3.561  -7.413  25.317  0.00  0.00    +0.177 C 
ATOM     33  C   UNL     1       3.519  -6.976  23.846  0.00  0.00    +0.179 C 
ATOM     34  C   UNL     1       2.719  -5.696  23.623  0.00  0.00    +0.201 C 
BRANCH  34  35
ATOM     35  O   UNL     1       1.321  -6.016  23.661  0.00  0.00    -0.384 OA
ATOM     36  H   UNL     1       1.073  -6.162  24.591  0.00  0.00    +0.210 HD
ENDBRANCH  34  35
BRANCH  33  37
ATOM     37  O   UNL     1       4.856  -6.785  23.346  0.00  0.00    -0.386 OA
ATOM     38  H   UNL     1       4.786  -6.248  22.529  0.00  0.00    +0.210 HD
ENDBRANCH  33  37
BRANCH  32  39
ATOM     39  O   UNL     1       2.844  -8.660  25.496  0.00  0.00    -0.386 OA
ATOM     40  H   UNL     1       1.929  -8.542  25.186  0.00  0.00    +0.210 HD
ENDBRANCH  32  39
BRANCH  31  41
ATOM     41  C   UNL     1       3.919  -6.444  27.618  0.00  0.00    +0.190 C 
BRANCH  41  42
ATOM     42  O   UNL     1       4.866  -7.507  27.563  0.00  0.00    -0.392 OA
ATOM     43  H   UNL     1       5.637  -7.251  28.113  0.00  0.00    +0.210 HD
ENDBRANCH  41  42
ENDBRANCH  31  41
ENDBRANCH  28  29
ENDBRANCH  27  28
ENDBRANCH  17  27
ENDBRANCH  14  15
ENDBRANCH  13  14
ENDBRANCH   3  13
BRANCH   1  44
ATOM     44  O   UNL     1       6.989   1.167  24.110  0.00  0.00    -0.453 OA
BRANCH  44  55
ATOM     45  C   UNL     1       5.514   2.291  25.627  0.00  0.00    +0.181 A 
ATOM     46  O   UNL     1       4.410   3.058  25.971  0.00  0.00    -0.451 OA
ATOM     47  C   UNL     1       3.619   3.609  25.015  0.00  0.00    +0.147 A 
ATOM     48  C   UNL     1       3.955   3.612  23.672  0.00  0.00    +0.109 A 
ATOM     49  C   UNL     1       3.127   4.354  22.808  0.00  0.00    +0.135 A 
ATOM     50  C   UNL     1       1.960   4.977  23.278  0.00  0.00    +0.091 A 
ATOM     51  C   UNL     1       1.604   4.860  24.613  0.00  0.00    +0.124 A 
ATOM     52  C   UNL     1       5.158   2.815  23.269  0.00  0.00    +0.238 A 
ATOM     53  O   UNL     1       5.500   2.814  22.080  0.00  0.00    -0.283 OA
ATOM     54  C   UNL     1       2.442   4.196  25.495  0.00  0.00    +0.092 A 
ATOM     55  C   UNL     1       5.924   2.051  24.357  0.00  0.00    +0.214 A 
BRANCH  45  57
ATOM     56  C   UNL     1       5.815   2.334  28.163  0.00  0.00    +0.015 A 
ATOM     57  C   UNL     1       6.085   1.737  26.917  0.00  0.00    +0.025 A 
ATOM     58  C   UNL     1       7.134   0.777  26.853  0.00  0.00    +0.060 A 
ATOM     59  C   UNL     1       7.933   0.501  27.957  0.00  0.00    +0.159 A 
ATOM     60  C   UNL     1       7.711   1.199  29.163  0.00  0.00    +0.158 A 
ATOM     61  C   UNL     1       6.629   2.056  29.270  0.00  0.00    +0.050 A 
BRANCH  60  62
ATOM     62  O   UNL     1       8.609   0.992  30.172  0.00  0.00    -0.503 OA
ATOM     63  H   UNL     1       8.397   0.139  30.588  0.00  0.00    +0.292 HD
ENDBRANCH  60  62
BRANCH  59  64
ATOM     64  O   UNL     1       8.975  -0.377  27.868  0.00  0.00    -0.503 OA
ATOM     65  H   UNL     1       9.741   0.169  27.603  0.00  0.00    +0.292 HD
ENDBRANCH  59  64
ENDBRANCH  45  57
BRANCH  51  66
ATOM     66  O   UNL     1       0.443   5.373  25.103  0.00  0.00    -0.507 OA
ATOM     67  H   UNL     1      -0.307   4.870  24.742  0.00  0.00    +0.292 HD
ENDBRANCH  51  66
BRANCH  49  68
ATOM     68  O   UNL     1       3.357   4.532  21.471  0.00  0.00    -0.506 OA
ATOM     69  H   UNL     1       3.010   3.761  20.980  0.00  0.00    +0.292 HD
ENDBRANCH  49  68
ENDBRANCH  44  55
ENDBRANCH   1  44
TORSDOF 24
ENDMDL
MODEL 6
REMARK VINA RESULT:      -6.9      2.697      8.458
REMARK  Name = 
REMARK  24 active torsions:
REMARK  status: ('A' for Active; 'I' for Inactive)
REMARK    1  A    between atoms: C_3  and  O_70
REMARK    2  A    between atoms: C_4  and  O_69
REMARK    3  A    between atoms: C_6  and  C_7
REMARK    4  A    between atoms: C_8  and  O_20
REMARK    5  A    between atoms: C_12  and  O_19
REMARK    6  A    between atoms: C_14  and  O_18
REMARK    7  A    between atoms: O_20  and  C_21
REMARK    8  A    between atoms: C_23  and  O_68
REMARK    9  A    between atoms: C_25  and  O_67
REMARK   10  A    between atoms: C_27  and  O_66
REMARK   11  A    between atoms: C_29  and  C_32
REMARK   12  A    between atoms: C_32  and  O_33
REMARK   13  A    between atoms: O_33  and  C_34
REMARK   14  A    between atoms: C_36  and  O_65
REMARK   15  A    between atoms: C_38  and  O_64
REMARK   16  A    between atoms: C_40  and  O_63
REMARK   17  A    between atoms: C_42  and  C_45
REMARK   18  A    between atoms: C_45  and  O_46
REMARK   19  A    between atoms: O_46  and  C_47
REMARK   20  A    between atoms: C_49  and  O_62
REMARK   21  A    between atoms: C_51  and  O_61
REMARK   22  A    between atoms: C_53  and  O_60
REMARK   23  A    between atoms: C_55  and  C_58
REMARK   24  A    between atoms: C_58  and  O_59
REMARK                            x       y       z     vdW  Elec       q    Type
REMARK                         _______ _______ _______ _____ _____    ______ ____
ROOT
ATOM      1  C   UNL     1       5.234   0.548  26.316  0.00  0.00    +0.340 C 
ATOM      2  O   UNL     1       4.767   1.904  26.111  0.00  0.00    -0.331 OA
ATOM      3  C   UNL     1       4.992   2.994  27.027  0.00  0.00    +0.179 C 
ATOM      4  C   UNL     1       6.080   2.828  28.115  0.00  0.00    +0.177 C 
ATOM      5  C   UNL     1       6.951   1.615  27.816  0.00  0.00    +0.180 C 
ATOM      6  C   UNL     1       6.048   0.386  27.608  0.00  0.00    +0.214 C 
ENDROOT
BRANCH   6   7
ATOM      7  O   UNL     1       5.196   0.183  28.749  0.00  0.00    -0.383 OA
ATOM      8  H   UNL     1       4.731  -0.674  28.652  0.00  0.00    +0.210 HD
ENDBRANCH   6   7
BRANCH   5   9
ATOM      9  O   UNL     1       7.801   1.911  26.709  0.00  0.00    -0.386 OA
ATOM     10  H   UNL     1       7.359   1.637  25.881  0.00  0.00    +0.210 HD
ENDBRANCH   5   9
BRANCH   4  11
ATOM     11  O   UNL     1       5.415   2.689  29.385  0.00  0.00    -0.386 OA
ATOM     12  H   UNL     1       6.088   2.506  30.072  0.00  0.00    +0.210 HD
ENDBRANCH   4  11
BRANCH   3  13
ATOM     13  C   UNL     1       5.315   4.227  26.148  0.00  0.00    +0.197 C 
BRANCH  13  14
ATOM     14  O   UNL     1       6.083   3.937  24.962  0.00  0.00    -0.346 OA
BRANCH  14  15
ATOM     15  C   UNL     1       7.246   4.749  24.783  0.00  0.00    +0.282 C 
ATOM     16  O   UNL     1       6.926   6.120  24.533  0.00  0.00    -0.341 OA
ATOM     17  C   UNL     1       6.267   6.456  23.312  0.00  0.00    +0.178 C 
ATOM     18  C   UNL     1       6.732   5.614  22.066  0.00  0.00    +0.177 C 
ATOM     19  C   UNL     1       7.374   4.229  22.343  0.00  0.00    +0.179 C 
ATOM     20  C   UNL     1       8.151   4.215  23.664  0.00  0.00    +0.201 C 
BRANCH  20  21
ATOM     21  O   UNL     1       9.353   4.990  23.546  0.00  0.00    -0.384 OA
ATOM     22  H   UNL     1       9.351   5.408  22.662  0.00  0.00    +0.210 HD
ENDBRANCH  20  21
BRANCH  19  23
ATOM     23  O   UNL     1       6.403   3.191  22.211  0.00  0.00    -0.386 OA
ATOM     24  H   UNL     1       6.852   2.355  22.001  0.00  0.00    +0.210 HD
ENDBRANCH  19  23
BRANCH  18  25
ATOM     25  O   UNL     1       7.780   6.392  21.430  0.00  0.00    -0.386 OA
ATOM     26  H   UNL     1       8.396   6.690  22.128  0.00  0.00    +0.210 HD
ENDBRANCH  18  25
BRANCH  17  27
ATOM     27  C   UNL     1       4.742   6.648  23.564  0.00  0.00    +0.197 C 
BRANCH  27  28
ATOM     28  O   UNL     1       3.925   5.533  23.107  0.00  0.00    -0.346 OA
BRANCH  28  29
ATOM     29  C   UNL     1       2.533   5.770  22.840  0.00  0.00    +0.282 C 
ATOM     30  O   UNL     1       1.735   5.402  23.955  0.00  0.00    -0.341 OA
ATOM     31  C   UNL     1       1.230   4.063  24.043  0.00  0.00    +0.178 C 
ATOM     32  C   UNL     1       1.634   3.000  22.992  0.00  0.00    +0.177 C 
ATOM     33  C   UNL     1       2.244   3.528  21.685  0.00  0.00    +0.179 C 
ATOM     34  C   UNL     1       2.111   5.040  21.531  0.00  0.00    +0.201 C 
BRANCH  34  35
ATOM     35  O   UNL     1       0.767   5.345  21.132  0.00  0.00    -0.384 OA
ATOM     36  H   UNL     1       0.621   6.297  21.275  0.00  0.00    +0.210 HD
ENDBRANCH  34  35
BRANCH  33  37
ATOM     37  O   UNL     1       3.636   3.171  21.607  0.00  0.00    -0.386 OA
ATOM     38  H   UNL     1       3.819   2.919  20.677  0.00  0.00    +0.210 HD
ENDBRANCH  33  37
BRANCH  32  39
ATOM     39  O   UNL     1       0.480   2.167  22.711  0.00  0.00    -0.386 OA
ATOM     40  H   UNL     1       0.056   1.928  23.554  0.00  0.00    +0.210 HD
ENDBRANCH  32  39
BRANCH  31  41
ATOM     41  C   UNL     1       1.562   3.536  25.454  0.00  0.00    +0.190 C 
BRANCH  41  42
ATOM     42  O   UNL     1       1.905   2.153  25.442  0.00  0.00    -0.392 OA
ATOM     43  H   UNL     1       2.812   2.065  25.806  0.00  0.00    +0.210 HD
ENDBRANCH  41  42
ENDBRANCH  31  41
ENDBRANCH  28  29
ENDBRANCH  27  28
ENDBRANCH  17  27
ENDBRANCH  14  15
ENDBRANCH  13  14
ENDBRANCH   3  13
BRANCH   1  44
ATOM     44  O   UNL     1       6.089   0.219  25.183  0.00  0.00    -0.453 OA
BRANCH  44  55
ATOM     45  C   UNL     1       7.382  -1.423  24.011  0.00  0.00    +0.181 A 
ATOM     46  O   UNL     1       7.584  -2.626  23.349  0.00  0.00    -0.451 OA
ATOM     47  C   UNL     1       6.590  -3.545  23.255  0.00  0.00    +0.147 A 
ATOM     48  C   UNL     1       5.402  -3.442  23.959  0.00  0.00    +0.109 A 
ATOM     49  C   UNL     1       4.524  -4.540  23.893  0.00  0.00    +0.135 A 
ATOM     50  C   UNL     1       4.800  -5.645  23.072  0.00  0.00    +0.091 A 
ATOM     51  C   UNL     1       5.954  -5.660  22.302  0.00  0.00    +0.124 A 
ATOM     52  C   UNL     1       5.162  -2.166  24.707  0.00  0.00    +0.238 A 
ATOM     53  O   UNL     1       4.121  -2.049  25.364  0.00  0.00    -0.283 OA
ATOM     54  C   UNL     1       6.868  -4.623  22.406  0.00  0.00    +0.092 A 
ATOM     55  C   UNL     1       6.233  -1.069  24.639  0.00  0.00    +0.214 A 
BRANCH  45  57
ATOM     56  C   UNL     1       9.531  -0.347  24.875  0.00  0.00    +0.015 A 
ATOM     57  C   UNL     1       8.636  -0.596  23.816  0.00  0.00    +0.025 A 
ATOM     58  C   UNL     1       8.778   0.179  22.631  0.00  0.00    +0.060 A 
ATOM     59  C   UNL     1       9.703   1.213  22.545  0.00  0.00    +0.159 A 
ATOM     60  C   UNL     1      10.509   1.514  23.664  0.00  0.00    +0.158 A 
ATOM     61  C   UNL     1      10.457   0.702  24.784  0.00  0.00    +0.050 A 
BRANCH  60  62
ATOM     62  O   UNL     1      11.301   2.624  23.577  0.00  0.00    -0.503 OA
ATOM     63  H   UNL     1      11.700   2.774  24.450  0.00  0.00    +0.292 HD
ENDBRANCH  60  62
BRANCH  59  64
ATOM     64  O   UNL     1       9.789   1.989  21.425  0.00  0.00    -0.503 OA
ATOM     65  H   UNL     1       9.240   1.528  20.759  0.00  0.00    +0.292 HD
ENDBRANCH  59  64
ENDBRANCH  45  57
BRANCH  51  66
ATOM     66  O   UNL     1       6.230  -6.666  21.428  0.00  0.00    -0.507 OA
ATOM     67  H   UNL     1       6.150  -7.520  21.886  0.00  0.00    +0.292 HD
ENDBRANCH  51  66
BRANCH  49  68
ATOM     68  O   UNL     1       3.349  -4.641  24.589  0.00  0.00    -0.506 OA
ATOM     69  H   UNL     1       3.129  -3.769  24.974  0.00  0.00    +0.292 HD
ENDBRANCH  49  68
ENDBRANCH  44  55
ENDBRANCH   1  44
TORSDOF 24
ENDMDL
MODEL 7
REMARK VINA RESULT:      -6.8      2.260      4.767
REMARK  Name = 
REMARK  24 active torsions:
REMARK  status: ('A' for Active; 'I' for Inactive)
REMARK    1  A    between atoms: C_3  and  O_70
REMARK    2  A    between atoms: C_4  and  O_69
REMARK    3  A    between atoms: C_6  and  C_7
REMARK    4  A    between atoms: C_8  and  O_20
REMARK    5  A    between atoms: C_12  and  O_19
REMARK    6  A    between atoms: C_14  and  O_18
REMARK    7  A    between atoms: O_20  and  C_21
REMARK    8  A    between atoms: C_23  and  O_68
REMARK    9  A    between atoms: C_25  and  O_67
REMARK   10  A    between atoms: C_27  and  O_66
REMARK   11  A    between atoms: C_29  and  C_32
REMARK   12  A    between atoms: C_32  and  O_33
REMARK   13  A    between atoms: O_33  and  C_34
REMARK   14  A    between atoms: C_36  and  O_65
REMARK   15  A    between atoms: C_38  and  O_64
REMARK   16  A    between atoms: C_40  and  O_63
REMARK   17  A    between atoms: C_42  and  C_45
REMARK   18  A    between atoms: C_45  and  O_46
REMARK   19  A    between atoms: O_46  and  C_47
REMARK   20  A    between atoms: C_49  and  O_62
REMARK   21  A    between atoms: C_51  and  O_61
REMARK   22  A    between atoms: C_53  and  O_60
REMARK   23  A    between atoms: C_55  and  C_58
REMARK   24  A    between atoms: C_58  and  O_59
REMARK                            x       y       z     vdW  Elec       q    Type
REMARK                         _______ _______ _______ _____ _____    ______ ____
ROOT
ATOM      1  C   UNL     1       7.690   0.309  24.716  0.00  0.00    +0.340 C 
ATOM      2  O   UNL     1       6.623  -0.622  25.019  0.00  0.00    -0.331 OA
ATOM      3  C   UNL     1       6.773  -1.799  25.838  0.00  0.00    +0.179 C 
ATOM      4  C   UNL     1       8.024  -1.913  26.740  0.00  0.00    +0.177 C 
ATOM      5  C   UNL     1       8.744  -0.573  26.824  0.00  0.00    +0.180 C 
ATOM      6  C   UNL     1       9.014  -0.058  25.400  0.00  0.00    +0.214 C 
ENDROOT
BRANCH   6   7
ATOM      7  O   UNL     1       9.753  -1.031  24.640  0.00  0.00    -0.383 OA
ATOM      8  H   UNL     1       9.331  -1.138  23.762  0.00  0.00    +0.210 HD
ENDBRANCH   6   7
BRANCH   5   9
ATOM      9  O   UNL     1       7.978   0.319  27.634  0.00  0.00    -0.386 OA
ATOM     10  H   UNL     1       7.089  -0.061  27.779  0.00  0.00    +0.210 HD
ENDBRANCH   5   9
BRANCH   4  11
ATOM     11  O   UNL     1       8.881  -2.927  26.180  0.00  0.00    -0.386 OA
ATOM     12  H   UNL     1       9.078  -3.587  26.875  0.00  0.00    +0.210 HD
ENDBRANCH   4  11
BRANCH   3  13
ATOM     13  C   UNL     1       5.493  -1.876  26.706  0.00  0.00    +0.197 C 
BRANCH  13  14
ATOM     14  O   UNL     1       4.929  -3.199  26.833  0.00  0.00    -0.346 OA
BRANCH  14  15
ATOM     15  C   UNL     1       4.950  -3.739  28.156  0.00  0.00    +0.282 C 
ATOM     16  O   UNL     1       6.107  -4.541  28.404  0.00  0.00    -0.341 OA
ATOM     17  C   UNL     1       6.252  -5.770  27.693  0.00  0.00    +0.178 C 
ATOM     18  C   UNL     1       4.905  -6.549  27.455  0.00  0.00    +0.177 C 
ATOM     19  C   UNL     1       3.591  -5.725  27.489  0.00  0.00    +0.179 C 
ATOM     20  C   UNL     1       3.682  -4.547  28.465  0.00  0.00    +0.201 C 
BRANCH  20  21
ATOM     21  O   UNL     1       3.677  -5.017  29.820  0.00  0.00    -0.384 OA
ATOM     22  H   UNL     1       2.745  -5.095  30.105  0.00  0.00    +0.210 HD
ENDBRANCH  20  21
BRANCH  19  23
ATOM     23  O   UNL     1       3.185  -5.375  26.166  0.00  0.00    -0.386 OA
ATOM     24  H   UNL     1       2.403  -4.800  26.211  0.00  0.00    +0.210 HD
ENDBRANCH  19  23
BRANCH  18  25
ATOM     25  O   UNL     1       4.789  -7.485  28.559  0.00  0.00    -0.386 OA
ATOM     26  H   UNL     1       4.869  -6.978  29.391  0.00  0.00    +0.210 HD
ENDBRANCH  18  25
BRANCH  17  27
ATOM     27  C   UNL     1       7.233  -5.583  26.498  0.00  0.00    +0.197 C 
BRANCH  27  28
ATOM     28  O   UNL     1       6.613  -5.010  25.312  0.00  0.00    -0.346 OA
BRANCH  28  29
ATOM     29  C   UNL     1       6.768  -5.698  24.059  0.00  0.00    +0.282 C 
ATOM     30  O   UNL     1       7.754  -5.068  23.255  0.00  0.00    -0.341 OA
ATOM     31  C   UNL     1       7.359  -4.031  22.347  0.00  0.00    +0.178 C 
ATOM     32  C   UNL     1       5.893  -3.530  22.317  0.00  0.00    +0.177 C 
ATOM     33  C   UNL     1       4.848  -4.435  22.983  0.00  0.00    +0.179 C 
ATOM     34  C   UNL     1       5.391  -5.814  23.342  0.00  0.00    +0.201 C 
BRANCH  34  35
ATOM     35  O   UNL     1       5.449  -6.610  22.149  0.00  0.00    -0.384 OA
ATOM     36  H   UNL     1       5.414  -7.546  22.412  0.00  0.00    +0.210 HD
ENDBRANCH  34  35
BRANCH  33  37
ATOM     37  O   UNL     1       4.337  -3.809  24.175  0.00  0.00    -0.386 OA
ATOM     38  H   UNL     1       5.043  -3.223  24.522  0.00  0.00    +0.210 HD
ENDBRANCH  33  37
BRANCH  32  39
ATOM     39  O   UNL     1       5.527  -3.262  20.939  0.00  0.00    -0.386 OA
ATOM     40  H   UNL     1       4.787  -3.844  20.694  0.00  0.00    +0.210 HD
ENDBRANCH  32  39
BRANCH  31  41
ATOM     41  C   UNL     1       8.303  -2.833  22.576  0.00  0.00    +0.190 C 
BRANCH  41  42
ATOM     42  O   UNL     1       7.676  -1.591  22.266  0.00  0.00    -0.392 OA
ATOM     43  H   UNL     1       7.936  -1.343  21.353  0.00  0.00    +0.210 HD
ENDBRANCH  41  42
ENDBRANCH  31  41
ENDBRANCH  28  29
ENDBRANCH  27  28
ENDBRANCH  17  27
ENDBRANCH  14  15
ENDBRANCH  13  14
ENDBRANCH   3  13
BRANCH   1  44
ATOM     44  O   UNL     1       7.263   1.615  25.200  0.00  0.00    -0.453 OA
BRANCH  44  55
ATOM     45  C   UNL     1       6.859   3.426  23.682  0.00  0.00    +0.181 A 
ATOM     46  O   UNL     1       6.082   4.384  23.047  0.00  0.00    -0.451 OA
ATOM     47  C   UNL     1       4.743   4.449  23.260  0.00  0.00    +0.147 A 
ATOM     48  C   UNL     1       4.044   3.472  23.948  0.00  0.00    +0.109 A 
ATOM     49  C   UNL     1       2.640   3.581  23.960  0.00  0.00    +0.135 A 
ATOM     50  C   UNL     1       1.991   4.684  23.383  0.00  0.00    +0.091 A 
ATOM     51  C   UNL     1       2.739   5.694  22.794  0.00  0.00    +0.124 A 
ATOM     52  C   UNL     1       4.850   2.406  24.624  0.00  0.00    +0.238 A 
ATOM     53  O   UNL     1       4.256   1.505  25.230  0.00  0.00    -0.283 OA
ATOM     54  C   UNL     1       4.116   5.573  22.707  0.00  0.00    +0.092 A 
ATOM     55  C   UNL     1       6.379   2.470  24.517  0.00  0.00    +0.214 A 
BRANCH  45  57
ATOM     56  C   UNL     1       9.158   2.716  22.826  0.00  0.00    +0.015 A 
ATOM     57  C   UNL     1       8.301   3.718  23.323  0.00  0.00    +0.025 A 
ATOM     58  C   UNL     1       8.889   4.941  23.755  0.00  0.00    +0.060 A 
ATOM     59  C   UNL     1      10.267   5.116  23.778  0.00  0.00    +0.159 A 
ATOM     60  C   UNL     1      11.106   4.053  23.381  0.00  0.00    +0.158 A 
ATOM     61  C   UNL     1      10.548   2.898  22.859  0.00  0.00    +0.050 A 
BRANCH  60  62
ATOM     62  O   UNL     1      12.451   4.227  23.553  0.00  0.00    -0.503 OA
ATOM     63  H   UNL     1      12.868   3.349  23.540  0.00  0.00    +0.292 HD
ENDBRANCH  60  62
BRANCH  59  64
ATOM     64  O   UNL     1      10.822   6.271  24.251  0.00  0.00    -0.503 OA
ATOM     65  H   UNL     1      11.748   6.037  24.459  0.00  0.00    +0.292 HD
ENDBRANCH  59  64
ENDBRANCH  45  57
BRANCH  51  66
ATOM     66  O   UNL     1       2.167   6.823  22.295  0.00  0.00    -0.507 OA
ATOM     67  H   UNL     1       2.750   7.582  22.468  0.00  0.00    +0.292 HD
ENDBRANCH  51  66
BRANCH  49  68
ATOM     68  O   UNL     1       1.792   2.664  24.520  0.00  0.00    -0.506 OA
ATOM     69  H   UNL     1       0.870   2.908  24.307  0.00  0.00    +0.292 HD
ENDBRANCH  49  68
ENDBRANCH  44  55
ENDBRANCH   1  44
TORSDOF 24
ENDMDL
MODEL 8
REMARK VINA RESULT:      -6.7      1.940      5.834
REMARK  Name = 
REMARK  24 active torsions:
REMARK  status: ('A' for Active; 'I' for Inactive)
REMARK    1  A    between atoms: C_3  and  O_70
REMARK    2  A    between atoms: C_4  and  O_69
REMARK    3  A    between atoms: C_6  and  C_7
REMARK    4  A    between atoms: C_8  and  O_20
REMARK    5  A    between atoms: C_12  and  O_19
REMARK    6  A    between atoms: C_14  and  O_18
REMARK    7  A    between atoms: O_20  and  C_21
REMARK    8  A    between atoms: C_23  and  O_68
REMARK    9  A    between atoms: C_25  and  O_67
REMARK   10  A    between atoms: C_27  and  O_66
REMARK   11  A    between atoms: C_29  and  C_32
REMARK   12  A    between atoms: C_32  and  O_33
REMARK   13  A    between atoms: O_33  and  C_34
REMARK   14  A    between atoms: C_36  and  O_65
REMARK   15  A    between atoms: C_38  and  O_64
REMARK   16  A    between atoms: C_40  and  O_63
REMARK   17  A    between atoms: C_42  and  C_45
REMARK   18  A    between atoms: C_45  and  O_46
REMARK   19  A    between atoms: O_46  and  C_47
REMARK   20  A    between atoms: C_49  and  O_62
REMARK   21  A    between atoms: C_51  and  O_61
REMARK   22  A    between atoms: C_53  and  O_60
REMARK   23  A    between atoms: C_55  and  C_58
REMARK   24  A    between atoms: C_58  and  O_59
REMARK                            x       y       z     vdW  Elec       q    Type
REMARK                         _______ _______ _______ _____ _____    ______ ____
ROOT
ATOM      1  C   UNL     1       6.991   2.030  26.270  0.00  0.00    +0.340 C 
ATOM      2  O   UNL     1       7.035   0.590  26.127  0.00  0.00    -0.331 OA
ATOM      3  C   UNL     1       5.985  -0.306  26.542  0.00  0.00    +0.179 C 
ATOM      4  C   UNL     1       4.585   0.285  26.831  0.00  0.00    +0.177 C 
ATOM      5  C   UNL     1       4.494   1.715  26.315  0.00  0.00    +0.180 C 
ATOM      6  C   UNL     1       5.673   2.529  26.877  0.00  0.00    +0.214 C 
ENDROOT
BRANCH   6   7
ATOM      7  O   UNL     1       5.693   2.465  28.315  0.00  0.00    -0.383 OA
ATOM      8  H   UNL     1       6.480   2.946  28.645  0.00  0.00    +0.210 HD
ENDBRANCH   6   7
BRANCH   5   9
ATOM      9  O   UNL     1       4.426   1.693  24.889  0.00  0.00    -0.386 OA
ATOM     10  H   UNL     1       5.330   1.765  24.522  0.00  0.00    +0.210 HD
ENDBRANCH   5   9
BRANCH   4  11
ATOM     11  O   UNL     1       4.370   0.234  28.255  0.00  0.00    -0.386 OA
ATOM     12  H   UNL     1       4.054   1.110  28.555  0.00  0.00    +0.210 HD
ENDBRANCH   4  11
BRANCH   3  13
ATOM     13  C   UNL     1       5.880  -1.380  25.432  0.00  0.00    +0.197 C 
BRANCH  13  14
ATOM     14  O   UNL     1       6.476  -2.652  25.764  0.00  0.00    -0.346 OA
BRANCH  14  15
ATOM     15  C   UNL     1       7.277  -3.231  24.732  0.00  0.00    +0.282 C 
ATOM     16  O   UNL     1       6.979  -4.612  24.515  0.00  0.00    -0.341 OA
ATOM     17  C   UNL     1       7.291  -5.548  25.547  0.00  0.00    +0.178 C 
ATOM     18  C   UNL     1       8.621  -5.239  26.328  0.00  0.00    +0.177 C 
ATOM     19  C   UNL     1       9.131  -3.773  26.314  0.00  0.00    +0.179 C 
ATOM     20  C   UNL     1       8.777  -3.060  25.005  0.00  0.00    +0.201 C 
BRANCH  20  21
ATOM     21  O   UNL     1       9.570  -3.573  23.925  0.00  0.00    -0.384 OA
ATOM     22  H   UNL     1       9.262  -3.146  23.101  0.00  0.00    +0.210 HD
ENDBRANCH  20  21
BRANCH  19  23
ATOM     23  O   UNL     1       8.718  -3.088  27.498  0.00  0.00    -0.386 OA
ATOM     24  H   UNL     1       9.104  -3.527  28.274  0.00  0.00    +0.210 HD
ENDBRANCH  19  23
BRANCH  18  25
ATOM     25  O   UNL     1       9.660  -6.002  25.660  0.00  0.00    -0.386 OA
ATOM     26  H   UNL     1       9.672  -5.732  24.721  0.00  0.00    +0.210 HD
ENDBRANCH  18  25
BRANCH  17  27
ATOM     27  C   UNL     1       6.007  -5.896  26.357  0.00  0.00    +0.197 C 
BRANCH  27  28
ATOM     28  O   UNL     1       4.875  -6.283  25.528  0.00  0.00    -0.346 OA
BRANCH  28  29
ATOM     29  C   UNL     1       3.599  -5.672  25.785  0.00  0.00    +0.282 C 
ATOM     30  O   UNL     1       2.555  -6.631  25.710  0.00  0.00    -0.341 OA
ATOM     31  C   UNL     1       1.906  -6.863  24.453  0.00  0.00    +0.178 C 
ATOM     32  C   UNL     1       2.406  -6.155  23.169  0.00  0.00    +0.177 C 
ATOM     33  C   UNL     1       3.322  -4.940  23.371  0.00  0.00    +0.179 C 
ATOM     34  C   UNL     1       3.382  -4.469  24.821  0.00  0.00    +0.201 C 
BRANCH  34  35
ATOM     35  O   UNL     1       2.188  -3.729  25.113  0.00  0.00    -0.384 OA
ATOM     36  H   UNL     1       2.377  -3.141  25.865  0.00  0.00    +0.210 HD
ENDBRANCH  34  35
BRANCH  33  37
ATOM     37  O   UNL     1       4.657  -5.244  22.923  0.00  0.00    -0.386 OA
ATOM     38  H   UNL     1       4.593  -5.517  21.983  0.00  0.00    +0.210 HD
ENDBRANCH  33  37
BRANCH  32  39
ATOM     39  O   UNL     1       1.254  -5.792  22.365  0.00  0.00    -0.386 OA
ATOM     40  H   UNL     1       0.908  -4.940  22.683  0.00  0.00    +0.210 HD
ENDBRANCH  32  39
BRANCH  31  41
ATOM     41  C   UNL     1       1.885  -8.387  24.219  0.00  0.00    +0.190 C 
BRANCH  41  42
ATOM     42  O   UNL     1       2.576  -9.096  25.243  0.00  0.00    -0.392 OA
ATOM     43  H   UNL     1       2.083  -9.925  25.420  0.00  0.00    +0.210 HD
ENDBRANCH  41  42
ENDBRANCH  31  41
ENDBRANCH  28  29
ENDBRANCH  27  28
ENDBRANCH  17  27
ENDBRANCH  14  15
ENDBRANCH  13  14
ENDBRANCH   3  13
BRANCH   1  44
ATOM     44  O   UNL     1       7.129   2.593  24.933  0.00  0.00    -0.453 OA
BRANCH  44  55
ATOM     45  C   UNL     1       8.985   2.595  23.416  0.00  0.00    +0.181 A 
ATOM     46  O   UNL     1      10.205   3.036  22.924  0.00  0.00    -0.451 OA
ATOM     47  C   UNL     1      10.835   4.104  23.475  0.00  0.00    +0.147 A 
ATOM     48  C   UNL     1      10.235   4.929  24.411  0.00  0.00    +0.109 A 
ATOM     49  C   UNL     1      10.939   6.090  24.783  0.00  0.00    +0.135 A 
ATOM     50  C   UNL     1      12.232   6.343  24.298  0.00  0.00    +0.091 A 
ATOM     51  C   UNL     1      12.838   5.434  23.443  0.00  0.00    +0.124 A 
ATOM     52  C   UNL     1       8.903   4.498  24.945  0.00  0.00    +0.238 A 
ATOM     53  O   UNL     1       8.329   5.223  25.766  0.00  0.00    -0.283 OA
ATOM     54  C   UNL     1      12.137   4.322  23.007  0.00  0.00    +0.092 A 
ATOM     55  C   UNL     1       8.304   3.182  24.432  0.00  0.00    +0.214 A 
BRANCH  45  57
ATOM     56  C   UNL     1       7.318   0.835  22.613  0.00  0.00    +0.015 A 
ATOM     57  C   UNL     1       8.637   1.327  22.664  0.00  0.00    +0.025 A 
ATOM     58  C   UNL     1       9.686   0.462  22.242  0.00  0.00    +0.060 A 
ATOM     59  C   UNL     1       9.438  -0.856  21.878  0.00  0.00    +0.159 A 
ATOM     60  C   UNL     1       8.119  -1.355  21.945  0.00  0.00    +0.158 A 
ATOM     61  C   UNL     1       7.076  -0.498  22.251  0.00  0.00    +0.050 A 
BRANCH  60  62
ATOM     62  O   UNL     1       7.950  -2.691  21.711  0.00  0.00    -0.503 OA
ATOM     63  H   UNL     1       7.362  -2.786  20.943  0.00  0.00    +0.292 HD
ENDBRANCH  60  62
BRANCH  59  64
ATOM     64  O   UNL     1      10.459  -1.694  21.531  0.00  0.00    -0.503 OA
ATOM     65  H   UNL     1      11.030  -1.733  22.324  0.00  0.00    +0.292 HD
ENDBRANCH  59  64
ENDBRANCH  45  57
BRANCH  51  66
ATOM     66  O   UNL     1      14.119   5.588  23.011  0.00  0.00    -0.507 OA
ATOM     67  H   UNL     1      14.279   4.992  22.259  0.00  0.00    +0.292 HD
ENDBRANCH  51  66
BRANCH  49  68
ATOM     68  O   UNL     1      10.460   7.054  25.629  0.00  0.00    -0.506 OA
ATOM     69  H   UNL     1      10.406   6.688  26.534  0.00  0.00    +0.292 HD
ENDBRANCH  49  68
ENDBRANCH  44  55
ENDBRANCH   1  44
TORSDOF 24
ENDMDL
MODEL 9
REMARK VINA RESULT:      -6.7      2.136      8.642
REMARK  Name = 
REMARK  24 active torsions:
REMARK  status: ('A' for Active; 'I' for Inactive)
REMARK    1  A    between atoms: C_3  and  O_70
REMARK    2  A    between atoms: C_4  and  O_69
REMARK    3  A    between atoms: C_6  and  C_7
REMARK    4  A    between atoms: C_8  and  O_20
REMARK    5  A    between atoms: C_12  and  O_19
REMARK    6  A    between atoms: C_14  and  O_18
REMARK    7  A    between atoms: O_20  and  C_21
REMARK    8  A    between atoms: C_23  and  O_68
REMARK    9  A    between atoms: C_25  and  O_67
REMARK   10  A    between atoms: C_27  and  O_66
REMARK   11  A    between atoms: C_29  and  C_32
REMARK   12  A    between atoms: C_32  and  O_33
REMARK   13  A    between atoms: O_33  and  C_34
REMARK   14  A    between atoms: C_36  and  O_65
REMARK   15  A    between atoms: C_38  and  O_64
REMARK   16  A    between atoms: C_40  and  O_63
REMARK   17  A    between atoms: C_42  and  C_45
REMARK   18  A    between atoms: C_45  and  O_46
REMARK   19  A    between atoms: O_46  and  C_47
REMARK   20  A    between atoms: C_49  and  O_62
REMARK   21  A    between atoms: C_51  and  O_61
REMARK   22  A    between atoms: C_53  and  O_60
REMARK   23  A    between atoms: C_55  and  C_58
REMARK   24  A    between atoms: C_58  and  O_59
REMARK                            x       y       z     vdW  Elec       q    Type
REMARK                         _______ _______ _______ _____ _____    ______ ____
ROOT
ATOM      1  C   UNL     1       6.585  -1.061  26.814  0.00  0.00    +0.340 C 
ATOM      2  O   UNL     1       5.610  -0.540  27.749  0.00  0.00    -0.331 OA
ATOM      3  C   UNL     1       5.757   0.691  28.484  0.00  0.00    +0.179 C 
ATOM      4  C   UNL     1       6.828   1.704  28.015  0.00  0.00    +0.177 C 
ATOM      5  C   UNL     1       7.343   1.332  26.630  0.00  0.00    +0.180 C 
ATOM      6  C   UNL     1       7.799  -0.137  26.642  0.00  0.00    +0.214 C 
ENDROOT
BRANCH   6   7
ATOM      7  O   UNL     1       8.782  -0.355  27.670  0.00  0.00    -0.383 OA
ATOM      8  H   UNL     1       8.986   0.500  28.103  0.00  0.00    +0.210 HD
ENDBRANCH   6   7
BRANCH   5   9
ATOM      9  O   UNL     1       6.335   1.624  25.663  0.00  0.00    -0.386 OA
ATOM     10  H   UNL     1       5.640   2.173  26.077  0.00  0.00    +0.210 HD
ENDBRANCH   5   9
BRANCH   4  11
ATOM     11  O   UNL     1       7.894   1.699  28.983  0.00  0.00    -0.386 OA
ATOM     12  H   UNL     1       7.537   1.997  29.843  0.00  0.00    +0.210 HD
ENDBRANCH   4  11
BRANCH   3  13
ATOM     13  C   UNL     1       4.362   1.361  28.472  0.00  0.00    +0.197 C 
BRANCH  13  14
ATOM     14  O   UNL     1       4.133   2.260  27.366  0.00  0.00    -0.346 OA
BRANCH  14  15
ATOM     15  C   UNL     1       3.224   1.779  26.375  0.00  0.00    +0.282 C 
ATOM     16  O   UNL     1       3.432   2.384  25.097  0.00  0.00    -0.341 OA
ATOM     17  C   UNL     1       3.157   3.778  24.949  0.00  0.00    +0.178 C 
ATOM     18  C   UNL     1       1.911   4.288  25.765  0.00  0.00    +0.177 C 
ATOM     19  C   UNL     1       1.479   3.453  26.999  0.00  0.00    +0.179 C 
ATOM     20  C   UNL     1       1.761   1.959  26.803  0.00  0.00    +0.201 C 
BRANCH  20  21
ATOM     21  O   UNL     1       0.858   1.401  25.838  0.00  0.00    -0.384 OA
ATOM     22  H   UNL     1       0.852   0.431  25.963  0.00  0.00    +0.210 HD
ENDBRANCH  20  21
BRANCH  19  23
ATOM     23  O   UNL     1       2.020   4.012  28.196  0.00  0.00    -0.386 OA
ATOM     24  H   UNL     1       2.990   3.985  28.154  0.00  0.00    +0.210 HD
ENDBRANCH  19  23
BRANCH  18  25
ATOM     25  O   UNL     1       0.784   4.218  24.852  0.00  0.00    -0.386 OA
ATOM     26  H   UNL     1       1.119   4.393  23.950  0.00  0.00    +0.210 HD
ENDBRANCH  18  25
BRANCH  17  27
ATOM     27  C   UNL     1       4.483   4.593  25.013  0.00  0.00    +0.197 C 
BRANCH  27  28
ATOM     28  O   UNL     1       5.615   3.924  24.390  0.00  0.00    -0.346 OA
BRANCH  28  29
ATOM     29  C   UNL     1       6.022   4.348  23.078  0.00  0.00    +0.282 C 
ATOM     30  O   UNL     1       6.119   3.240  22.196  0.00  0.00    -0.341 OA
ATOM     31  C   UNL     1       7.366   2.543  22.081  0.00  0.00    +0.178 C 
ATOM     32  C   UNL     1       8.566   2.925  22.984  0.00  0.00    +0.177 C 
ATOM     33  C   UNL     1       8.486   4.288  23.685  0.00  0.00    +0.179 C 
ATOM     34  C   UNL     1       7.346   5.161  23.169  0.00  0.00    +0.201 C 
BRANCH  34  35
ATOM     35  O   UNL     1       7.738   5.731  21.911  0.00  0.00    -0.384 OA
ATOM     36  H   UNL     1       7.012   5.587  21.279  0.00  0.00    +0.210 HD
ENDBRANCH  34  35
BRANCH  33  37
ATOM     37  O   UNL     1       8.329   4.108  25.105  0.00  0.00    -0.386 OA
ATOM     38  H   UNL     1       9.211   4.240  25.514  0.00  0.00    +0.210 HD
ENDBRANCH  33  37
BRANCH  32  39
ATOM     39  O   UNL     1       9.781   2.830  22.199  0.00  0.00    -0.386 OA
ATOM     40  H   UNL     1       9.601   3.161  21.302  0.00  0.00    +0.210 HD
ENDBRANCH  32  39
BRANCH  31  41
ATOM     41  C   UNL     1       7.070   1.037  22.238  0.00  0.00    +0.190 C 
BRANCH  41  42
ATOM     42  O   UNL     1       5.973   0.796  23.115  0.00  0.00    -0.392 OA
ATOM     43  H   UNL     1       5.410   0.104  22.708  0.00  0.00    +0.210 HD
ENDBRANCH  41  42
ENDBRANCH  31  41
ENDBRANCH  28  29
ENDBRANCH  27  28
ENDBRANCH  17  27
ENDBRANCH  14  15
ENDBRANCH  13  14
ENDBRANCH   3  13
BRANCH   1  44
ATOM     44  O   UNL     1       5.914  -1.191  25.528  0.00  0.00    -0.453 OA
BRANCH  44  55
ATOM     45  C   UNL     1       6.006  -3.222  24.259  0.00  0.00    +0.181 A 
ATOM     46  O   UNL     1       5.474  -4.353  23.657  0.00  0.00    -0.451 OA
ATOM     47  C   UNL     1       4.163  -4.670  23.805  0.00  0.00    +0.147 A 
ATOM     48  C   UNL     1       3.330  -4.022  24.701  0.00  0.00    +0.109 A 
ATOM     49  C   UNL     1       2.037  -4.554  24.869  0.00  0.00    +0.135 A 
ATOM     50  C   UNL     1       1.586  -5.631  24.091  0.00  0.00    +0.091 A 
ATOM     51  C   UNL     1       2.420  -6.184  23.130  0.00  0.00    +0.124 A 
ATOM     52  C   UNL     1       3.881  -2.812  25.390  0.00  0.00    +0.238 A 
ATOM     53  O   UNL     1       3.172  -2.221  26.213  0.00  0.00    -0.283 OA
ATOM     54  C   UNL     1       3.720  -5.724  22.996  0.00  0.00    +0.092 A 
ATOM     55  C   UNL     1       5.312  -2.371  25.057  0.00  0.00    +0.214 A 
BRANCH  45  57
ATOM     56  C   UNL     1       8.527  -3.352  24.649  0.00  0.00    +0.015 A 
ATOM     57  C   UNL     1       7.441  -3.103  23.787  0.00  0.00    +0.025 A 
ATOM     58  C   UNL     1       7.711  -2.460  22.546  0.00  0.00    +0.060 A 
ATOM     59  C   UNL     1       8.984  -2.003  22.227  0.00  0.00    +0.159 A 
ATOM     60  C   UNL     1      10.031  -2.166  23.160  0.00  0.00    +0.158 A 
ATOM     61  C   UNL     1       9.807  -2.883  24.323  0.00  0.00    +0.050 A 
BRANCH  60  62
ATOM     62  O   UNL     1      11.227  -1.578  22.857  0.00  0.00    -0.503 OA
ATOM     63  H   UNL     1      11.924  -2.061  23.333  0.00  0.00    +0.292 HD
ENDBRANCH  60  62
BRANCH  59  64
ATOM     64  O   UNL     1       9.219  -1.334  21.060  0.00  0.00    -0.503 OA
ATOM     65  H   UNL     1       9.433  -2.033  20.410  0.00  0.00    +0.292 HD
ENDBRANCH  59  64
ENDBRANCH  45  57
BRANCH  51  66
ATOM     66  O   UNL     1       2.006  -7.172  22.291  0.00  0.00    -0.507 OA
ATOM     67  H   UNL     1       1.183  -6.897  21.851  0.00  0.00    +0.292 HD
ENDBRANCH  51  66
BRANCH  49  68
ATOM     68  O   UNL     1       1.116  -4.090  25.770  0.00  0.00    -0.506 OA
ATOM     69  H   UNL     1       0.222  -4.365  25.484  0.00  0.00    +0.292 HD
ENDBRANCH  49  68
ENDBRANCH  44  55
ENDBRANCH   1  44
TORSDOF 24
ENDMDL
