MODEL 1
REMARK VINA RESULT:      -6.9      0.000      0.000
REMARK  Name = 
REMARK  13 active torsions:
REMARK  status: ('A' for Active; 'I' for Inactive)
REMARK    1  A    between atoms: C_3  and  O_38
REMARK    2  A    between atoms: C_4  and  O_37
REMARK    3  A    between atoms: C_6  and  C_7
REMARK    4  A    between atoms: C_8  and  O_20
REMARK    5  A    between atoms: C_12  and  O_19
REMARK    6  A    between atoms: C_14  and  O_18
REMARK    7  A    between atoms: O_20  and  C_21
REMARK    8  A    between atoms: C_23  and  O_36
REMARK    9  A    between atoms: C_25  and  O_35
REMARK   10  A    between atoms: C_27  and  C_30
REMARK   11  A    between atoms: C_30  and  C_32
REMARK   12  A    between atoms: C_30  and  O_34
REMARK   13  A    between atoms: C_32  and  O_33
REMARK                            x       y       z     vdW  Elec       q    Type
REMARK                         _______ _______ _______ _____ _____    ______ ____
ROOT
ATOM      1  C   UNL     1       8.621  -1.873  24.213  0.00  0.00    +0.181 A 
ATOM      2  O   UNL     1       8.334  -2.683  23.100  0.00  0.00    -0.451 OA
ATOM      3  C   UNL     1       7.470  -3.741  23.241  0.00  0.00    +0.147 A 
ATOM      4  C   UNL     1       7.147  -4.258  24.483  0.00  0.00    +0.109 A 
ATOM      5  C   UNL     1       6.292  -5.361  24.611  0.00  0.00    +0.135 A 
ATOM      6  C   UNL     1       5.760  -5.962  23.480  0.00  0.00    +0.091 A 
ATOM      7  C   UNL     1       6.098  -5.446  22.228  0.00  0.00    +0.124 A 
ATOM      8  C   UNL     1       7.765  -3.637  25.641  0.00  0.00    +0.238 A 
ATOM      9  O   UNL     1       7.818  -4.288  26.683  0.00  0.00    -0.283 OA
ATOM     10  C   UNL     1       6.941  -4.337  22.101  0.00  0.00    +0.092 A 
ATOM     11  C   UNL     1       8.284  -2.236  25.481  0.00  0.00    +0.214 A 
ENDROOT
BRANCH   1  13
ATOM     12  C   UNL     1      10.353  -0.005  24.539  0.00  0.00    +0.015 A 
ATOM     13  C   UNL     1       9.292  -0.583  23.813  0.00  0.00    +0.025 A 
ATOM     14  C   UNL     1       8.890   0.099  22.642  0.00  0.00    +0.060 A 
ATOM     15  C   UNL     1       9.451   1.332  22.301  0.00  0.00    +0.159 A 
ATOM     16  C   UNL     1      10.401   1.929  23.113  0.00  0.00    +0.158 A 
ATOM     17  C   UNL     1      10.887   1.252  24.216  0.00  0.00    +0.050 A 
BRANCH  15  18
ATOM     18  O   UNL     1       9.047   1.966  21.159  0.00  0.00    -0.503 OA
ATOM     19  H   UNL     1       8.089   2.116  21.287  0.00  0.00    +0.292 HD
ENDBRANCH  15  18
BRANCH  16  20
ATOM     20  O   UNL     1      10.833   3.185  22.792  0.00  0.00    -0.503 OA
ATOM     21  H   UNL     1      11.726   3.099  22.411  0.00  0.00    +0.292 HD
ENDBRANCH  16  20
ENDBRANCH   1  13
BRANCH   5  22
ATOM     22  O   UNL     1       5.936  -5.894  25.822  0.00  0.00    -0.506 OA
ATOM     23  H   UNL     1       4.971  -5.747  25.937  0.00  0.00    +0.292 HD
ENDBRANCH   5  22
BRANCH   7  24
ATOM     24  O   UNL     1       5.613  -6.014  21.089  0.00  0.00    -0.507 OA
ATOM     25  H   UNL     1       5.671  -6.986  21.171  0.00  0.00    +0.292 HD
ENDBRANCH   7  24
BRANCH  11  26
ATOM     26  O   UNL     1       8.383  -1.386  26.586  0.00  0.00    -0.453 OA
BRANCH  26  27
ATOM     27  C   UNL     1       7.157  -0.756  26.957  0.00  0.00    +0.340 C 
ATOM     28  O   UNL     1       6.114  -1.703  27.243  0.00  0.00    -0.331 OA
ATOM     29  C   UNL     1       4.867  -0.971  27.251  0.00  0.00    +0.184 C 
ATOM     30  C   UNL     1       5.159   0.364  26.547  0.00  0.00    +0.180 C 
ATOM     31  C   UNL     1       6.527   0.136  25.888  0.00  0.00    +0.214 C 
BRANCH  30  32
ATOM     32  O   UNL     1       4.168   0.810  25.641  0.00  0.00    -0.386 OA
ATOM     33  H   UNL     1       4.523   1.606  25.199  0.00  0.00    +0.210 HD
ENDBRANCH  30  32
BRANCH  31  34
ATOM     34  O   UNL     1       7.233   1.353  25.652  0.00  0.00    -0.383 OA
ATOM     35  H   UNL     1       7.202   1.900  26.457  0.00  0.00    +0.210 HD
ENDBRANCH  31  34
BRANCH  29  36
ATOM     36  C   UNL     1       3.773  -1.881  26.679  0.00  0.00    +0.171 C 
BRANCH  36  37
ATOM     37  O   UNL     1       2.529  -1.169  26.575  0.00  0.00    -0.387 OA
ATOM     38  H   UNL     1       2.092  -1.499  25.767  0.00  0.00    +0.210 HD
ENDBRANCH  36  37
BRANCH  36  39
ATOM     39  C   UNL     1       3.551  -3.136  27.524  0.00  0.00    +0.189 C 
BRANCH  39  40
ATOM     40  O   UNL     1       4.689  -3.993  27.403  0.00  0.00    -0.392 OA
ATOM     41  H   UNL     1       5.353  -3.674  28.037  0.00  0.00    +0.210 HD
ENDBRANCH  39  40
ENDBRANCH  36  39
ENDBRANCH  29  36
ENDBRANCH  26  27
ENDBRANCH  11  26
TORSDOF 13
ENDMDL
MODEL 2
REMARK VINA RESULT:      -6.9      1.981      2.702
REMARK  Name = 
REMARK  13 active torsions:
REMARK  status: ('A' for Active; 'I' for Inactive)
REMARK    1  A    between atoms: C_3  and  O_38
REMARK    2  A    between atoms: C_4  and  O_37
REMARK    3  A    between atoms: C_6  and  C_7
REMARK    4  A    between atoms: C_8  and  O_20
REMARK    5  A    between atoms: C_12  and  O_19
REMARK    6  A    between atoms: C_14  and  O_18
REMARK    7  A    between atoms: O_20  and  C_21
REMARK    8  A    between atoms: C_23  and  O_36
REMARK    9  A    between atoms: C_25  and  O_35
REMARK   10  A    between atoms: C_27  and  C_30
REMARK   11  A    between atoms: C_30  and  C_32
REMARK   12  A    between atoms: C_30  and  O_34
REMARK   13  A    between atoms: C_32  and  O_33
REMARK                            x       y       z     vdW  Elec       q    Type
REMARK                         _______ _______ _______ _____ _____    ______ ____
ROOT
ATOM      1  C   UNL     1       7.460  -2.977  23.643  0.00  0.00    +0.181 A 
ATOM      2  O   UNL     1       6.555  -3.720  22.866  0.00  0.00    -0.451 OA
ATOM      3  C   UNL     1       5.784  -4.684  23.466  0.00  0.00    +0.147 A 
ATOM      4  C   UNL     1       6.099  -5.199  24.711  0.00  0.00    +0.109 A 
ATOM      5  C   UNL     1       5.323  -6.208  25.297  0.00  0.00    +0.135 A 
ATOM      6  C   UNL     1       4.223  -6.717  24.624  0.00  0.00    +0.091 A 
ATOM      7  C   UNL     1       3.916  -6.205  23.364  0.00  0.00    +0.124 A 
ATOM      8  C   UNL     1       7.289  -4.680  25.362  0.00  0.00    +0.238 A 
ATOM      9  O   UNL     1       7.805  -5.361  26.245  0.00  0.00    -0.283 OA
ATOM     10  C   UNL     1       4.682  -5.189  22.784  0.00  0.00    +0.092 A 
ATOM     11  C   UNL     1       7.794  -3.337  24.912  0.00  0.00    +0.214 A 
ENDROOT
BRANCH   1  13
ATOM     12  C   UNL     1       9.136  -1.742  22.138  0.00  0.00    +0.015 A 
ATOM     13  C   UNL     1       7.959  -1.754  22.913  0.00  0.00    +0.025 A 
ATOM     14  C   UNL     1       7.225  -0.547  22.957  0.00  0.00    +0.060 A 
ATOM     15  C   UNL     1       7.713   0.612  22.349  0.00  0.00    +0.159 A 
ATOM     16  C   UNL     1       8.939   0.615  21.706  0.00  0.00    +0.158 A 
ATOM     17  C   UNL     1       9.643  -0.567  21.562  0.00  0.00    +0.050 A 
BRANCH  15  18
ATOM     18  O   UNL     1       6.978   1.764  22.403  0.00  0.00    -0.503 OA
ATOM     19  H   UNL     1       6.620   1.870  21.499  0.00  0.00    +0.292 HD
ENDBRANCH  15  18
BRANCH  16  20
ATOM     20  O   UNL     1       9.420   1.801  21.227  0.00  0.00    -0.503 OA
ATOM     21  H   UNL     1      10.112   1.595  20.574  0.00  0.00    +0.292 HD
ENDBRANCH  16  20
ENDBRANCH   1  13
BRANCH   5  22
ATOM     22  O   UNL     1       5.593  -6.734  26.533  0.00  0.00    -0.506 OA
ATOM     23  H   UNL     1       4.851  -6.486  27.128  0.00  0.00    +0.292 HD
ENDBRANCH   5  22
BRANCH   7  24
ATOM     24  O   UNL     1       2.854  -6.687  22.659  0.00  0.00    -0.507 OA
ATOM     25  H   UNL     1       2.083  -6.105  22.812  0.00  0.00    +0.292 HD
ENDBRANCH   7  24
BRANCH  11  26
ATOM     26  O   UNL     1       8.539  -2.534  25.779  0.00  0.00    -0.453 OA
BRANCH  26  27
ATOM     27  C   UNL     1       7.755  -1.722  26.653  0.00  0.00    +0.340 C 
ATOM     28  O   UNL     1       6.478  -1.378  26.089  0.00  0.00    -0.331 OA
ATOM     29  C   UNL     1       5.942  -0.294  26.880  0.00  0.00    +0.184 C 
ATOM     30  C   UNL     1       7.130   0.274  27.673  0.00  0.00    +0.180 C 
ATOM     31  C   UNL     1       8.354  -0.359  26.997  0.00  0.00    +0.214 C 
BRANCH  30  32
ATOM     32  O   UNL     1       7.199   1.685  27.751  0.00  0.00    -0.386 OA
ATOM     33  H   UNL     1       6.295   2.006  27.931  0.00  0.00    +0.210 HD
ENDBRANCH  30  32
BRANCH  31  34
ATOM     34  O   UNL     1       9.489  -0.421  27.861  0.00  0.00    -0.383 OA
ATOM     35  H   UNL     1      10.030  -1.193  27.617  0.00  0.00    +0.210 HD
ENDBRANCH  31  34
BRANCH  29  36
ATOM     36  C   UNL     1       5.166   0.643  25.945  0.00  0.00    +0.171 C 
BRANCH  36  37
ATOM     37  O   UNL     1       6.058   1.585  25.325  0.00  0.00    -0.387 OA
ATOM     38  H   UNL     1       6.571   1.081  24.665  0.00  0.00    +0.210 HD
ENDBRANCH  36  37
BRANCH  36  39
ATOM     39  C   UNL     1       4.063   1.415  26.671  0.00  0.00    +0.189 C 
BRANCH  39  40
ATOM     40  O   UNL     1       4.567   2.693  27.069  0.00  0.00    -0.392 OA
ATOM     41  H   UNL     1       5.277   2.529  27.711  0.00  0.00    +0.210 HD
ENDBRANCH  39  40
ENDBRANCH  36  39
ENDBRANCH  29  36
ENDBRANCH  26  27
ENDBRANCH  11  26
TORSDOF 13
ENDMDL
MODEL 3
REMARK VINA RESULT:      -6.9      1.381      2.085
REMARK  Name = 
REMARK  13 active torsions:
REMARK  status: ('A' for Active; 'I' for Inactive)
REMARK    1  A    between atoms: C_3  and  O_38
REMARK    2  A    between atoms: C_4  and  O_37
REMARK    3  A    between atoms: C_6  and  C_7
REMARK    4  A    between atoms: C_8  and  O_20
REMARK    5  A    between atoms: C_12  and  O_19
REMARK    6  A    between atoms: C_14  and  O_18
REMARK    7  A    between atoms: O_20  and  C_21
REMARK    8  A    between atoms: C_23  and  O_36
REMARK    9  A    between atoms: C_25  and  O_35
REMARK   10  A    between atoms: C_27  and  C_30
REMARK   11  A    between atoms: C_30  and  C_32
REMARK   12  A    between atoms: C_30  and  O_34
REMARK   13  A    between atoms: C_32  and  O_33
REMARK                            x       y       z     vdW  Elec       q    Type
REMARK                         _______ _______ _______ _____ _____    ______ ____
ROOT
ATOM      1  C   UNL     1       8.819  -1.782  24.419  0.00  0.00    +0.181 A 
ATOM      2  O   UNL     1       8.453  -2.633  23.362  0.00  0.00    -0.451 OA
ATOM      3  C   UNL     1       7.632  -3.705  23.613  0.00  0.00    +0.147 A 
ATOM      4  C   UNL     1       7.437  -4.189  24.894  0.00  0.00    +0.109 A 
ATOM      5  C   UNL     1       6.624  -5.306  25.132  0.00  0.00    +0.135 A 
ATOM      6  C   UNL     1       6.007  -5.954  24.073  0.00  0.00    +0.091 A 
ATOM      7  C   UNL     1       6.217  -5.471  22.781  0.00  0.00    +0.124 A 
ATOM      8  C   UNL     1       8.141  -3.518  25.971  0.00  0.00    +0.238 A 
ATOM      9  O   UNL     1       8.305  -4.133  27.023  0.00  0.00    -0.283 OA
ATOM     10  C   UNL     1       7.017  -4.349  22.545  0.00  0.00    +0.092 A 
ATOM     11  C   UNL     1       8.609  -2.111  25.723  0.00  0.00    +0.214 A 
ENDROOT
BRANCH   1  13
ATOM     12  C   UNL     1      10.458   0.188  24.589  0.00  0.00    +0.015 A 
ATOM     13  C   UNL     1       9.420  -0.490  23.921  0.00  0.00    +0.025 A 
ATOM     14  C   UNL     1       8.968   0.088  22.714  0.00  0.00    +0.060 A 
ATOM     15  C   UNL     1       9.461   1.322  22.280  0.00  0.00    +0.159 A 
ATOM     16  C   UNL     1      10.390   2.019  23.034  0.00  0.00    +0.158 A 
ATOM     17  C   UNL     1      10.924   1.445  24.172  0.00  0.00    +0.050 A 
BRANCH  15  18
ATOM     18  O   UNL     1       9.011   1.854  21.104  0.00  0.00    -0.503 OA
ATOM     19  H   UNL     1       9.583   2.633  20.952  0.00  0.00    +0.292 HD
ENDBRANCH  15  18
BRANCH  16  20
ATOM     20  O   UNL     1      10.754   3.270  22.620  0.00  0.00    -0.503 OA
ATOM     21  H   UNL     1      11.725   3.283  22.546  0.00  0.00    +0.292 HD
ENDBRANCH  16  20
ENDBRANCH   1  13
BRANCH   5  22
ATOM     22  O   UNL     1       6.393  -5.808  26.386  0.00  0.00    -0.506 OA
ATOM     23  H   UNL     1       5.419  -5.844  26.514  0.00  0.00    +0.292 HD
ENDBRANCH   5  22
BRANCH   7  24
ATOM     24  O   UNL     1       5.644  -6.086  21.709  0.00  0.00    -0.507 OA
ATOM     25  H   UNL     1       4.701  -5.834  21.666  0.00  0.00    +0.292 HD
ENDBRANCH   7  24
BRANCH  11  26
ATOM     26  O   UNL     1       8.786  -1.225  26.788  0.00  0.00    -0.453 OA
BRANCH  26  27
ATOM     27  C   UNL     1       7.580  -0.634  27.272  0.00  0.00    +0.340 C 
ATOM     28  O   UNL     1       6.659  -0.314  26.215  0.00  0.00    -0.331 OA
ATOM     29  C   UNL     1       5.667   0.579  26.771  0.00  0.00    +0.184 C 
ATOM     30  C   UNL     1       6.269   1.110  28.082  0.00  0.00    +0.180 C 
ATOM     31  C   UNL     1       7.746   0.701  27.996  0.00  0.00    +0.214 C 
BRANCH  30  32
ATOM     32  O   UNL     1       6.083   2.490  28.329  0.00  0.00    -0.386 OA
ATOM     33  H   UNL     1       5.687   2.874  27.523  0.00  0.00    +0.210 HD
ENDBRANCH  30  32
BRANCH  31  34
ATOM     34  O   UNL     1       8.364   0.597  29.278  0.00  0.00    -0.383 OA
ATOM     35  H   UNL     1       9.293   0.878  29.207  0.00  0.00    +0.210 HD
ENDBRANCH  31  34
BRANCH  29  36
ATOM     36  C   UNL     1       5.266   1.585  25.685  0.00  0.00    +0.171 C 
BRANCH  36  37
ATOM     37  O   UNL     1       3.861   1.482  25.399  0.00  0.00    -0.387 OA
ATOM     38  H   UNL     1       3.738   1.842  24.501  0.00  0.00    +0.210 HD
ENDBRANCH  36  37
BRANCH  36  39
ATOM     39  C   UNL     1       6.046   1.387  24.384  0.00  0.00    +0.189 C 
BRANCH  39  40
ATOM     40  O   UNL     1       5.634   0.165  23.769  0.00  0.00    -0.392 OA
ATOM     41  H   UNL     1       6.416  -0.411  23.730  0.00  0.00    +0.210 HD
ENDBRANCH  39  40
ENDBRANCH  36  39
ENDBRANCH  29  36
ENDBRANCH  26  27
ENDBRANCH  11  26
TORSDOF 13
ENDMDL
MODEL 4
REMARK VINA RESULT:      -6.9      2.056      6.950
REMARK  Name = 
REMARK  13 active torsions:
REMARK  status: ('A' for Active; 'I' for Inactive)
REMARK    1  A    between atoms: C_3  and  O_38
REMARK    2  A    between atoms: C_4  and  O_37
REMARK    3  A    between atoms: C_6  and  C_7
REMARK    4  A    between atoms: C_8  and  O_20
REMARK    5  A    between atoms: C_12  and  O_19
REMARK    6  A    between atoms: C_14  and  O_18
REMARK    7  A    between atoms: O_20  and  C_21
REMARK    8  A    between atoms: C_23  and  O_36
REMARK    9  A    between atoms: C_25  and  O_35
REMARK   10  A    between atoms: C_27  and  C_30
REMARK   11  A    between atoms: C_30  and  C_32
REMARK   12  A    between atoms: C_30  and  O_34
REMARK   13  A    between atoms: C_32  and  O_33
REMARK                            x       y       z     vdW  Elec       q    Type
REMARK                         _______ _______ _______ _____ _____    ______ ____
ROOT
ATOM      1  C   UNL     1       5.703  -1.373  25.551  0.00  0.00    +0.181 A 
ATOM      2  O   UNL     1       4.661  -0.440  25.697  0.00  0.00    -0.451 OA
ATOM      3  C   UNL     1       4.939   0.808  26.195  0.00  0.00    +0.147 A 
ATOM      4  C   UNL     1       6.109   1.074  26.884  0.00  0.00    +0.109 A 
ATOM      5  C   UNL     1       6.363   2.345  27.419  0.00  0.00    +0.135 A 
ATOM      6  C   UNL     1       5.430   3.360  27.272  0.00  0.00    +0.091 A 
ATOM      7  C   UNL     1       4.246   3.084  26.589  0.00  0.00    +0.124 A 
ATOM      8  C   UNL     1       7.038  -0.026  27.064  0.00  0.00    +0.238 A 
ATOM      9  O   UNL     1       7.863   0.060  27.971  0.00  0.00    -0.283 OA
ATOM     10  C   UNL     1       3.997   1.820  26.043  0.00  0.00    +0.092 A 
ATOM     11  C   UNL     1       6.927  -1.188  26.116  0.00  0.00    +0.214 A 
ENDROOT
BRANCH   1  13
ATOM     12  C   UNL     1       4.546  -3.632  25.160  0.00  0.00    +0.015 A 
ATOM     13  C   UNL     1       5.299  -2.540  24.684  0.00  0.00    +0.025 A 
ATOM     14  C   UNL     1       5.646  -2.566  23.315  0.00  0.00    +0.060 A 
ATOM     15  C   UNL     1       5.343  -3.675  22.519  0.00  0.00    +0.159 A 
ATOM     16  C   UNL     1       4.715  -4.785  23.057  0.00  0.00    +0.158 A 
ATOM     17  C   UNL     1       4.278  -4.760  24.369  0.00  0.00    +0.050 A 
BRANCH  15  18
ATOM     18  O   UNL     1       5.685  -3.670  21.195  0.00  0.00    -0.503 OA
ATOM     19  H   UNL     1       4.943  -4.124  20.748  0.00  0.00    +0.292 HD
ENDBRANCH  15  18
BRANCH  16  20
ATOM     20  O   UNL     1       4.545  -5.884  22.263  0.00  0.00    -0.503 OA
ATOM     21  H   UNL     1       3.591  -5.976  22.090  0.00  0.00    +0.292 HD
ENDBRANCH  16  20
ENDBRANCH   1  13
BRANCH   5  22
ATOM     22  O   UNL     1       7.515   2.653  28.094  0.00  0.00    -0.506 OA
ATOM     23  H   UNL     1       7.412   3.563  28.451  0.00  0.00    +0.292 HD
ENDBRANCH   5  22
BRANCH   7  24
ATOM     24  O   UNL     1       3.293   4.046  26.435  0.00  0.00    -0.507 OA
ATOM     25  H   UNL     1       3.579   4.852  26.906  0.00  0.00    +0.292 HD
ENDBRANCH   7  24
BRANCH  11  26
ATOM     26  O   UNL     1       8.039  -1.990  25.847  0.00  0.00    -0.453 OA
BRANCH  26  27
ATOM     27  C   UNL     1       8.980  -1.412  24.943  0.00  0.00    +0.340 C 
ATOM     28  O   UNL     1       8.485  -0.212  24.324  0.00  0.00    -0.331 OA
ATOM     29  C   UNL     1       9.347   0.072  23.199  0.00  0.00    +0.184 C 
ATOM     30  C   UNL     1      10.115  -1.229  22.920  0.00  0.00    +0.180 C 
ATOM     31  C   UNL     1       9.362  -2.281  23.746  0.00  0.00    +0.214 C 
BRANCH  30  32
ATOM     32  O   UNL     1      10.254  -1.581  21.557  0.00  0.00    -0.386 OA
ATOM     33  H   UNL     1      10.662  -2.468  21.531  0.00  0.00    +0.210 HD
ENDBRANCH  30  32
BRANCH  31  34
ATOM     34  O   UNL     1      10.174  -3.407  24.077  0.00  0.00    -0.383 OA
ATOM     35  H   UNL     1       9.633  -4.057  24.559  0.00  0.00    +0.210 HD
ENDBRANCH  31  34
BRANCH  29  36
ATOM     36  C   UNL     1       8.488   0.674  22.079  0.00  0.00    +0.171 C 
BRANCH  36  37
ATOM     37  O   UNL     1       9.314   1.377  21.135  0.00  0.00    -0.387 OA
ATOM     38  H   UNL     1       8.956   2.283  21.081  0.00  0.00    +0.210 HD
ENDBRANCH  36  37
BRANCH  36  39
ATOM     39  C   UNL     1       7.421   1.634  22.608  0.00  0.00    +0.189 C 
BRANCH  39  40
ATOM     40  O   UNL     1       6.221   0.903  22.871  0.00  0.00    -0.392 OA
ATOM     41  H   UNL     1       6.139   0.231  22.174  0.00  0.00    +0.210 HD
ENDBRANCH  39  40
ENDBRANCH  36  39
ENDBRANCH  29  36
ENDBRANCH  26  27
ENDBRANCH  11  26
TORSDOF 13
ENDMDL
MODEL 5
REMARK VINA RESULT:      -6.8      1.470      2.518
REMARK  Name = 
REMARK  13 active torsions:
REMARK  status: ('A' for Active; 'I' for Inactive)
REMARK    1  A    between atoms: C_3  and  O_38
REMARK    2  A    between atoms: C_4  and  O_37
REMARK    3  A    between atoms: C_6  and  C_7
REMARK    4  A    between atoms: C_8  and  O_20
REMARK    5  A    between atoms: C_12  and  O_19
REMARK    6  A    between atoms: C_14  and  O_18
REMARK    7  A    between atoms: O_20  and  C_21
REMARK    8  A    between atoms: C_23  and  O_36
REMARK    9  A    between atoms: C_25  and  O_35
REMARK   10  A    between atoms: C_27  and  C_30
REMARK   11  A    between atoms: C_30  and  C_32
REMARK   12  A    between atoms: C_30  and  O_34
REMARK   13  A    between atoms: C_32  and  O_33
REMARK                            x       y       z     vdW  Elec       q    Type
REMARK                         _______ _______ _______ _____ _____    ______ ____
ROOT
ATOM      1  C   UNL     1       8.503  -1.955  24.186  0.00  0.00    +0.181 A 
ATOM      2  O   UNL     1       8.267  -2.760  23.058  0.00  0.00    -0.451 OA
ATOM      3  C   UNL     1       7.394  -3.815  23.153  0.00  0.00    +0.147 A 
ATOM      4  C   UNL     1       7.012  -4.336  24.376  0.00  0.00    +0.109 A 
ATOM      5  C   UNL     1       6.147  -5.436  24.459  0.00  0.00    +0.135 A 
ATOM      6  C   UNL     1       5.669  -6.031  23.301  0.00  0.00    +0.091 A 
ATOM      7  C   UNL     1       6.067  -5.512  22.070  0.00  0.00    +0.124 A 
ATOM      8  C   UNL     1       7.575  -3.721  25.565  0.00  0.00    +0.238 A 
ATOM      9  O   UNL     1       7.577  -4.376  26.606  0.00  0.00    -0.283 OA
ATOM     10  C   UNL     1       6.919  -4.405  21.987  0.00  0.00    +0.092 A 
ATOM     11  C   UNL     1       8.106  -2.321  25.435  0.00  0.00    +0.214 A 
ENDROOT
BRANCH   1  13
ATOM     12  C   UNL     1      10.241  -0.107  24.588  0.00  0.00    +0.015 A 
ATOM     13  C   UNL     1       9.197  -0.665  23.823  0.00  0.00    +0.025 A 
ATOM     14  C   UNL     1       8.835   0.036  22.651  0.00  0.00    +0.060 A 
ATOM     15  C   UNL     1       9.416   1.269  22.344  0.00  0.00    +0.159 A 
ATOM     16  C   UNL     1      10.347   1.846  23.191  0.00  0.00    +0.158 A 
ATOM     17  C   UNL     1      10.795   1.150  24.298  0.00  0.00    +0.050 A 
BRANCH  15  18
ATOM     18  O   UNL     1       9.050   1.922  21.199  0.00  0.00    -0.503 OA
ATOM     19  H   UNL     1       9.865   2.376  20.905  0.00  0.00    +0.292 HD
ENDBRANCH  15  18
BRANCH  16  20
ATOM     20  O   UNL     1      10.799   3.103  22.899  0.00  0.00    -0.503 OA
ATOM     21  H   UNL     1      11.121   3.498  23.729  0.00  0.00    +0.292 HD
ENDBRANCH  16  20
ENDBRANCH   1  13
BRANCH   5  22
ATOM     22  O   UNL     1       5.733  -5.973  25.649  0.00  0.00    -0.506 OA
ATOM     23  H   UNL     1       4.761  -6.107  25.590  0.00  0.00    +0.292 HD
ENDBRANCH   5  22
BRANCH   7  24
ATOM     24  O   UNL     1       5.635  -6.074  20.907  0.00  0.00    -0.507 OA
ATOM     25  H   UNL     1       6.257  -5.839  20.191  0.00  0.00    +0.292 HD
ENDBRANCH   7  24
BRANCH  11  26
ATOM     26  O   UNL     1       8.154  -1.476  26.547  0.00  0.00    -0.453 OA
BRANCH  26  27
ATOM     27  C   UNL     1       7.121  -0.492  26.586  0.00  0.00    +0.340 C 
ATOM     28  O   UNL     1       7.547   0.732  27.209  0.00  0.00    -0.331 OA
ATOM     29  C   UNL     1       6.355   1.493  27.509  0.00  0.00    +0.184 C 
ATOM     30  C   UNL     1       5.188   0.497  27.425  0.00  0.00    +0.180 C 
ATOM     31  C   UNL     1       5.881  -0.873  27.394  0.00  0.00    +0.214 C 
BRANCH  30  32
ATOM     32  O   UNL     1       4.211   0.607  28.441  0.00  0.00    -0.386 OA
ATOM     33  H   UNL     1       3.404   0.168  28.110  0.00  0.00    +0.210 HD
ENDBRANCH  30  32
BRANCH  31  34
ATOM     34  O   UNL     1       5.076  -1.883  26.787  0.00  0.00    -0.383 OA
ATOM     35  H   UNL     1       4.179  -1.532  26.647  0.00  0.00    +0.210 HD
ENDBRANCH  31  34
BRANCH  29  36
ATOM     36  C   UNL     1       6.587   2.246  28.826  0.00  0.00    +0.171 C 
BRANCH  36  37
ATOM     37  O   UNL     1       7.513   3.327  28.630  0.00  0.00    -0.387 OA
ATOM     38  H   UNL     1       7.977   3.446  29.481  0.00  0.00    +0.210 HD
ENDBRANCH  36  37
BRANCH  36  39
ATOM     39  C   UNL     1       7.120   1.338  29.936  0.00  0.00    +0.189 C 
BRANCH  39  40
ATOM     40  O   UNL     1       8.511   1.092  29.715  0.00  0.00    -0.392 OA
ATOM     41  H   UNL     1       9.000   1.643  30.349  0.00  0.00    +0.210 HD
ENDBRANCH  39  40
ENDBRANCH  36  39
ENDBRANCH  29  36
ENDBRANCH  26  27
ENDBRANCH  11  26
TORSDOF 13
ENDMDL
MODEL 6
REMARK VINA RESULT:      -6.8      1.860      6.446
REMARK  Name = 
REMARK  13 active torsions:
REMARK  status: ('A' for Active; 'I' for Inactive)
REMARK    1  A    between atoms: C_3  and  O_38
REMARK    2  A    between atoms: C_4  and  O_37
REMARK    3  A    between atoms: C_6  and  C_7
REMARK    4  A    between atoms: C_8  and  O_20
REMARK    5  A    between atoms: C_12  and  O_19
REMARK    6  A    between atoms: C_14  and  O_18
REMARK    7  A    between atoms: O_20  and  C_21
REMARK    8  A    between atoms: C_23  and  O_36
REMARK    9  A    between atoms: C_25  and  O_35
REMARK   10  A    between atoms: C_27  and  C_30
REMARK   11  A    between atoms: C_30  and  C_32
REMARK   12  A    between atoms: C_30  and  O_34
REMARK   13  A    between atoms: C_32  and  O_33
REMARK                            x       y       z     vdW  Elec       q    Type
REMARK                         _______ _______ _______ _____ _____    ______ ____
ROOT
ATOM      1  C   UNL     1       6.985  -2.140  24.863  0.00  0.00    +0.181 A 
ATOM      2  O   UNL     1       5.770  -1.844  25.504  0.00  0.00    -0.451 OA
ATOM      3  C   UNL     1       5.729  -0.843  26.443  0.00  0.00    +0.147 A 
ATOM      4  C   UNL     1       6.878  -0.356  27.039  0.00  0.00    +0.109 A 
ATOM      5  C   UNL     1       6.820   0.641  28.023  0.00  0.00    +0.135 A 
ATOM      6  C   UNL     1       5.594   1.151  28.423  0.00  0.00    +0.091 A 
ATOM      7  C   UNL     1       4.436   0.648  27.829  0.00  0.00    +0.124 A 
ATOM      8  C   UNL     1       8.139  -0.951  26.634  0.00  0.00    +0.238 A 
ATOM      9  O   UNL     1       9.100  -0.835  27.392  0.00  0.00    -0.283 OA
ATOM     10  C   UNL     1       4.495  -0.338  26.838  0.00  0.00    +0.092 A 
ATOM     11  C   UNL     1       8.177  -1.657  25.308  0.00  0.00    +0.214 A 
ENDROOT
BRANCH   1  13
ATOM     12  C   UNL     1       6.017  -2.600  22.529  0.00  0.00    +0.015 A 
ATOM     13  C   UNL     1       6.783  -3.002  23.641  0.00  0.00    +0.025 A 
ATOM     14  C   UNL     1       7.397  -4.271  23.553  0.00  0.00    +0.060 A 
ATOM     15  C   UNL     1       7.158  -5.110  22.462  0.00  0.00    +0.159 A 
ATOM     16  C   UNL     1       6.295  -4.729  21.449  0.00  0.00    +0.158 A 
ATOM     17  C   UNL     1       5.746  -3.460  21.453  0.00  0.00    +0.050 A 
BRANCH  15  18
ATOM     18  O   UNL     1       7.772  -6.331  22.401  0.00  0.00    -0.503 OA
ATOM     19  H   UNL     1       8.681  -6.165  22.721  0.00  0.00    +0.292 HD
ENDBRANCH  15  18
BRANCH  16  20
ATOM     20  O   UNL     1       6.009  -5.633  20.464  0.00  0.00    -0.503 OA
ATOM     21  H   UNL     1       5.090  -5.928  20.595  0.00  0.00    +0.292 HD
ENDBRANCH  16  20
ENDBRANCH   1  13
BRANCH   5  22
ATOM     22  O   UNL     1       7.935   1.160  28.627  0.00  0.00    -0.506 OA
ATOM     23  H   UNL     1       8.414   0.414  29.052  0.00  0.00    +0.292 HD
ENDBRANCH   5  22
BRANCH   7  24
ATOM     24  O   UNL     1       3.209   1.107  28.202  0.00  0.00    -0.507 OA
ATOM     25  H   UNL     1       3.029   0.820  29.118  0.00  0.00    +0.292 HD
ENDBRANCH   7  24
BRANCH  11  26
ATOM     26  O   UNL     1       9.377  -1.773  24.601  0.00  0.00    -0.453 OA
BRANCH  26  27
ATOM     27  C   UNL     1       9.724  -0.620  23.835  0.00  0.00    +0.340 C 
ATOM     28  O   UNL     1       9.055   0.569  24.291  0.00  0.00    -0.331 OA
ATOM     29  C   UNL     1       9.197   1.562  23.250  0.00  0.00    +0.184 C 
ATOM     30  C   UNL     1       9.611   0.791  21.987  0.00  0.00    +0.180 C 
ATOM     31  C   UNL     1       9.349  -0.677  22.354  0.00  0.00    +0.214 C 
BRANCH  30  32
ATOM     32  O   UNL     1       8.977   1.190  20.787  0.00  0.00    -0.386 OA
ATOM     33  H   UNL     1       8.685   0.375  20.334  0.00  0.00    +0.210 HD
ENDBRANCH  30  32
BRANCH  31  34
ATOM     34  O   UNL     1      10.137  -1.586  21.587  0.00  0.00    -0.383 OA
ATOM     35  H   UNL     1       9.901  -2.497  21.835  0.00  0.00    +0.210 HD
ENDBRANCH  31  34
BRANCH  29  36
ATOM     36  C   UNL     1       7.915   2.403  23.212  0.00  0.00    +0.171 C 
BRANCH  36  37
ATOM     37  O   UNL     1       8.116   3.590  22.426  0.00  0.00    -0.387 OA
ATOM     38  H   UNL     1       7.227   3.895  22.162  0.00  0.00    +0.210 HD
ENDBRANCH  36  37
BRANCH  36  39
ATOM     39  C   UNL     1       7.439   2.812  24.607  0.00  0.00    +0.189 C 
BRANCH  39  40
ATOM     40  O   UNL     1       8.571   2.952  25.468  0.00  0.00    -0.392 OA
ATOM     41  H   UNL     1       9.283   2.408  25.090  0.00  0.00    +0.210 HD
ENDBRANCH  39  40
ENDBRANCH  36  39
ENDBRANCH  29  36
ENDBRANCH  26  27
ENDBRANCH  11  26
TORSDOF 13
ENDMDL
MODEL 7
REMARK VINA RESULT:      -6.6      1.643      6.297
REMARK  Name = 
REMARK  13 active torsions:
REMARK  status: ('A' for Active; 'I' for Inactive)
REMARK    1  A    between atoms: C_3  and  O_38
REMARK    2  A    between atoms: C_4  and  O_37
REMARK    3  A    between atoms: C_6  and  C_7
REMARK    4  A    between atoms: C_8  and  O_20
REMARK    5  A    between atoms: C_12  and  O_19
REMARK    6  A    between atoms: C_14  and  O_18
REMARK    7  A    between atoms: O_20  and  C_21
REMARK    8  A    between atoms: C_23  and  O_36
REMARK    9  A    between atoms: C_25  and  O_35
REMARK   10  A    between atoms: C_27  and  C_30
REMARK   11  A    between atoms: C_30  and  C_32
REMARK   12  A    between atoms: C_30  and  O_34
REMARK   13  A    between atoms: C_32  and  O_33
REMARK                            x       y       z     vdW  Elec       q    Type
REMARK                         _______ _______ _______ _____ _____    ______ ____
ROOT
ATOM      1  C   UNL     1       6.883  -1.122  25.558  0.00  0.00    +0.181 A 
ATOM      2  O   UNL     1       7.232   0.140  25.047  0.00  0.00    -0.451 OA
ATOM      3  C   UNL     1       8.078   0.221  23.969  0.00  0.00    +0.147 A 
ATOM      4  C   UNL     1       8.875  -0.844  23.587  0.00  0.00    +0.109 A 
ATOM      5  C   UNL     1       9.761  -0.736  22.506  0.00  0.00    +0.135 A 
ATOM      6  C   UNL     1       9.859   0.456  21.805  0.00  0.00    +0.091 A 
ATOM      7  C   UNL     1       9.064   1.531  22.201  0.00  0.00    +0.124 A 
ATOM      8  C   UNL     1       8.784  -2.058  24.378  0.00  0.00    +0.238 A 
ATOM      9  O   UNL     1       9.721  -2.852  24.322  0.00  0.00    -0.283 OA
ATOM     10  C   UNL     1       8.170   1.420  23.271  0.00  0.00    +0.092 A 
ATOM     11  C   UNL     1       7.541  -2.258  25.199  0.00  0.00    +0.214 A 
ENDROOT
BRANCH   1  13
ATOM     12  C   UNL     1       5.775  -0.504  27.791  0.00  0.00    +0.015 A 
ATOM     13  C   UNL     1       5.701  -1.046  26.492  0.00  0.00    +0.025 A 
ATOM     14  C   UNL     1       4.430  -1.501  26.075  0.00  0.00    +0.060 A 
ATOM     15  C   UNL     1       3.345  -1.506  26.955  0.00  0.00    +0.159 A 
ATOM     16  C   UNL     1       3.491  -1.085  28.265  0.00  0.00    +0.158 A 
ATOM     17  C   UNL     1       4.694  -0.547  28.685  0.00  0.00    +0.050 A 
BRANCH  15  18
ATOM     18  O   UNL     1       2.125  -1.947  26.521  0.00  0.00    -0.503 OA
ATOM     19  H   UNL     1       2.030  -1.566  25.625  0.00  0.00    +0.292 HD
ENDBRANCH  15  18
BRANCH  16  20
ATOM     20  O   UNL     1       2.427  -1.216  29.113  0.00  0.00    -0.503 OA
ATOM     21  H   UNL     1       2.274  -0.349  29.528  0.00  0.00    +0.292 HD
ENDBRANCH  16  20
ENDBRANCH   1  13
BRANCH   5  22
ATOM     22  O   UNL     1      10.556  -1.770  22.087  0.00  0.00    -0.506 OA
ATOM     23  H   UNL     1      11.491  -1.481  22.185  0.00  0.00    +0.292 HD
ENDBRANCH   5  22
BRANCH   7  24
ATOM     24  O   UNL     1       9.139   2.726  21.552  0.00  0.00    -0.507 OA
ATOM     25  H   UNL     1       8.669   2.652  20.698  0.00  0.00    +0.292 HD
ENDBRANCH   7  24
BRANCH  11  26
ATOM     26  O   UNL     1       7.115  -3.545  25.536  0.00  0.00    -0.453 OA
BRANCH  26  27
ATOM     27  C   UNL     1       6.245  -4.148  24.579  0.00  0.00    +0.340 C 
ATOM     28  O   UNL     1       5.247  -4.985  25.189  0.00  0.00    -0.331 OA
ATOM     29  C   UNL     1       4.676  -5.799  24.140  0.00  0.00    +0.184 C 
ATOM     30  C   UNL     1       5.659  -5.716  22.962  0.00  0.00    +0.180 C 
ATOM     31  C   UNL     1       6.917  -5.090  23.581  0.00  0.00    +0.214 C 
BRANCH  30  32
ATOM     32  O   UNL     1       5.913  -6.933  22.286  0.00  0.00    -0.386 OA
ATOM     33  H   UNL     1       5.172  -7.076  21.667  0.00  0.00    +0.210 HD
ENDBRANCH  30  32
BRANCH  31  34
ATOM     34  O   UNL     1       7.735  -4.431  22.616  0.00  0.00    -0.383 OA
ATOM     35  H   UNL     1       7.726  -4.944  21.788  0.00  0.00    +0.210 HD
ENDBRANCH  31  34
BRANCH  29  36
ATOM     36  C   UNL     1       4.347  -7.177  24.729  0.00  0.00    +0.171 C 
BRANCH  36  37
ATOM     37  O   UNL     1       3.368  -7.849  23.919  0.00  0.00    -0.387 OA
ATOM     38  H   UNL     1       3.867  -8.419  23.304  0.00  0.00    +0.210 HD
ENDBRANCH  36  37
BRANCH  36  39
ATOM     39  C   UNL     1       3.824  -7.093  26.164  0.00  0.00    +0.189 C 
BRANCH  39  40
ATOM     40  O   UNL     1       4.913  -7.271  27.073  0.00  0.00    -0.392 OA
ATOM     41  H   UNL     1       5.443  -8.013  26.738  0.00  0.00    +0.210 HD
ENDBRANCH  39  40
ENDBRANCH  36  39
ENDBRANCH  29  36
ENDBRANCH  26  27
ENDBRANCH  11  26
TORSDOF 13
ENDMDL
MODEL 8
REMARK VINA RESULT:      -6.4      2.080      5.801
REMARK  Name = 
REMARK  13 active torsions:
REMARK  status: ('A' for Active; 'I' for Inactive)
REMARK    1  A    between atoms: C_3  and  O_38
REMARK    2  A    between atoms: C_4  and  O_37
REMARK    3  A    between atoms: C_6  and  C_7
REMARK    4  A    between atoms: C_8  and  O_20
REMARK    5  A    between atoms: C_12  and  O_19
REMARK    6  A    between atoms: C_14  and  O_18
REMARK    7  A    between atoms: O_20  and  C_21
REMARK    8  A    between atoms: C_23  and  O_36
REMARK    9  A    between atoms: C_25  and  O_35
REMARK   10  A    between atoms: C_27  and  C_30
REMARK   11  A    between atoms: C_30  and  C_32
REMARK   12  A    between atoms: C_30  and  O_34
REMARK   13  A    between atoms: C_32  and  O_33
REMARK                            x       y       z     vdW  Elec       q    Type
REMARK                         _______ _______ _______ _____ _____    ______ ____
ROOT
ATOM      1  C   UNL     1       5.310  -1.725  25.963  0.00  0.00    +0.181 A 
ATOM      2  O   UNL     1       4.823  -2.722  26.827  0.00  0.00    -0.451 OA
ATOM      3  C   UNL     1       4.846  -4.034  26.422  0.00  0.00    +0.147 A 
ATOM      4  C   UNL     1       4.990  -4.384  25.092  0.00  0.00    +0.109 A 
ATOM      5  C   UNL     1       4.976  -5.726  24.688  0.00  0.00    +0.135 A 
ATOM      6  C   UNL     1       4.802  -6.732  25.628  0.00  0.00    +0.091 A 
ATOM      7  C   UNL     1       4.643  -6.375  26.966  0.00  0.00    +0.124 A 
ATOM      8  C   UNL     1       5.115  -3.303  24.131  0.00  0.00    +0.238 A 
ATOM      9  O   UNL     1       4.855  -3.546  22.954  0.00  0.00    -0.283 OA
ATOM     10  C   UNL     1       4.672  -5.036  27.371  0.00  0.00    +0.092 A 
ATOM     11  C   UNL     1       5.566  -1.965  24.648  0.00  0.00    +0.214 A 
ENDROOT
BRANCH   1  13
ATOM     12  C   UNL     1       4.659   0.683  26.573  0.00  0.00    +0.015 A 
ATOM     13  C   UNL     1       5.532  -0.417  26.681  0.00  0.00    +0.025 A 
ATOM     14  C   UNL     1       6.644  -0.253  27.537  0.00  0.00    +0.060 A 
ATOM     15  C   UNL     1       6.904   0.977  28.148  0.00  0.00    +0.159 A 
ATOM     16  C   UNL     1       6.091   2.072  27.913  0.00  0.00    +0.158 A 
ATOM     17  C   UNL     1       4.943   1.928  27.156  0.00  0.00    +0.050 A 
BRANCH  15  18
ATOM     18  O   UNL     1       7.984   1.105  28.978  0.00  0.00    -0.503 OA
ATOM     19  H   UNL     1       8.302   0.189  29.110  0.00  0.00    +0.292 HD
ENDBRANCH  15  18
BRANCH  16  20
ATOM     20  O   UNL     1       6.454   3.278  28.446  0.00  0.00    -0.503 OA
ATOM     21  H   UNL     1       5.732   3.906  28.268  0.00  0.00    +0.292 HD
ENDBRANCH  16  20
ENDBRANCH   1  13
BRANCH   5  22
ATOM     22  O   UNL     1       5.130  -6.115  23.384  0.00  0.00    -0.506 OA
ATOM     23  H   UNL     1       5.935  -6.677  23.337  0.00  0.00    +0.292 HD
ENDBRANCH   5  22
BRANCH   7  24
ATOM     24  O   UNL     1       4.455  -7.328  27.921  0.00  0.00    -0.507 OA
ATOM     25  H   UNL     1       4.928  -8.140  27.655  0.00  0.00    +0.292 HD
ENDBRANCH   7  24
BRANCH  11  26
ATOM     26  O   UNL     1       6.218  -1.063  23.805  0.00  0.00    -0.453 OA
BRANCH  26  27
ATOM     27  C   UNL     1       7.636  -1.221  23.754  0.00  0.00    +0.340 C 
ATOM     28  O   UNL     1       8.337   0.022  23.928  0.00  0.00    -0.331 OA
ATOM     29  C   UNL     1       9.703  -0.198  23.509  0.00  0.00    +0.184 C 
ATOM     30  C   UNL     1       9.686  -1.496  22.686  0.00  0.00    +0.180 C 
ATOM     31  C   UNL     1       8.192  -1.745  22.430  0.00  0.00    +0.214 C 
BRANCH  30  32
ATOM     32  O   UNL     1      10.462  -1.485  21.504  0.00  0.00    -0.386 OA
ATOM     33  H   UNL     1      11.188  -2.126  21.633  0.00  0.00    +0.210 HD
ENDBRANCH  30  32
BRANCH  31  34
ATOM     34  O   UNL     1       7.899  -3.118  22.176  0.00  0.00    -0.383 OA
ATOM     35  H   UNL     1       8.369  -3.399  21.371  0.00  0.00    +0.210 HD
ENDBRANCH  31  34
BRANCH  29  36
ATOM     36  C   UNL     1      10.213   1.087  22.845  0.00  0.00    +0.171 C 
BRANCH  36  37
ATOM     37  O   UNL     1      10.828   1.946  23.820  0.00  0.00    -0.387 OA
ATOM     38  H   UNL     1      10.693   2.860  23.502  0.00  0.00    +0.210 HD
ENDBRANCH  36  37
BRANCH  36  39
ATOM     39  C   UNL     1       9.101   1.864  22.138  0.00  0.00    +0.189 C 
BRANCH  39  40
ATOM     40  O   UNL     1       8.805   1.231  20.891  0.00  0.00    -0.392 OA
ATOM     41  H   UNL     1       9.014   1.872  20.191  0.00  0.00    +0.210 HD
ENDBRANCH  39  40
ENDBRANCH  36  39
ENDBRANCH  29  36
ENDBRANCH  26  27
ENDBRANCH  11  26
TORSDOF 13
ENDMDL
MODEL 9
REMARK VINA RESULT:      -6.4      2.638      7.078
REMARK  Name = 
REMARK  13 active torsions:
REMARK  status: ('A' for Active; 'I' for Inactive)
REMARK    1  A    between atoms: C_3  and  O_38
REMARK    2  A    between atoms: C_4  and  O_37
REMARK    3  A    between atoms: C_6  and  C_7
REMARK    4  A    between atoms: C_8  and  O_20
REMARK    5  A    between atoms: C_12  and  O_19
REMARK    6  A    between atoms: C_14  and  O_18
REMARK    7  A    between atoms: O_20  and  C_21
REMARK    8  A    between atoms: C_23  and  O_36
REMARK    9  A    between atoms: C_25  and  O_35
REMARK   10  A    between atoms: C_27  and  C_30
REMARK   11  A    between atoms: C_30  and  C_32
REMARK   12  A    between atoms: C_30  and  O_34
REMARK   13  A    between atoms: C_32  and  O_33
REMARK                            x       y       z     vdW  Elec       q    Type
REMARK                         _______ _______ _______ _____ _____    ______ ____
ROOT
ATOM      1  C   UNL     1       8.554   1.673  23.235  0.00  0.00    +0.181 A 
ATOM      2  O   UNL     1       9.875   2.090  22.999  0.00  0.00    -0.451 OA
ATOM      3  C   UNL     1      10.239   3.379  23.300  0.00  0.00    +0.147 A 
ATOM      4  C   UNL     1       9.300   4.377  23.488  0.00  0.00    +0.109 A 
ATOM      5  C   UNL     1       9.686   5.696  23.760  0.00  0.00    +0.135 A 
ATOM      6  C   UNL     1      11.031   6.025  23.833  0.00  0.00    +0.091 A 
ATOM      7  C   UNL     1      11.976   5.020  23.630  0.00  0.00    +0.124 A 
ATOM      8  C   UNL     1       7.903   4.007  23.351  0.00  0.00    +0.238 A 
ATOM      9  O   UNL     1       7.090   4.901  23.124  0.00  0.00    -0.283 OA
ATOM     10  C   UNL     1      11.591   3.700  23.372  0.00  0.00    +0.092 A 
ATOM     11  C   UNL     1       7.552   2.553  23.508  0.00  0.00    +0.214 A 
ENDROOT
BRANCH   1  13
ATOM     12  C   UNL     1       7.206  -0.486  22.889  0.00  0.00    +0.015 A 
ATOM     13  C   UNL     1       8.418   0.171  23.181  0.00  0.00    +0.025 A 
ATOM     14  C   UNL     1       9.543  -0.656  23.399  0.00  0.00    +0.060 A 
ATOM     15  C   UNL     1       9.416  -2.047  23.427  0.00  0.00    +0.159 A 
ATOM     16  C   UNL     1       8.181  -2.651  23.262  0.00  0.00    +0.158 A 
ATOM     17  C   UNL     1       7.074  -1.881  22.956  0.00  0.00    +0.050 A 
BRANCH  15  18
ATOM     18  O   UNL     1      10.523  -2.822  23.633  0.00  0.00    -0.503 OA
ATOM     19  H   UNL     1      10.186  -3.741  23.622  0.00  0.00    +0.292 HD
ENDBRANCH  15  18
BRANCH  16  20
ATOM     20  O   UNL     1       8.096  -4.007  23.411  0.00  0.00    -0.503 OA
ATOM     21  H   UNL     1       7.215  -4.207  23.775  0.00  0.00    +0.292 HD
ENDBRANCH  16  20
ENDBRANCH   1  13
BRANCH   5  22
ATOM     22  O   UNL     1       8.787   6.710  23.967  0.00  0.00    -0.506 OA
ATOM     23  H   UNL     1       8.926   7.044  24.881  0.00  0.00    +0.292 HD
ENDBRANCH   5  22
BRANCH   7  24
ATOM     24  O   UNL     1      13.308   5.299  23.676  0.00  0.00    -0.507 OA
ATOM     25  H   UNL     1      13.662   5.009  24.539  0.00  0.00    +0.292 HD
ENDBRANCH   7  24
BRANCH  11  26
ATOM     26  O   UNL     1       6.275   2.174  23.928  0.00  0.00    -0.453 OA
BRANCH  26  27
ATOM     27  C   UNL     1       6.055   2.292  25.333  0.00  0.00    +0.340 C 
ATOM     28  O   UNL     1       7.137   1.747  26.109  0.00  0.00    -0.331 OA
ATOM     29  C   UNL     1       6.655   1.598  27.464  0.00  0.00    +0.184 C 
ATOM     30  C   UNL     1       5.122   1.681  27.376  0.00  0.00    +0.180 C 
ATOM     31  C   UNL     1       4.836   1.546  25.873  0.00  0.00    +0.214 C 
BRANCH  30  32
ATOM     32  O   UNL     1       4.410   0.750  28.168  0.00  0.00    -0.386 OA
ATOM     33  H   UNL     1       4.407  -0.096  27.681  0.00  0.00    +0.210 HD
ENDBRANCH  30  32
BRANCH  31  34
ATOM     34  O   UNL     1       3.586   2.120  25.497  0.00  0.00    -0.383 OA
ATOM     35  H   UNL     1       3.100   2.378  26.301  0.00  0.00    +0.210 HD
ENDBRANCH  31  34
BRANCH  29  36
ATOM     36  C   UNL     1       7.291   0.337  28.063  0.00  0.00    +0.171 C 
BRANCH  36  37
ATOM     37  O   UNL     1       8.318   0.692  29.003  0.00  0.00    -0.387 OA
ATOM     38  H   UNL     1       8.349  -0.031  29.659  0.00  0.00    +0.210 HD
ENDBRANCH  36  37
BRANCH  36  39
ATOM     39  C   UNL     1       7.895  -0.579  26.997  0.00  0.00    +0.189 C 
BRANCH  39  40
ATOM     40  O   UNL     1       9.304  -0.352  26.926  0.00  0.00    -0.392 OA
ATOM     41  H   UNL     1       9.443   0.604  27.034  0.00  0.00    +0.210 HD
ENDBRANCH  39  40
ENDBRANCH  36  39
ENDBRANCH  29  36
ENDBRANCH  26  27
ENDBRANCH  11  26
TORSDOF 13
ENDMDL
