MODEL 1
REMARK VINA RESULT:      -6.7      0.000      0.000
REMARK  Name = 
REMARK  24 active torsions:
REMARK  status: ('A' for Active; 'I' for Inactive)
REMARK    1  A    between atoms: C_1  and  C_2
REMARK    2  A    between atoms: C_3  and  O_64
REMARK    3  A    between atoms: C_5  and  O_63
REMARK    4  A    between atoms: C_6  and  O_62
REMARK    5  A    between atoms: C_8  and  O_11
REMARK    6  A    between atoms: O_11  and  C_12
REMARK    7  A    between atoms: C_13  and  O_61
REMARK    8  A    between atoms: C_15  and  O_60
REMARK    9  A    between atoms: C_17  and  C_44
REMARK   10  A    between atoms: C_19  and  O_21
REMARK   11  A    between atoms: O_21  and  C_22
REMARK   12  A    between atoms: C_23  and  C_35
REMARK   13  A    between atoms: C_27  and  O_34
REMARK   14  A    between atoms: C_29  and  O_33
REMARK   15  A    between atoms: C_37  and  O_42
REMARK   16  A    between atoms: C_38  and  O_41
REMARK   17  A    between atoms: O_42  and  C_43
REMARK   18  A    between atoms: C_44  and  O_45
REMARK   19  A    between atoms: O_45  and  C_46
REMARK   20  A    between atoms: C_48  and  O_59
REMARK   21  A    between atoms: C_49  and  O_58
REMARK   22  A    between atoms: C_51  and  O_57
REMARK   23  A    between atoms: C_53  and  C_55
REMARK   24  A    between atoms: C_55  and  O_56
REMARK                            x       y       z     vdW  Elec       q    Type
REMARK                         _______ _______ _______ _____ _____    ______ ____
ROOT
ATOM      1  C   UNL     1       5.614  -1.017  26.689  0.00  0.00    +0.221 C 
ATOM      2  C   UNL     1       7.143  -0.700  26.716  0.00  0.00    +0.340 C 
ATOM      3  O   UNL     1       7.432   0.234  27.782  0.00  0.00    -0.331 OA
ATOM      4  C   UNL     1       6.740   1.508  27.609  0.00  0.00    +0.179 C 
ATOM      5  C   UNL     1       5.214   1.299  27.604  0.00  0.00    +0.177 C 
ATOM      6  C   UNL     1       4.853   0.320  26.481  0.00  0.00    +0.180 C 
ENDROOT
BRANCH   5   7
ATOM      7  O   UNL     1       4.502   2.524  27.418  0.00  0.00    -0.386 OA
ATOM      8  H   UNL     1       4.082   2.725  28.278  0.00  0.00    +0.210 HD
ENDBRANCH   5   7
BRANCH   6   9
ATOM      9  O   UNL     1       3.423   0.221  26.389  0.00  0.00    -0.386 OA
ATOM     10  H   UNL     1       3.212  -0.096  25.493  0.00  0.00    +0.210 HD
ENDBRANCH   6   9
BRANCH   4  11
ATOM     11  C   UNL     1       7.234   2.247  26.339  0.00  0.00    +0.197 C 
BRANCH  11  12
ATOM     12  O   UNL     1       6.353   3.160  25.696  0.00  0.00    -0.346 OA
BRANCH  12  13
ATOM     13  C   UNL     1       6.097   2.968  24.304  0.00  0.00    +0.282 C 
ATOM     14  O   UNL     1       7.056   3.743  23.558  0.00  0.00    -0.341 OA
ATOM     15  C   UNL     1       7.023   5.143  23.907  0.00  0.00    +0.178 C 
ATOM     16  C   UNL     1       5.625   5.759  23.637  0.00  0.00    +0.177 C 
ATOM     17  C   UNL     1       4.505   4.909  24.266  0.00  0.00    +0.179 C 
ATOM     18  C   UNL     1       4.689   3.429  23.883  0.00  0.00    +0.201 C 
BRANCH  18  19
ATOM     19  O   UNL     1       3.651   2.608  24.428  0.00  0.00    -0.384 OA
ATOM     20  H   UNL     1       2.864   2.717  23.863  0.00  0.00    +0.210 HD
ENDBRANCH  18  19
BRANCH  17  21
ATOM     21  O   UNL     1       4.446   5.100  25.686  0.00  0.00    -0.386 OA
ATOM     22  H   UNL     1       4.744   6.015  25.871  0.00  0.00    +0.210 HD
ENDBRANCH  17  21
BRANCH  16  23
ATOM     23  O   UNL     1       5.357   5.835  22.235  0.00  0.00    -0.386 OA
ATOM     24  H   UNL     1       5.589   4.972  21.846  0.00  0.00    +0.210 HD
ENDBRANCH  16  23
BRANCH  15  25
ATOM     25  C   UNL     1       8.182   5.843  23.176  0.00  0.00    +0.190 C 
BRANCH  25  26
ATOM     26  O   UNL     1       9.326   5.020  22.985  0.00  0.00    -0.392 OA
ATOM     27  H   UNL     1      10.101   5.601  23.098  0.00  0.00    +0.210 HD
ENDBRANCH  25  26
ENDBRANCH  15  25
ENDBRANCH  12  13
ENDBRANCH  11  12
ENDBRANCH   4  11
BRANCH   2  28
ATOM     28  O   UNL     1       7.964  -1.902  26.735  0.00  0.00    -0.453 OA
BRANCH  28  29
ATOM     29  C   UNL     1       7.954  -2.669  25.550  0.00  0.00    +0.214 A 
ATOM     30  C   UNL     1       7.349  -4.055  25.512  0.00  0.00    +0.238 A 
ATOM     31  O   UNL     1       7.249  -4.772  26.506  0.00  0.00    -0.283 OA
ATOM     32  C   UNL     1       6.897  -4.580  24.233  0.00  0.00    +0.109 A 
ATOM     33  C   UNL     1       7.530  -4.067  23.117  0.00  0.00    +0.147 A 
ATOM     34  C   UNL     1       7.253  -4.580  21.852  0.00  0.00    +0.092 A 
ATOM     35  C   UNL     1       6.332  -5.614  21.726  0.00  0.00    +0.124 A 
ATOM     36  C   UNL     1       5.664  -6.119  22.837  0.00  0.00    +0.091 A 
ATOM     37  O   UNL     1       8.451  -3.068  23.218  0.00  0.00    -0.451 OA
ATOM     38  C   UNL     1       5.942  -5.596  24.099  0.00  0.00    +0.135 A 
ATOM     39  C   UNL     1       8.468  -2.252  24.361  0.00  0.00    +0.181 A 
BRANCH  39  40
ATOM     40  C   UNL     1       9.154  -0.963  24.014  0.00  0.00    +0.025 A 
ATOM     41  C   UNL     1      10.193  -0.525  24.880  0.00  0.00    +0.015 A 
ATOM     42  C   UNL     1      10.786   0.733  24.769  0.00  0.00    +0.050 A 
ATOM     43  C   UNL     1      10.382   1.567  23.749  0.00  0.00    +0.158 A 
ATOM     44  C   UNL     1       9.407   1.156  22.836  0.00  0.00    +0.162 A 
ATOM     45  C   UNL     1       8.770  -0.092  22.982  0.00  0.00    +0.061 A 
BRANCH  44  46
ATOM     46  O   UNL     1       9.115   2.077  21.860  0.00  0.00    -0.491 OA
ATOM     47  C   UNL     1       7.943   1.777  21.110  0.00  0.00    +0.277 C 
ENDBRANCH  44  46
BRANCH  43  48
ATOM     48  O   UNL     1      10.976   2.794  23.647  0.00  0.00    -0.503 OA
ATOM     49  H   UNL     1      11.767   2.651  23.093  0.00  0.00    +0.292 HD
ENDBRANCH  43  48
ENDBRANCH  39  40
BRANCH  38  50
ATOM     50  O   UNL     1       5.255  -6.065  25.182  0.00  0.00    -0.506 OA
ATOM     51  H   UNL     1       5.878  -6.276  25.895  0.00  0.00    +0.292 HD
ENDBRANCH  38  50
BRANCH  35  52
ATOM     52  O   UNL     1       6.031  -6.159  20.516  0.00  0.00    -0.507 OA
ATOM     53  H   UNL     1       5.113  -6.474  20.522  0.00  0.00    +0.292 HD
ENDBRANCH  35  52
ENDBRANCH  28  29
ENDBRANCH   2  28
BRANCH   1  54
ATOM     54  O   UNL     1       5.191  -1.756  27.860  0.00  0.00    -0.337 OA
BRANCH  54  58
ATOM     55  C   UNL     1       2.565  -3.924  25.387  0.00  0.00    +0.041 C 
ATOM     56  C   UNL     1       2.189  -3.603  26.840  0.00  0.00    +0.149 C 
ATOM     57  O   UNL     1       2.991  -2.533  27.391  0.00  0.00    -0.343 OA
ATOM     58  C   UNL     1       4.374  -2.894  27.537  0.00  0.00    +0.282 C 
ATOM     59  C   UNL     1       4.518  -4.080  28.530  0.00  0.00    +0.201 C 
ATOM     60  C   UNL     1       3.692  -5.262  28.031  0.00  0.00    +0.179 C 
ATOM     61  C   UNL     1       2.247  -4.845  27.748  0.00  0.00    +0.174 C 
BRANCH  59  62
ATOM     62  O   UNL     1       4.098  -3.698  29.854  0.00  0.00    -0.384 OA
ATOM     63  H   UNL     1       3.139  -3.533  29.792  0.00  0.00    +0.210 HD
ENDBRANCH  59  62
BRANCH  60  64
ATOM     64  O   UNL     1       3.730  -6.306  29.015  0.00  0.00    -0.386 OA
ATOM     65  H   UNL     1       2.805  -6.622  29.091  0.00  0.00    +0.210 HD
ENDBRANCH  60  64
BRANCH  61  66
ATOM     66  O   UNL     1       1.616  -4.558  29.009  0.00  0.00    -0.387 OA
ATOM     67  H   UNL     1       1.729  -3.592  29.157  0.00  0.00    +0.210 HD
ENDBRANCH  61  66
ENDBRANCH  54  58
ENDBRANCH   1  54
TORSDOF 22
ENDMDL
MODEL 2
REMARK VINA RESULT:      -6.5      1.944      8.566
REMARK  Name = 
REMARK  24 active torsions:
REMARK  status: ('A' for Active; 'I' for Inactive)
REMARK    1  A    between atoms: C_1  and  C_2
REMARK    2  A    between atoms: C_3  and  O_64
REMARK    3  A    between atoms: C_5  and  O_63
REMARK    4  A    between atoms: C_6  and  O_62
REMARK    5  A    between atoms: C_8  and  O_11
REMARK    6  A    between atoms: O_11  and  C_12
REMARK    7  A    between atoms: C_13  and  O_61
REMARK    8  A    between atoms: C_15  and  O_60
REMARK    9  A    between atoms: C_17  and  C_44
REMARK   10  A    between atoms: C_19  and  O_21
REMARK   11  A    between atoms: O_21  and  C_22
REMARK   12  A    between atoms: C_23  and  C_35
REMARK   13  A    between atoms: C_27  and  O_34
REMARK   14  A    between atoms: C_29  and  O_33
REMARK   15  A    between atoms: C_37  and  O_42
REMARK   16  A    between atoms: C_38  and  O_41
REMARK   17  A    between atoms: O_42  and  C_43
REMARK   18  A    between atoms: C_44  and  O_45
REMARK   19  A    between atoms: O_45  and  C_46
REMARK   20  A    between atoms: C_48  and  O_59
REMARK   21  A    between atoms: C_49  and  O_58
REMARK   22  A    between atoms: C_51  and  O_57
REMARK   23  A    between atoms: C_53  and  C_55
REMARK   24  A    between atoms: C_55  and  O_56
REMARK                            x       y       z     vdW  Elec       q    Type
REMARK                         _______ _______ _______ _____ _____    ______ ____
ROOT
ATOM      1  C   UNL     1       5.390   1.804  26.277  0.00  0.00    +0.221 C 
ATOM      2  C   UNL     1       5.882   0.953  25.064  0.00  0.00    +0.340 C 
ATOM      3  O   UNL     1       5.046  -0.217  24.914  0.00  0.00    -0.331 OA
ATOM      4  C   UNL     1       5.091  -1.088  26.086  0.00  0.00    +0.179 C 
ATOM      5  C   UNL     1       4.588  -0.341  27.334  0.00  0.00    +0.177 C 
ATOM      6  C   UNL     1       5.450   0.909  27.544  0.00  0.00    +0.180 C 
ENDROOT
BRANCH   5   7
ATOM      7  O   UNL     1       4.634  -1.157  28.507  0.00  0.00    -0.386 OA
ATOM      8  H   UNL     1       4.572  -2.081  28.195  0.00  0.00    +0.210 HD
ENDBRANCH   5   7
BRANCH   6   9
ATOM      9  O   UNL     1       5.069   1.539  28.777  0.00  0.00    -0.386 OA
ATOM     10  H   UNL     1       4.194   1.944  28.637  0.00  0.00    +0.210 HD
ENDBRANCH   6   9
BRANCH   4  11
ATOM     11  C   UNL     1       6.509  -1.681  26.290  0.00  0.00    +0.197 C 
BRANCH  11  12
ATOM     12  O   UNL     1       6.627  -3.006  26.792  0.00  0.00    -0.346 OA
BRANCH  12  13
ATOM     13  C   UNL     1       5.591  -3.934  26.466  0.00  0.00    +0.282 C 
ATOM     14  O   UNL     1       4.834  -4.203  27.663  0.00  0.00    -0.341 OA
ATOM     15  C   UNL     1       5.661  -4.698  28.737  0.00  0.00    +0.178 C 
ATOM     16  C   UNL     1       6.374  -6.017  28.339  0.00  0.00    +0.177 C 
ATOM     17  C   UNL     1       7.089  -5.882  26.982  0.00  0.00    +0.179 C 
ATOM     18  C   UNL     1       6.131  -5.277  25.939  0.00  0.00    +0.201 C 
BRANCH  18  19
ATOM     19  O   UNL     1       6.752  -5.159  24.655  0.00  0.00    -0.384 OA
ATOM     20  H   UNL     1       6.370  -5.848  24.081  0.00  0.00    +0.210 HD
ENDBRANCH  18  19
BRANCH  17  21
ATOM     21  O   UNL     1       8.301  -5.126  27.109  0.00  0.00    -0.386 OA
ATOM     22  H   UNL     1       8.071  -4.181  26.988  0.00  0.00    +0.210 HD
ENDBRANCH  17  21
BRANCH  16  23
ATOM     23  O   UNL     1       5.439  -7.091  28.215  0.00  0.00    -0.386 OA
ATOM     24  H   UNL     1       4.957  -7.159  29.059  0.00  0.00    +0.210 HD
ENDBRANCH  16  23
BRANCH  15  25
ATOM     25  C   UNL     1       4.788  -4.800  30.001  0.00  0.00    +0.190 C 
BRANCH  25  26
ATOM     26  O   UNL     1       4.281  -3.551  30.455  0.00  0.00    -0.392 OA
ATOM     27  H   UNL     1       4.105  -3.659  31.408  0.00  0.00    +0.210 HD
ENDBRANCH  25  26
ENDBRANCH  15  25
ENDBRANCH  12  13
ENDBRANCH  11  12
ENDBRANCH   4  11
BRANCH   2  28
ATOM     28  O   UNL     1       6.029   1.743  23.850  0.00  0.00    -0.453 OA
BRANCH  28  29
ATOM     29  C   UNL     1       7.338   2.189  23.565  0.00  0.00    +0.214 A 
ATOM     30  C   UNL     1       7.633   3.647  23.292  0.00  0.00    +0.238 A 
ATOM     31  O   UNL     1       6.791   4.434  22.861  0.00  0.00    -0.283 OA
ATOM     32  C   UNL     1       8.984   4.136  23.516  0.00  0.00    +0.109 A 
ATOM     33  C   UNL     1       9.988   3.192  23.409  0.00  0.00    +0.147 A 
ATOM     34  C   UNL     1      11.325   3.573  23.494  0.00  0.00    +0.092 A 
ATOM     35  C   UNL     1      11.637   4.914  23.687  0.00  0.00    +0.124 A 
ATOM     36  C   UNL     1      10.636   5.871  23.829  0.00  0.00    +0.091 A 
ATOM     37  O   UNL     1       9.707   1.876  23.198  0.00  0.00    -0.451 OA
ATOM     38  C   UNL     1       9.301   5.480  23.749  0.00  0.00    +0.135 A 
ATOM     39  C   UNL     1       8.430   1.380  23.510  0.00  0.00    +0.181 A 
BRANCH  39  40
ATOM     40  C   UNL     1       8.533  -0.105  23.705  0.00  0.00    +0.025 A 
ATOM     41  C   UNL     1       9.435  -0.569  24.701  0.00  0.00    +0.015 A 
ATOM     42  C   UNL     1       9.753  -1.918  24.861  0.00  0.00    +0.050 A 
ATOM     43  C   UNL     1       9.130  -2.844  24.053  0.00  0.00    +0.158 A 
ATOM     44  C   UNL     1       8.190  -2.442  23.100  0.00  0.00    +0.162 A 
ATOM     45  C   UNL     1       7.913  -1.075  22.902  0.00  0.00    +0.061 A 
BRANCH  44  46
ATOM     46  O   UNL     1       7.634  -3.468  22.378  0.00  0.00    -0.491 OA
ATOM     47  C   UNL     1       6.333  -3.186  21.874  0.00  0.00    +0.277 C 
ENDBRANCH  44  46
BRANCH  43  48
ATOM     48  O   UNL     1       9.444  -4.164  24.224  0.00  0.00    -0.503 OA
ATOM     49  H   UNL     1      10.319  -4.276  23.806  0.00  0.00    +0.292 HD
ENDBRANCH  43  48
ENDBRANCH  39  40
BRANCH  38  50
ATOM     50  O   UNL     1       8.321   6.414  23.929  0.00  0.00    -0.506 OA
ATOM     51  H   UNL     1       8.700   7.303  23.834  0.00  0.00    +0.292 HD
ENDBRANCH  38  50
BRANCH  35  52
ATOM     52  O   UNL     1      12.926   5.343  23.768  0.00  0.00    -0.507 OA
ATOM     53  H   UNL     1      13.491   4.779  23.217  0.00  0.00    +0.292 HD
ENDBRANCH  35  52
ENDBRANCH  28  29
ENDBRANCH   2  28
BRANCH   1  54
ATOM     54  O   UNL     1       4.088   2.392  26.038  0.00  0.00    -0.337 OA
BRANCH  54  58
ATOM     55  C   UNL     1       3.228   5.844  28.285  0.00  0.00    +0.041 C 
ATOM     56  C   UNL     1       2.691   5.684  26.856  0.00  0.00    +0.149 C 
ATOM     57  O   UNL     1       2.730   4.311  26.405  0.00  0.00    -0.343 OA
ATOM     58  C   UNL     1       4.068   3.813  26.255  0.00  0.00    +0.282 C 
ATOM     59  C   UNL     1       4.828   4.630  25.173  0.00  0.00    +0.201 C 
ATOM     60  C   UNL     1       4.831   6.105  25.563  0.00  0.00    +0.179 C 
ATOM     61  C   UNL     1       3.413   6.602  25.854  0.00  0.00    +0.174 C 
BRANCH  59  62
ATOM     62  O   UNL     1       4.224   4.454  23.877  0.00  0.00    -0.384 OA
ATOM     63  H   UNL     1       4.128   3.491  23.756  0.00  0.00    +0.210 HD
ENDBRANCH  59  62
BRANCH  60  64
ATOM     64  O   UNL     1       5.422   6.866  24.500  0.00  0.00    -0.386 OA
ATOM     65  H   UNL     1       5.498   7.780  24.848  0.00  0.00    +0.210 HD
ENDBRANCH  60  64
BRANCH  61  66
ATOM     66  O   UNL     1       2.691   6.629  24.609  0.00  0.00    -0.387 OA
ATOM     67  H   UNL     1       2.942   7.471  24.166  0.00  0.00    +0.210 HD
ENDBRANCH  61  66
ENDBRANCH  54  58
ENDBRANCH   1  54
TORSDOF 22
ENDMDL
MODEL 3
REMARK VINA RESULT:      -6.4      1.713      8.277
REMARK  Name = 
REMARK  24 active torsions:
REMARK  status: ('A' for Active; 'I' for Inactive)
REMARK    1  A    between atoms: C_1  and  C_2
REMARK    2  A    between atoms: C_3  and  O_64
REMARK    3  A    between atoms: C_5  and  O_63
REMARK    4  A    between atoms: C_6  and  O_62
REMARK    5  A    between atoms: C_8  and  O_11
REMARK    6  A    between atoms: O_11  and  C_12
REMARK    7  A    between atoms: C_13  and  O_61
REMARK    8  A    between atoms: C_15  and  O_60
REMARK    9  A    between atoms: C_17  and  C_44
REMARK   10  A    between atoms: C_19  and  O_21
REMARK   11  A    between atoms: O_21  and  C_22
REMARK   12  A    between atoms: C_23  and  C_35
REMARK   13  A    between atoms: C_27  and  O_34
REMARK   14  A    between atoms: C_29  and  O_33
REMARK   15  A    between atoms: C_37  and  O_42
REMARK   16  A    between atoms: C_38  and  O_41
REMARK   17  A    between atoms: O_42  and  C_43
REMARK   18  A    between atoms: C_44  and  O_45
REMARK   19  A    between atoms: O_45  and  C_46
REMARK   20  A    between atoms: C_48  and  O_59
REMARK   21  A    between atoms: C_49  and  O_58
REMARK   22  A    between atoms: C_51  and  O_57
REMARK   23  A    between atoms: C_53  and  C_55
REMARK   24  A    between atoms: C_55  and  O_56
REMARK                            x       y       z     vdW  Elec       q    Type
REMARK                         _______ _______ _______ _____ _____    ______ ____
ROOT
ATOM      1  C   UNL     1       8.145   0.664  23.795  0.00  0.00    +0.221 C 
ATOM      2  C   UNL     1       7.843  -0.759  24.362  0.00  0.00    +0.340 C 
ATOM      3  O   UNL     1       8.803  -1.708  23.843  0.00  0.00    -0.331 OA
ATOM      4  C   UNL     1       8.750  -1.814  22.387  0.00  0.00    +0.179 C 
ATOM      5  C   UNL     1       9.070  -0.457  21.733  0.00  0.00    +0.177 C 
ATOM      6  C   UNL     1       8.071   0.586  22.246  0.00  0.00    +0.180 C 
ENDROOT
BRANCH   5   7
ATOM      7  O   UNL     1       9.009  -0.517  20.307  0.00  0.00    -0.386 OA
ATOM      8  H   UNL     1       9.824  -0.975  20.022  0.00  0.00    +0.210 HD
ENDBRANCH   5   7
BRANCH   6   9
ATOM      9  O   UNL     1       8.284   1.822  21.544  0.00  0.00    -0.386 OA
ATOM     10  H   UNL     1       8.824   1.620  20.760  0.00  0.00    +0.210 HD
ENDBRANCH   6   9
BRANCH   4  11
ATOM     11  C   UNL     1       7.387  -2.384  21.916  0.00  0.00    +0.197 C 
BRANCH  11  12
ATOM     12  O   UNL     1       6.848  -3.510  22.597  0.00  0.00    -0.346 OA
BRANCH  12  13
ATOM     13  C   UNL     1       5.885  -4.306  21.905  0.00  0.00    +0.282 C 
ATOM     14  O   UNL     1       4.628  -4.201  22.604  0.00  0.00    -0.341 OA
ATOM     15  C   UNL     1       4.734  -4.594  23.988  0.00  0.00    +0.178 C 
ATOM     16  C   UNL     1       5.212  -6.064  24.123  0.00  0.00    +0.177 C 
ATOM     17  C   UNL     1       6.474  -6.323  23.279  0.00  0.00    +0.179 C 
ATOM     18  C   UNL     1       6.268  -5.797  21.846  0.00  0.00    +0.201 C 
BRANCH  18  19
ATOM     19  O   UNL     1       7.411  -6.043  21.022  0.00  0.00    -0.384 OA
ATOM     20  H   UNL     1       7.853  -5.187  20.871  0.00  0.00    +0.210 HD
ENDBRANCH  18  19
BRANCH  17  21
ATOM     21  O   UNL     1       7.638  -5.762  23.902  0.00  0.00    -0.386 OA
ATOM     22  H   UNL     1       7.605  -4.793  23.763  0.00  0.00    +0.210 HD
ENDBRANCH  17  21
BRANCH  16  23
ATOM     23  O   UNL     1       4.210  -6.976  23.670  0.00  0.00    -0.386 OA
ATOM     24  H   UNL     1       4.004  -7.576  24.409  0.00  0.00    +0.210 HD
ENDBRANCH  16  23
BRANCH  15  25
ATOM     25  C   UNL     1       3.387  -4.295  24.671  0.00  0.00    +0.190 C 
BRANCH  25  26
ATOM     26  O   UNL     1       3.170  -2.916  24.943  0.00  0.00    -0.392 OA
ATOM     27  H   UNL     1       3.874  -2.647  25.563  0.00  0.00    +0.210 HD
ENDBRANCH  25  26
ENDBRANCH  15  25
ENDBRANCH  12  13
ENDBRANCH  11  12
ENDBRANCH   4  11
BRANCH   2  28
ATOM     28  O   UNL     1       7.718  -0.768  25.812  0.00  0.00    -0.453 OA
BRANCH  28  29
ATOM     29  C   UNL     1       6.724  -1.623  26.335  0.00  0.00    +0.214 A 
ATOM     30  C   UNL     1       6.933  -3.120  26.416  0.00  0.00    +0.238 A 
ATOM     31  O   UNL     1       7.703  -3.732  25.677  0.00  0.00    -0.283 OA
ATOM     32  C   UNL     1       6.163  -3.877  27.390  0.00  0.00    +0.109 A 
ATOM     33  C   UNL     1       4.950  -3.324  27.755  0.00  0.00    +0.147 A 
ATOM     34  C   UNL     1       4.083  -4.019  28.594  0.00  0.00    +0.092 A 
ATOM     35  C   UNL     1       4.453  -5.276  29.060  0.00  0.00    +0.124 A 
ATOM     36  C   UNL     1       5.684  -5.831  28.727  0.00  0.00    +0.091 A 
ATOM     37  O   UNL     1       4.557  -2.103  27.293  0.00  0.00    -0.451 OA
ATOM     38  C   UNL     1       6.549  -5.126  27.891  0.00  0.00    +0.135 A 
ATOM     39  C   UNL     1       5.518  -1.203  26.805  0.00  0.00    +0.181 A 
BRANCH  39  40
ATOM     40  C   UNL     1       4.948   0.184  26.875  0.00  0.00    +0.025 A 
ATOM     41  C   UNL     1       4.063   0.469  27.950  0.00  0.00    +0.015 A 
ATOM     42  C   UNL     1       3.333   1.656  28.030  0.00  0.00    +0.050 A 
ATOM     43  C   UNL     1       3.514   2.610  27.052  0.00  0.00    +0.158 A 
ATOM     44  C   UNL     1       4.419   2.400  26.009  0.00  0.00    +0.162 A 
ATOM     45  C   UNL     1       5.113   1.179  25.899  0.00  0.00    +0.061 A 
BRANCH  44  46
ATOM     46  O   UNL     1       4.514   3.440  25.117  0.00  0.00    -0.491 OA
ATOM     47  C   UNL     1       4.490   3.038  23.751  0.00  0.00    +0.277 C 
ENDBRANCH  44  46
BRANCH  43  48
ATOM     48  O   UNL     1       2.798   3.772  27.146  0.00  0.00    -0.503 OA
ATOM     49  H   UNL     1       3.163   4.236  27.923  0.00  0.00    +0.292 HD
ENDBRANCH  43  48
ENDBRANCH  39  40
BRANCH  38  50
ATOM     50  O   UNL     1       7.773  -5.655  27.599  0.00  0.00    -0.506 OA
ATOM     51  H   UNL     1       8.409  -5.400  28.287  0.00  0.00    +0.292 HD
ENDBRANCH  38  50
BRANCH  35  52
ATOM     52  O   UNL     1       3.641  -6.003  29.875  0.00  0.00    -0.507 OA
ATOM     53  H   UNL     1       3.768  -5.722  30.795  0.00  0.00    +0.292 HD
ENDBRANCH  35  52
ENDBRANCH  28  29
ENDBRANCH   2  28
BRANCH   1  54
ATOM     54  O   UNL     1       9.396   1.196  24.295  0.00  0.00    -0.337 OA
BRANCH  54  58
ATOM     55  C   UNL     1       7.930   4.671  26.161  0.00  0.00    +0.041 C 
ATOM     56  C   UNL     1       7.915   4.535  24.633  0.00  0.00    +0.149 C 
ATOM     57  O   UNL     1       8.060   3.163  24.202  0.00  0.00    -0.343 OA
ATOM     58  C   UNL     1       9.351   2.616  24.515  0.00  0.00    +0.282 C 
ATOM     59  C   UNL     1      10.464   3.407  23.774  0.00  0.00    +0.201 C 
ATOM     60  C   UNL     1      10.383   4.880  24.164  0.00  0.00    +0.179 C 
ATOM     61  C   UNL     1       8.969   5.429  23.955  0.00  0.00    +0.174 C 
BRANCH  59  62
ATOM     62  O   UNL     1      10.340   3.259  22.347  0.00  0.00    -0.384 OA
ATOM     63  H   UNL     1      11.217   2.970  22.032  0.00  0.00    +0.210 HD
ENDBRANCH  59  62
BRANCH  60  64
ATOM     64  O   UNL     1      11.330   5.622  23.382  0.00  0.00    -0.386 OA
ATOM     65  H   UNL     1      11.198   6.560  23.638  0.00  0.00    +0.210 HD
ENDBRANCH  60  64
BRANCH  61  66
ATOM     66  O   UNL     1       8.723   5.487  22.539  0.00  0.00    -0.387 OA
ATOM     67  H   UNL     1       7.745   5.505  22.433  0.00  0.00    +0.210 HD
ENDBRANCH  61  66
ENDBRANCH  54  58
ENDBRANCH   1  54
TORSDOF 22
ENDMDL
MODEL 4
REMARK VINA RESULT:      -6.4      2.247      8.492
REMARK  Name = 
REMARK  24 active torsions:
REMARK  status: ('A' for Active; 'I' for Inactive)
REMARK    1  A    between atoms: C_1  and  C_2
REMARK    2  A    between atoms: C_3  and  O_64
REMARK    3  A    between atoms: C_5  and  O_63
REMARK    4  A    between atoms: C_6  and  O_62
REMARK    5  A    between atoms: C_8  and  O_11
REMARK    6  A    between atoms: O_11  and  C_12
REMARK    7  A    between atoms: C_13  and  O_61
REMARK    8  A    between atoms: C_15  and  O_60
REMARK    9  A    between atoms: C_17  and  C_44
REMARK   10  A    between atoms: C_19  and  O_21
REMARK   11  A    between atoms: O_21  and  C_22
REMARK   12  A    between atoms: C_23  and  C_35
REMARK   13  A    between atoms: C_27  and  O_34
REMARK   14  A    between atoms: C_29  and  O_33
REMARK   15  A    between atoms: C_37  and  O_42
REMARK   16  A    between atoms: C_38  and  O_41
REMARK   17  A    between atoms: O_42  and  C_43
REMARK   18  A    between atoms: C_44  and  O_45
REMARK   19  A    between atoms: O_45  and  C_46
REMARK   20  A    between atoms: C_48  and  O_59
REMARK   21  A    between atoms: C_49  and  O_58
REMARK   22  A    between atoms: C_51  and  O_57
REMARK   23  A    between atoms: C_53  and  C_55
REMARK   24  A    between atoms: C_55  and  O_56
REMARK                            x       y       z     vdW  Elec       q    Type
REMARK                         _______ _______ _______ _____ _____    ______ ____
ROOT
ATOM      1  C   UNL     1       6.084   1.914  26.415  0.00  0.00    +0.221 C 
ATOM      2  C   UNL     1       6.106   1.186  25.033  0.00  0.00    +0.340 C 
ATOM      3  O   UNL     1       4.978   0.286  24.935  0.00  0.00    -0.331 OA
ATOM      4  C   UNL     1       5.004  -0.754  25.959  0.00  0.00    +0.179 C 
ATOM      5  C   UNL     1       4.950  -0.130  27.366  0.00  0.00    +0.177 C 
ATOM      6  C   UNL     1       6.135   0.830  27.525  0.00  0.00    +0.180 C 
ENDROOT
BRANCH   5   7
ATOM      7  O   UNL     1       4.993  -1.118  28.398  0.00  0.00    -0.386 OA
ATOM      8  H   UNL     1       5.917  -1.136  28.716  0.00  0.00    +0.210 HD
ENDBRANCH   5   7
BRANCH   6   9
ATOM      9  O   UNL     1       6.164   1.317  28.877  0.00  0.00    -0.386 OA
ATOM     10  H   UNL     1       6.997   1.807  28.990  0.00  0.00    +0.210 HD
ENDBRANCH   6   9
BRANCH   4  11
ATOM     11  C   UNL     1       6.227  -1.689  25.779  0.00  0.00    +0.197 C 
BRANCH  11  12
ATOM     12  O   UNL     1       6.310  -2.864  26.576  0.00  0.00    -0.346 OA
BRANCH  12  13
ATOM     13  C   UNL     1       5.415  -3.936  26.272  0.00  0.00    +0.282 C 
ATOM     14  O   UNL     1       4.663  -4.246  27.463  0.00  0.00    -0.341 OA
ATOM     15  C   UNL     1       5.514  -4.575  28.581  0.00  0.00    +0.178 C 
ATOM     16  C   UNL     1       6.406  -5.806  28.268  0.00  0.00    +0.177 C 
ATOM     17  C   UNL     1       7.139  -5.640  26.924  0.00  0.00    +0.179 C 
ATOM     18  C   UNL     1       6.143  -5.218  25.828  0.00  0.00    +0.201 C 
BRANCH  18  19
ATOM     19  O   UNL     1       6.784  -5.080  24.555  0.00  0.00    -0.384 OA
ATOM     20  H   UNL     1       6.105  -5.220  23.870  0.00  0.00    +0.210 HD
ENDBRANCH  18  19
BRANCH  17  21
ATOM     21  O   UNL     1       8.237  -4.725  27.043  0.00  0.00    -0.386 OA
ATOM     22  H   UNL     1       7.966  -4.024  27.671  0.00  0.00    +0.210 HD
ENDBRANCH  17  21
BRANCH  16  23
ATOM     23  O   UNL     1       5.624  -6.998  28.176  0.00  0.00    -0.386 OA
ATOM     24  H   UNL     1       6.240  -7.744  28.057  0.00  0.00    +0.210 HD
ENDBRANCH  16  23
BRANCH  15  25
ATOM     25  C   UNL     1       4.622  -4.731  29.825  0.00  0.00    +0.190 C 
BRANCH  25  26
ATOM     26  O   UNL     1       3.934  -3.544  30.197  0.00  0.00    -0.392 OA
ATOM     27  H   UNL     1       4.162  -2.876  29.523  0.00  0.00    +0.210 HD
ENDBRANCH  25  26
ENDBRANCH  15  25
ENDBRANCH  12  13
ENDBRANCH  11  12
ENDBRANCH   4  11
BRANCH   2  28
ATOM     28  O   UNL     1       6.233   2.110  23.916  0.00  0.00    -0.453 OA
BRANCH  28  29
ATOM     29  C   UNL     1       7.549   2.508  23.598  0.00  0.00    +0.214 A 
ATOM     30  C   UNL     1       7.894   3.958  23.337  0.00  0.00    +0.238 A 
ATOM     31  O   UNL     1       7.072   4.784  22.943  0.00  0.00    -0.283 OA
ATOM     32  C   UNL     1       9.270   4.390  23.527  0.00  0.00    +0.109 A 
ATOM     33  C   UNL     1      10.232   3.408  23.377  0.00  0.00    +0.147 A 
ATOM     34  C   UNL     1      11.584   3.736  23.427  0.00  0.00    +0.092 A 
ATOM     35  C   UNL     1      11.956   5.060  23.630  0.00  0.00    +0.124 A 
ATOM     36  C   UNL     1      10.999   6.053  23.815  0.00  0.00    +0.091 A 
ATOM     37  O   UNL     1       9.892   2.108  23.156  0.00  0.00    -0.451 OA
ATOM     38  C   UNL     1       9.647   5.716  23.769  0.00  0.00    +0.135 A 
ATOM     39  C   UNL     1       8.606   1.658  23.499  0.00  0.00    +0.181 A 
BRANCH  39  40
ATOM     40  C   UNL     1       8.655   0.167  23.670  0.00  0.00    +0.025 A 
ATOM     41  C   UNL     1       9.484  -0.341  24.707  0.00  0.00    +0.015 A 
ATOM     42  C   UNL     1       9.754  -1.702  24.858  0.00  0.00    +0.050 A 
ATOM     43  C   UNL     1       9.154  -2.594  23.997  0.00  0.00    +0.158 A 
ATOM     44  C   UNL     1       8.282  -2.147  22.999  0.00  0.00    +0.162 A 
ATOM     45  C   UNL     1       8.055  -0.769  22.813  0.00  0.00    +0.061 A 
BRANCH  44  46
ATOM     46  O   UNL     1       7.740  -3.143  22.226  0.00  0.00    -0.491 OA
ATOM     47  C   UNL     1       6.343  -3.000  21.989  0.00  0.00    +0.277 C 
ENDBRANCH  44  46
BRANCH  43  48
ATOM     48  O   UNL     1       9.419  -3.925  24.159  0.00  0.00    -0.503 OA
ATOM     49  H   UNL     1      10.076  -3.970  24.880  0.00  0.00    +0.292 HD
ENDBRANCH  43  48
ENDBRANCH  39  40
BRANCH  38  50
ATOM     50  O   UNL     1       8.711   6.686  23.992  0.00  0.00    -0.506 OA
ATOM     51  H   UNL     1       9.006   7.261  24.715  0.00  0.00    +0.292 HD
ENDBRANCH  38  50
BRANCH  35  52
ATOM     52  O   UNL     1      13.263   5.436  23.678  0.00  0.00    -0.507 OA
ATOM     53  H   UNL     1      13.731   4.898  24.335  0.00  0.00    +0.292 HD
ENDBRANCH  35  52
ENDBRANCH  28  29
ENDBRANCH   2  28
BRANCH   1  54
ATOM     54  O   UNL     1       4.962   2.821  26.535  0.00  0.00    -0.337 OA
BRANCH  54  58
ATOM     55  C   UNL     1       7.203   6.349  27.028  0.00  0.00    +0.041 C 
ATOM     56  C   UNL     1       7.098   5.320  28.162  0.00  0.00    +0.149 C 
ATOM     57  O   UNL     1       6.656   4.027  27.692  0.00  0.00    -0.343 OA
ATOM     58  C   UNL     1       5.304   4.044  27.209  0.00  0.00    +0.282 C 
ATOM     59  C   UNL     1       4.328   4.429  28.356  0.00  0.00    +0.201 C 
ATOM     60  C   UNL     1       4.726   5.788  28.924  0.00  0.00    +0.179 C 
ATOM     61  C   UNL     1       6.205   5.811  29.316  0.00  0.00    +0.174 C 
BRANCH  59  62
ATOM     62  O   UNL     1       4.333   3.430  29.394  0.00  0.00    -0.384 OA
ATOM     63  H   UNL     1       5.224   3.462  29.789  0.00  0.00    +0.210 HD
ENDBRANCH  59  62
BRANCH  60  64
ATOM     64  O   UNL     1       3.900   6.077  30.062  0.00  0.00    -0.386 OA
ATOM     65  H   UNL     1       3.095   6.500  29.695  0.00  0.00    +0.210 HD
ENDBRANCH  60  64
BRANCH  61  66
ATOM     66  O   UNL     1       6.372   4.955  30.461  0.00  0.00    -0.387 OA
ATOM     67  H   UNL     1       6.943   4.211  30.164  0.00  0.00    +0.210 HD
ENDBRANCH  61  66
ENDBRANCH  54  58
ENDBRANCH   1  54
TORSDOF 22
ENDMDL
MODEL 5
REMARK VINA RESULT:      -6.4      1.895      5.136
REMARK  Name = 
REMARK  24 active torsions:
REMARK  status: ('A' for Active; 'I' for Inactive)
REMARK    1  A    between atoms: C_1  and  C_2
REMARK    2  A    between atoms: C_3  and  O_64
REMARK    3  A    between atoms: C_5  and  O_63
REMARK    4  A    between atoms: C_6  and  O_62
REMARK    5  A    between atoms: C_8  and  O_11
REMARK    6  A    between atoms: O_11  and  C_12
REMARK    7  A    between atoms: C_13  and  O_61
REMARK    8  A    between atoms: C_15  and  O_60
REMARK    9  A    between atoms: C_17  and  C_44
REMARK   10  A    between atoms: C_19  and  O_21
REMARK   11  A    between atoms: O_21  and  C_22
REMARK   12  A    between atoms: C_23  and  C_35
REMARK   13  A    between atoms: C_27  and  O_34
REMARK   14  A    between atoms: C_29  and  O_33
REMARK   15  A    between atoms: C_37  and  O_42
REMARK   16  A    between atoms: C_38  and  O_41
REMARK   17  A    between atoms: O_42  and  C_43
REMARK   18  A    between atoms: C_44  and  O_45
REMARK   19  A    between atoms: O_45  and  C_46
REMARK   20  A    between atoms: C_48  and  O_59
REMARK   21  A    between atoms: C_49  and  O_58
REMARK   22  A    between atoms: C_51  and  O_57
REMARK   23  A    between atoms: C_53  and  C_55
REMARK   24  A    between atoms: C_55  and  O_56
REMARK                            x       y       z     vdW  Elec       q    Type
REMARK                         _______ _______ _______ _____ _____    ______ ____
ROOT
ATOM      1  C   UNL     1       3.545  -2.261  27.212  0.00  0.00    +0.221 C 
ATOM      2  C   UNL     1       4.358  -0.986  26.822  0.00  0.00    +0.340 C 
ATOM      3  O   UNL     1       4.117   0.065  27.786  0.00  0.00    -0.331 OA
ATOM      4  C   UNL     1       2.712   0.460  27.839  0.00  0.00    +0.179 C 
ATOM      5  C   UNL     1       1.829  -0.732  28.253  0.00  0.00    +0.177 C 
ATOM      6  C   UNL     1       2.042  -1.874  27.253  0.00  0.00    +0.180 C 
ENDROOT
BRANCH   5   7
ATOM      7  O   UNL     1       0.443  -0.387  28.298  0.00  0.00    -0.386 OA
ATOM      8  H   UNL     1       0.410   0.579  28.445  0.00  0.00    +0.210 HD
ENDBRANCH   5   7
BRANCH   6   9
ATOM      9  O   UNL     1       1.128  -2.940  27.558  0.00  0.00    -0.386 OA
ATOM     10  H   UNL     1       0.784  -3.278  26.712  0.00  0.00    +0.210 HD
ENDBRANCH   6   9
BRANCH   4  11
ATOM     11  C   UNL     1       2.256   1.090  26.499  0.00  0.00    +0.197 C 
BRANCH  11  12
ATOM     12  O   UNL     1       3.104   2.042  25.870  0.00  0.00    -0.346 OA
BRANCH  12  13
ATOM     13  C   UNL     1       2.494   3.018  25.023  0.00  0.00    +0.282 C 
ATOM     14  O   UNL     1       3.147   2.971  23.738  0.00  0.00    -0.341 OA
ATOM     15  C   UNL     1       4.571   3.181  23.837  0.00  0.00    +0.178 C 
ATOM     16  C   UNL     1       4.897   4.561  24.466  0.00  0.00    +0.177 C 
ATOM     17  C   UNL     1       4.119   4.777  25.778  0.00  0.00    +0.179 C 
ATOM     18  C   UNL     1       2.629   4.453  25.567  0.00  0.00    +0.201 C 
BRANCH  18  19
ATOM     19  O   UNL     1       1.866   4.668  26.759  0.00  0.00    -0.384 OA
ATOM     20  H   UNL     1       2.467   4.540  27.517  0.00  0.00    +0.210 HD
ENDBRANCH  18  19
BRANCH  17  21
ATOM     21  O   UNL     1       4.694   4.019  26.851  0.00  0.00    -0.386 OA
ATOM     22  H   UNL     1       5.494   4.498  27.152  0.00  0.00    +0.210 HD
ENDBRANCH  17  21
BRANCH  16  23
ATOM     23  O   UNL     1       4.538   5.627  23.585  0.00  0.00    -0.386 OA
ATOM     24  H   UNL     1       4.168   6.345  24.129  0.00  0.00    +0.210 HD
ENDBRANCH  16  23
BRANCH  15  25
ATOM     25  C   UNL     1       5.182   2.954  22.442  0.00  0.00    +0.190 C 
BRANCH  25  26
ATOM     26  O   UNL     1       6.289   3.797  22.151  0.00  0.00    -0.392 OA
ATOM     27  H   UNL     1       7.080   3.334  22.485  0.00  0.00    +0.210 HD
ENDBRANCH  25  26
ENDBRANCH  15  25
ENDBRANCH  12  13
ENDBRANCH  11  12
ENDBRANCH   4  11
BRANCH   2  28
ATOM     28  O   UNL     1       5.766  -1.271  26.587  0.00  0.00    -0.453 OA
BRANCH  28  29
ATOM     29  C   UNL     1       6.324  -0.686  25.430  0.00  0.00    +0.214 A 
ATOM     30  C   UNL     1       6.759   0.763  25.408  0.00  0.00    +0.238 A 
ATOM     31  O   UNL     1       6.284   1.618  26.154  0.00  0.00    -0.283 OA
ATOM     32  C   UNL     1       7.761   1.173  24.438  0.00  0.00    +0.109 A 
ATOM     33  C   UNL     1       7.828   0.410  23.287  0.00  0.00    +0.147 A 
ATOM     34  C   UNL     1       8.674   0.781  22.245  0.00  0.00    +0.092 A 
ATOM     35  C   UNL     1       9.450   1.927  22.376  0.00  0.00    +0.124 A 
ATOM     36  C   UNL     1       9.417   2.686  23.541  0.00  0.00    +0.091 A 
ATOM     37  O   UNL     1       7.061  -0.705  23.127  0.00  0.00    -0.451 OA
ATOM     38  C   UNL     1       8.572   2.305  24.582  0.00  0.00    +0.135 A 
ATOM     39  C   UNL     1       6.522  -1.344  24.256  0.00  0.00    +0.181 A 
BRANCH  39  40
ATOM     40  C   UNL     1       6.207  -2.766  23.890  0.00  0.00    +0.025 A 
ATOM     41  C   UNL     1       7.306  -3.653  23.726  0.00  0.00    +0.015 A 
ATOM     42  C   UNL     1       7.161  -4.945  23.219  0.00  0.00    +0.050 A 
ATOM     43  C   UNL     1       5.897  -5.397  22.910  0.00  0.00    +0.158 A 
ATOM     44  C   UNL     1       4.779  -4.582  23.112  0.00  0.00    +0.162 A 
ATOM     45  C   UNL     1       4.932  -3.259  23.571  0.00  0.00    +0.061 A 
BRANCH  44  46
ATOM     46  O   UNL     1       3.581  -5.164  22.781  0.00  0.00    -0.491 OA
ATOM     47  C   UNL     1       2.662  -5.261  23.864  0.00  0.00    +0.277 C 
ENDBRANCH  44  46
BRANCH  43  48
ATOM     48  O   UNL     1       5.767  -6.667  22.421  0.00  0.00    -0.503 OA
ATOM     49  H   UNL     1       6.678  -7.012  22.358  0.00  0.00    +0.292 HD
ENDBRANCH  43  48
ENDBRANCH  39  40
BRANCH  38  50
ATOM     50  O   UNL     1       8.573   3.029  25.740  0.00  0.00    -0.506 OA
ATOM     51  H   UNL     1       8.215   3.915  25.569  0.00  0.00    +0.292 HD
ENDBRANCH  38  50
BRANCH  35  52
ATOM     52  O   UNL     1      10.287   2.340  21.385  0.00  0.00    -0.507 OA
ATOM     53  H   UNL     1      11.090   2.718  21.776  0.00  0.00    +0.292 HD
ENDBRANCH  35  52
ENDBRANCH  28  29
ENDBRANCH   2  28
BRANCH   1  54
ATOM     54  O   UNL     1       4.028  -2.860  28.439  0.00  0.00    -0.337 OA
BRANCH  54  58
ATOM     55  C   UNL     1       7.032  -5.434  27.003  0.00  0.00    +0.041 C 
ATOM     56  C   UNL     1       5.566  -5.636  26.597  0.00  0.00    +0.149 C 
ATOM     57  O   UNL     1       4.763  -4.457  26.835  0.00  0.00    -0.343 OA
ATOM     58  C   UNL     1       4.624  -4.152  28.232  0.00  0.00    +0.282 C 
ATOM     59  C   UNL     1       3.893  -5.311  28.965  0.00  0.00    +0.201 C 
ATOM     60  C   UNL     1       4.670  -6.608  28.761  0.00  0.00    +0.179 C 
ATOM     61  C   UNL     1       4.935  -6.865  27.276  0.00  0.00    +0.174 C 
BRANCH  59  62
ATOM     62  O   UNL     1       2.543  -5.455  28.485  0.00  0.00    -0.384 OA
ATOM     63  H   UNL     1       2.614  -5.884  27.612  0.00  0.00    +0.210 HD
ENDBRANCH  59  62
BRANCH  60  64
ATOM     64  O   UNL     1       3.925  -7.693  29.333  0.00  0.00    -0.386 OA
ATOM     65  H   UNL     1       2.999  -7.373  29.381  0.00  0.00    +0.210 HD
ENDBRANCH  60  64
BRANCH  61  66
ATOM     66  O   UNL     1       3.677  -7.176  26.650  0.00  0.00    -0.387 OA
ATOM     67  H   UNL     1       3.522  -6.469  25.984  0.00  0.00    +0.210 HD
ENDBRANCH  61  66
ENDBRANCH  54  58
ENDBRANCH   1  54
TORSDOF 22
ENDMDL
MODEL 6
REMARK VINA RESULT:      -6.2      2.042      7.271
REMARK  Name = 
REMARK  24 active torsions:
REMARK  status: ('A' for Active; 'I' for Inactive)
REMARK    1  A    between atoms: C_1  and  C_2
REMARK    2  A    between atoms: C_3  and  O_64
REMARK    3  A    between atoms: C_5  and  O_63
REMARK    4  A    between atoms: C_6  and  O_62
REMARK    5  A    between atoms: C_8  and  O_11
REMARK    6  A    between atoms: O_11  and  C_12
REMARK    7  A    between atoms: C_13  and  O_61
REMARK    8  A    between atoms: C_15  and  O_60
REMARK    9  A    between atoms: C_17  and  C_44
REMARK   10  A    between atoms: C_19  and  O_21
REMARK   11  A    between atoms: O_21  and  C_22
REMARK   12  A    between atoms: C_23  and  C_35
REMARK   13  A    between atoms: C_27  and  O_34
REMARK   14  A    between atoms: C_29  and  O_33
REMARK   15  A    between atoms: C_37  and  O_42
REMARK   16  A    between atoms: C_38  and  O_41
REMARK   17  A    between atoms: O_42  and  C_43
REMARK   18  A    between atoms: C_44  and  O_45
REMARK   19  A    between atoms: O_45  and  C_46
REMARK   20  A    between atoms: C_48  and  O_59
REMARK   21  A    between atoms: C_49  and  O_58
REMARK   22  A    between atoms: C_51  and  O_57
REMARK   23  A    between atoms: C_53  and  C_55
REMARK   24  A    between atoms: C_55  and  O_56
REMARK                            x       y       z     vdW  Elec       q    Type
REMARK                         _______ _______ _______ _____ _____    ______ ____
ROOT
ATOM      1  C   UNL     1       7.184  -2.310  24.574  0.00  0.00    +0.221 C 
ATOM      2  C   UNL     1       6.853  -0.791  24.721  0.00  0.00    +0.340 C 
ATOM      3  O   UNL     1       7.279  -0.079  23.536  0.00  0.00    -0.331 OA
ATOM      4  C   UNL     1       8.719  -0.177  23.316  0.00  0.00    +0.179 C 
ATOM      5  C   UNL     1       9.139  -1.645  23.124  0.00  0.00    +0.177 C 
ATOM      6  C   UNL     1       8.716  -2.445  24.362  0.00  0.00    +0.180 C 
ENDROOT
BRANCH   5   7
ATOM      7  O   UNL     1      10.548  -1.783  22.924  0.00  0.00    -0.386 OA
ATOM      8  H   UNL     1      10.903  -0.874  22.874  0.00  0.00    +0.210 HD
ENDBRANCH   5   7
BRANCH   6   9
ATOM      9  O   UNL     1       9.218  -3.787  24.246  0.00  0.00    -0.386 OA
ATOM     10  H   UNL     1       9.856  -3.920  24.969  0.00  0.00    +0.210 HD
ENDBRANCH   6   9
BRANCH   4  11
ATOM     11  C   UNL     1       9.510   0.515  24.456  0.00  0.00    +0.197 C 
BRANCH  11  12
ATOM     12  O   UNL     1       9.798   1.902  24.340  0.00  0.00    -0.346 OA
BRANCH  12  13
ATOM     13  C   UNL     1       9.630   2.511  23.059  0.00  0.00    +0.282 C 
ATOM     14  O   UNL     1      10.845   3.214  22.731  0.00  0.00    -0.341 OA
ATOM     15  C   UNL     1      11.202   4.192  23.732  0.00  0.00    +0.178 C 
ATOM     16  C   UNL     1      10.087   5.257  23.903  0.00  0.00    +0.177 C 
ATOM     17  C   UNL     1       8.709   4.600  24.103  0.00  0.00    +0.179 C 
ATOM     18  C   UNL     1       8.473   3.528  23.023  0.00  0.00    +0.201 C 
BRANCH  18  19
ATOM     19  O   UNL     1       7.189   2.912  23.160  0.00  0.00    -0.384 OA
ATOM     20  H   UNL     1       6.870   2.698  22.264  0.00  0.00    +0.210 HD
ENDBRANCH  18  19
BRANCH  17  21
ATOM     21  O   UNL     1       8.575   4.074  25.431  0.00  0.00    -0.386 OA
ATOM     22  H   UNL     1       7.699   3.638  25.485  0.00  0.00    +0.210 HD
ENDBRANCH  17  21
BRANCH  16  23
ATOM     23  O   UNL     1       9.991   6.092  22.747  0.00  0.00    -0.386 OA
ATOM     24  H   UNL     1      10.835   6.569  22.659  0.00  0.00    +0.210 HD
ENDBRANCH  16  23
BRANCH  15  25
ATOM     25  C   UNL     1      12.583   4.764  23.365  0.00  0.00    +0.190 C 
BRANCH  25  26
ATOM     26  O   UNL     1      12.916   5.960  24.058  0.00  0.00    -0.392 OA
ATOM     27  H   UNL     1      13.624   5.722  24.686  0.00  0.00    +0.210 HD
ENDBRANCH  25  26
ENDBRANCH  15  25
ENDBRANCH  12  13
ENDBRANCH  11  12
ENDBRANCH   4  11
BRANCH   2  28
ATOM     28  O   UNL     1       5.466  -0.555  25.094  0.00  0.00    -0.453 OA
BRANCH  28  29
ATOM     29  C   UNL     1       5.268   0.233  26.249  0.00  0.00    +0.214 A 
ATOM     30  C   UNL     1       5.810   1.642  26.345  0.00  0.00    +0.238 A 
ATOM     31  O   UNL     1       6.780   2.035  25.699  0.00  0.00    -0.283 OA
ATOM     32  C   UNL     1       5.176   2.568  27.270  0.00  0.00    +0.109 A 
ATOM     33  C   UNL     1       4.542   1.991  28.354  0.00  0.00    +0.147 A 
ATOM     34  C   UNL     1       3.999   2.789  29.358  0.00  0.00    +0.092 A 
ATOM     35  C   UNL     1       4.103   4.172  29.257  0.00  0.00    +0.124 A 
ATOM     36  C   UNL     1       4.710   4.767  28.155  0.00  0.00    +0.091 A 
ATOM     37  O   UNL     1       4.447   0.639  28.486  0.00  0.00    -0.451 OA
ATOM     38  C   UNL     1       5.245   3.961  27.151  0.00  0.00    +0.135 A 
ATOM     39  C   UNL     1       4.593  -0.181  27.355  0.00  0.00    +0.181 A 
BRANCH  39  40
ATOM     40  C   UNL     1       3.935  -1.500  27.637  0.00  0.00    +0.025 A 
ATOM     41  C   UNL     1       2.982  -1.968  26.690  0.00  0.00    +0.015 A 
ATOM     42  C   UNL     1       2.177  -3.084  26.920  0.00  0.00    +0.050 A 
ATOM     43  C   UNL     1       2.345  -3.791  28.090  0.00  0.00    +0.158 A 
ATOM     44  C   UNL     1       3.311  -3.406  29.024  0.00  0.00    +0.162 A 
ATOM     45  C   UNL     1       4.084  -2.247  28.816  0.00  0.00    +0.061 A 
BRANCH  44  46
ATOM     46  O   UNL     1       3.384  -4.210  30.134  0.00  0.00    -0.491 OA
ATOM     47  C   UNL     1       4.633  -4.877  30.287  0.00  0.00    +0.277 C 
ENDBRANCH  44  46
BRANCH  43  48
ATOM     48  O   UNL     1       1.555  -4.887  28.300  0.00  0.00    -0.503 OA
ATOM     49  H   UNL     1       1.102  -4.719  29.149  0.00  0.00    +0.292 HD
ENDBRANCH  43  48
ENDBRANCH  39  40
BRANCH  38  50
ATOM     50  O   UNL     1       5.803   4.549  26.052  0.00  0.00    -0.506 OA
ATOM     51  H   UNL     1       6.702   4.206  25.923  0.00  0.00    +0.292 HD
ENDBRANCH  38  50
BRANCH  35  52
ATOM     52  O   UNL     1       3.599   4.999  30.213  0.00  0.00    -0.507 OA
ATOM     53  H   UNL     1       2.923   4.528  30.725  0.00  0.00    +0.292 HD
ENDBRANCH  35  52
ENDBRANCH  28  29
ENDBRANCH   2  28
BRANCH   1  54
ATOM     54  O   UNL     1       6.393  -2.943  23.540  0.00  0.00    -0.337 OA
BRANCH  54  58
ATOM     55  C   UNL     1       4.980  -5.499  26.569  0.00  0.00    +0.041 C 
ATOM     56  C   UNL     1       5.623  -6.070  25.297  0.00  0.00    +0.149 C 
ATOM     57  O   UNL     1       6.400  -5.081  24.584  0.00  0.00    -0.343 OA
ATOM     58  C   UNL     1       5.591  -4.028  24.037  0.00  0.00    +0.282 C 
ATOM     59  C   UNL     1       4.590  -4.604  22.997  0.00  0.00    +0.201 C 
ATOM     60  C   UNL     1       3.726  -5.671  23.663  0.00  0.00    +0.179 C 
ATOM     61  C   UNL     1       4.590  -6.723  24.362  0.00  0.00    +0.174 C 
BRANCH  59  62
ATOM     62  O   UNL     1       5.286  -5.158  21.863  0.00  0.00    -0.384 OA
ATOM     63  H   UNL     1       5.797  -5.914  22.208  0.00  0.00    +0.210 HD
ENDBRANCH  59  62
BRANCH  60  64
ATOM     64  O   UNL     1       2.894  -6.284  22.667  0.00  0.00    -0.386 OA
ATOM     65  H   UNL     1       1.985  -5.972  22.863  0.00  0.00    +0.210 HD
ENDBRANCH  60  64
BRANCH  61  66
ATOM     66  O   UNL     1       5.265  -7.486  23.345  0.00  0.00    -0.387 OA
ATOM     67  H   UNL     1       5.738  -8.209  23.816  0.00  0.00    +0.210 HD
ENDBRANCH  61  66
ENDBRANCH  54  58
ENDBRANCH   1  54
TORSDOF 22
ENDMDL
MODEL 7
REMARK VINA RESULT:      -6.1      1.986      9.092
REMARK  Name = 
REMARK  24 active torsions:
REMARK  status: ('A' for Active; 'I' for Inactive)
REMARK    1  A    between atoms: C_1  and  C_2
REMARK    2  A    between atoms: C_3  and  O_64
REMARK    3  A    between atoms: C_5  and  O_63
REMARK    4  A    between atoms: C_6  and  O_62
REMARK    5  A    between atoms: C_8  and  O_11
REMARK    6  A    between atoms: O_11  and  C_12
REMARK    7  A    between atoms: C_13  and  O_61
REMARK    8  A    between atoms: C_15  and  O_60
REMARK    9  A    between atoms: C_17  and  C_44
REMARK   10  A    between atoms: C_19  and  O_21
REMARK   11  A    between atoms: O_21  and  C_22
REMARK   12  A    between atoms: C_23  and  C_35
REMARK   13  A    between atoms: C_27  and  O_34
REMARK   14  A    between atoms: C_29  and  O_33
REMARK   15  A    between atoms: C_37  and  O_42
REMARK   16  A    between atoms: C_38  and  O_41
REMARK   17  A    between atoms: O_42  and  C_43
REMARK   18  A    between atoms: C_44  and  O_45
REMARK   19  A    between atoms: O_45  and  C_46
REMARK   20  A    between atoms: C_48  and  O_59
REMARK   21  A    between atoms: C_49  and  O_58
REMARK   22  A    between atoms: C_51  and  O_57
REMARK   23  A    between atoms: C_53  and  C_55
REMARK   24  A    between atoms: C_55  and  O_56
REMARK                            x       y       z     vdW  Elec       q    Type
REMARK                         _______ _______ _______ _____ _____    ______ ____
ROOT
ATOM      1  C   UNL     1       8.347   1.075  23.796  0.00  0.00    +0.221 C 
ATOM      2  C   UNL     1       7.937  -0.264  24.488  0.00  0.00    +0.340 C 
ATOM      3  O   UNL     1       8.808  -1.331  24.047  0.00  0.00    -0.331 OA
ATOM      4  C   UNL     1       8.726  -1.559  22.607  0.00  0.00    +0.179 C 
ATOM      5  C   UNL     1       9.148  -0.295  21.834  0.00  0.00    +0.177 C 
ATOM      6  C   UNL     1       8.246   0.868  22.260  0.00  0.00    +0.180 C 
ENDROOT
BRANCH   5   7
ATOM      7  O   UNL     1       9.063  -0.474  20.419  0.00  0.00    -0.386 OA
ATOM      8  H   UNL     1       8.128  -0.312  20.183  0.00  0.00    +0.210 HD
ENDBRANCH   5   7
BRANCH   6   9
ATOM      9  O   UNL     1       8.549   2.016  21.451  0.00  0.00    -0.386 OA
ATOM     10  H   UNL     1       8.197   2.797  21.913  0.00  0.00    +0.210 HD
ENDBRANCH   6   9
BRANCH   4  11
ATOM     11  C   UNL     1       7.315  -2.053  22.197  0.00  0.00    +0.197 C 
BRANCH  11  12
ATOM     12  O   UNL     1       6.889  -3.336  22.635  0.00  0.00    -0.346 OA
BRANCH  12  13
ATOM     13  C   UNL     1       5.849  -3.979  21.897  0.00  0.00    +0.282 C 
ATOM     14  O   UNL     1       4.628  -3.878  22.657  0.00  0.00    -0.341 OA
ATOM     15  C   UNL     1       4.755  -4.442  23.979  0.00  0.00    +0.178 C 
ATOM     16  C   UNL     1       5.135  -5.945  23.918  0.00  0.00    +0.177 C 
ATOM     17  C   UNL     1       6.345  -6.181  22.996  0.00  0.00    +0.179 C 
ATOM     18  C   UNL     1       6.125  -5.474  21.646  0.00  0.00    +0.201 C 
BRANCH  18  19
ATOM     19  O   UNL     1       7.219  -5.692  20.749  0.00  0.00    -0.384 OA
ATOM     20  H   UNL     1       7.941  -5.095  21.018  0.00  0.00    +0.210 HD
ENDBRANCH  18  19
BRANCH  17  21
ATOM     21  O   UNL     1       7.566  -5.776  23.630  0.00  0.00    -0.386 OA
ATOM     22  H   UNL     1       8.228  -6.480  23.466  0.00  0.00    +0.210 HD
ENDBRANCH  17  21
BRANCH  16  23
ATOM     23  O   UNL     1       4.056  -6.728  23.405  0.00  0.00    -0.386 OA
ATOM     24  H   UNL     1       3.426  -6.873  24.134  0.00  0.00    +0.210 HD
ENDBRANCH  16  23
BRANCH  15  25
ATOM     25  C   UNL     1       3.457  -4.141  24.750  0.00  0.00    +0.190 C 
BRANCH  25  26
ATOM     26  O   UNL     1       2.272  -4.469  24.037  0.00  0.00    -0.392 OA
ATOM     27  H   UNL     1       1.614  -3.788  24.274  0.00  0.00    +0.210 HD
ENDBRANCH  25  26
ENDBRANCH  15  25
ENDBRANCH  12  13
ENDBRANCH  11  12
ENDBRANCH   4  11
BRANCH   2  28
ATOM     28  O   UNL     1       7.831  -0.136  25.934  0.00  0.00    -0.453 OA
BRANCH  28  29
ATOM     29  C   UNL     1       6.536   0.122  26.432  0.00  0.00    +0.214 A 
ATOM     30  C   UNL     1       5.974   1.526  26.480  0.00  0.00    +0.238 A 
ATOM     31  O   UNL     1       6.681   2.531  26.536  0.00  0.00    -0.283 OA
ATOM     32  C   UNL     1       4.530   1.696  26.496  0.00  0.00    +0.109 A 
ATOM     33  C   UNL     1       3.809   0.640  27.021  0.00  0.00    +0.147 A 
ATOM     34  C   UNL     1       2.430   0.743  27.187  0.00  0.00    +0.092 A 
ATOM     35  C   UNL     1       1.788   1.920  26.818  0.00  0.00    +0.124 A 
ATOM     36  C   UNL     1       2.497   2.978  26.259  0.00  0.00    +0.091 A 
ATOM     37  O   UNL     1       4.419  -0.515  27.409  0.00  0.00    -0.451 OA
ATOM     38  C   UNL     1       3.876   2.865  26.091  0.00  0.00    +0.135 A 
ATOM     39  C   UNL     1       5.690  -0.833  26.903  0.00  0.00    +0.181 A 
BRANCH  39  40
ATOM     40  C   UNL     1       5.893  -2.315  27.029  0.00  0.00    +0.025 A 
ATOM     41  C   UNL     1       5.023  -3.019  27.906  0.00  0.00    +0.015 A 
ATOM     42  C   UNL     1       5.217  -4.358  28.245  0.00  0.00    +0.050 A 
ATOM     43  C   UNL     1       6.265  -5.041  27.669  0.00  0.00    +0.158 A 
ATOM     44  C   UNL     1       7.112  -4.409  26.753  0.00  0.00    +0.162 A 
ATOM     45  C   UNL     1       6.948  -3.041  26.455  0.00  0.00    +0.061 A 
BRANCH  44  46
ATOM     46  O   UNL     1       8.102  -5.211  26.243  0.00  0.00    -0.491 OA
ATOM     47  C   UNL     1       9.417  -4.697  26.424  0.00  0.00    +0.277 C 
ENDBRANCH  44  46
BRANCH  43  48
ATOM     48  O   UNL     1       6.440  -6.355  28.003  0.00  0.00    -0.503 OA
ATOM     49  H   UNL     1       5.754  -6.840  27.507  0.00  0.00    +0.292 HD
ENDBRANCH  43  48
ENDBRANCH  39  40
BRANCH  38  50
ATOM     50  O   UNL     1       4.562   3.890  25.504  0.00  0.00    -0.506 OA
ATOM     51  H   UNL     1       5.042   4.390  26.184  0.00  0.00    +0.292 HD
ENDBRANCH  38  50
BRANCH  35  52
ATOM     52  O   UNL     1       0.444   2.078  26.967  0.00  0.00    -0.507 OA
ATOM     53  H   UNL     1       0.022   2.105  26.093  0.00  0.00    +0.292 HD
ENDBRANCH  35  52
ENDBRANCH  28  29
ENDBRANCH   2  28
BRANCH   1  54
ATOM     54  O   UNL     1       9.644   1.542  24.238  0.00  0.00    -0.337 OA
BRANCH  54  58
ATOM     55  C   UNL     1       8.336   5.142  25.981  0.00  0.00    +0.041 C 
ATOM     56  C   UNL     1       8.384   4.980  24.455  0.00  0.00    +0.149 C 
ATOM     57  O   UNL     1       8.454   3.594  24.052  0.00  0.00    -0.343 OA
ATOM     58  C   UNL     1       9.687   2.965  24.435  0.00  0.00    +0.282 C 
ATOM     59  C   UNL     1      10.887   3.665  23.738  0.00  0.00    +0.201 C 
ATOM     60  C   UNL     1      10.889   5.147  24.103  0.00  0.00    +0.179 C 
ATOM     61  C   UNL     1       9.529   5.787  23.817  0.00  0.00    +0.174 C 
BRANCH  59  62
ATOM     62  O   UNL     1      10.821   3.500  22.309  0.00  0.00    -0.384 OA
ATOM     63  H   UNL     1      11.479   2.814  22.089  0.00  0.00    +0.210 HD
ENDBRANCH  59  62
BRANCH  60  64
ATOM     64  O   UNL     1      11.923   5.808  23.357  0.00  0.00    -0.386 OA
ATOM     65  H   UNL     1      11.825   5.483  22.437  0.00  0.00    +0.210 HD
ENDBRANCH  60  64
BRANCH  61  66
ATOM     66  O   UNL     1       9.355   5.837  22.390  0.00  0.00    -0.387 OA
ATOM     67  H   UNL     1       8.413   6.076  22.238  0.00  0.00    +0.210 HD
ENDBRANCH  61  66
ENDBRANCH  54  58
ENDBRANCH   1  54
TORSDOF 22
ENDMDL
MODEL 8
REMARK VINA RESULT:      -6.1      1.397      2.051
REMARK  Name = 
REMARK  24 active torsions:
REMARK  status: ('A' for Active; 'I' for Inactive)
REMARK    1  A    between atoms: C_1  and  C_2
REMARK    2  A    between atoms: C_3  and  O_64
REMARK    3  A    between atoms: C_5  and  O_63
REMARK    4  A    between atoms: C_6  and  O_62
REMARK    5  A    between atoms: C_8  and  O_11
REMARK    6  A    between atoms: O_11  and  C_12
REMARK    7  A    between atoms: C_13  and  O_61
REMARK    8  A    between atoms: C_15  and  O_60
REMARK    9  A    between atoms: C_17  and  C_44
REMARK   10  A    between atoms: C_19  and  O_21
REMARK   11  A    between atoms: O_21  and  C_22
REMARK   12  A    between atoms: C_23  and  C_35
REMARK   13  A    between atoms: C_27  and  O_34
REMARK   14  A    between atoms: C_29  and  O_33
REMARK   15  A    between atoms: C_37  and  O_42
REMARK   16  A    between atoms: C_38  and  O_41
REMARK   17  A    between atoms: O_42  and  C_43
REMARK   18  A    between atoms: C_44  and  O_45
REMARK   19  A    between atoms: O_45  and  C_46
REMARK   20  A    between atoms: C_48  and  O_59
REMARK   21  A    between atoms: C_49  and  O_58
REMARK   22  A    between atoms: C_51  and  O_57
REMARK   23  A    between atoms: C_53  and  C_55
REMARK   24  A    between atoms: C_55  and  O_56
REMARK                            x       y       z     vdW  Elec       q    Type
REMARK                         _______ _______ _______ _____ _____    ______ ____
ROOT
ATOM      1  C   UNL     1       5.379  -0.391  26.817  0.00  0.00    +0.221 C 
ATOM      2  C   UNL     1       6.787   0.275  26.699  0.00  0.00    +0.340 C 
ATOM      3  O   UNL     1       6.950   1.264  27.741  0.00  0.00    -0.331 OA
ATOM      4  C   UNL     1       5.966   2.339  27.649  0.00  0.00    +0.179 C 
ATOM      5  C   UNL     1       4.538   1.780  27.790  0.00  0.00    +0.177 C 
ATOM      6  C   UNL     1       4.310   0.728  26.698  0.00  0.00    +0.180 C 
ENDROOT
BRANCH   5   7
ATOM      7  O   UNL     1       3.545   2.802  27.686  0.00  0.00    -0.386 OA
ATOM      8  H   UNL     1       3.714   3.418  28.426  0.00  0.00    +0.210 HD
ENDBRANCH   5   7
BRANCH   6   9
ATOM      9  O   UNL     1       2.940   0.296  26.743  0.00  0.00    -0.386 OA
ATOM     10  H   UNL     1       2.945  -0.676  26.794  0.00  0.00    +0.210 HD
ENDBRANCH   6   9
BRANCH   4  11
ATOM     11  C   UNL     1       6.149   3.156  26.344  0.00  0.00    +0.197 C 
BRANCH  11  12
ATOM     12  O   UNL     1       5.039   3.887  25.837  0.00  0.00    -0.346 OA
BRANCH  12  13
ATOM     13  C   UNL     1       4.640   3.638  24.488  0.00  0.00    +0.282 C 
ATOM     14  O   UNL     1       5.286   4.610  23.641  0.00  0.00    -0.341 OA
ATOM     15  C   UNL     1       4.986   5.966  24.033  0.00  0.00    +0.178 C 
ATOM     16  C   UNL     1       3.461   6.247  23.975  0.00  0.00    +0.177 C 
ATOM     17  C   UNL     1       2.662   5.166  24.726  0.00  0.00    +0.179 C 
ATOM     18  C   UNL     1       3.120   3.765  24.277  0.00  0.00    +0.201 C 
BRANCH  18  19
ATOM     19  O   UNL     1       2.381   2.731  24.935  0.00  0.00    -0.384 OA
ATOM     20  H   UNL     1       2.821   2.553  25.786  0.00  0.00    +0.210 HD
ENDBRANCH  18  19
BRANCH  17  21
ATOM     21  O   UNL     1       2.761   5.341  26.146  0.00  0.00    -0.386 OA
ATOM     22  H   UNL     1       1.998   5.888  26.427  0.00  0.00    +0.210 HD
ENDBRANCH  17  21
BRANCH  16  23
ATOM     23  O   UNL     1       2.990   6.256  22.626  0.00  0.00    -0.386 OA
ATOM     24  H   UNL     1       2.703   5.351  22.410  0.00  0.00    +0.210 HD
ENDBRANCH  16  23
BRANCH  15  25
ATOM     25  C   UNL     1       5.843   6.910  23.171  0.00  0.00    +0.190 C 
BRANCH  25  26
ATOM     26  O   UNL     1       5.984   6.491  21.819  0.00  0.00    -0.392 OA
ATOM     27  H   UNL     1       6.796   5.951  21.785  0.00  0.00    +0.210 HD
ENDBRANCH  25  26
ENDBRANCH  15  25
ENDBRANCH  12  13
ENDBRANCH  11  12
ENDBRANCH   4  11
BRANCH   2  28
ATOM     28  O   UNL     1       7.863  -0.702  26.627  0.00  0.00    -0.453 OA
BRANCH  28  29
ATOM     29  C   UNL     1       7.906  -1.479  25.449  0.00  0.00    +0.214 A 
ATOM     30  C   UNL     1       7.927  -2.991  25.502  0.00  0.00    +0.238 A 
ATOM     31  O   UNL     1       8.348  -3.624  26.468  0.00  0.00    -0.283 OA
ATOM     32  C   UNL     1       7.459  -3.732  24.342  0.00  0.00    +0.109 A 
ATOM     33  C   UNL     1       7.565  -3.077  23.129  0.00  0.00    +0.147 A 
ATOM     34  C   UNL     1       7.251  -3.736  21.943  0.00  0.00    +0.092 A 
ATOM     35  C   UNL     1       6.829  -5.060  21.994  0.00  0.00    +0.124 A 
ATOM     36  C   UNL     1       6.686  -5.722  23.209  0.00  0.00    +0.091 A 
ATOM     37  O   UNL     1       7.997  -1.787  23.053  0.00  0.00    -0.451 OA
ATOM     38  C   UNL     1       6.997  -5.053  24.392  0.00  0.00    +0.135 A 
ATOM     39  C   UNL     1       7.931  -0.965  24.190  0.00  0.00    +0.181 A 
BRANCH  39  40
ATOM     40  C   UNL     1       7.937   0.467  23.740  0.00  0.00    +0.025 A 
ATOM     41  C   UNL     1       6.984   0.844  22.755  0.00  0.00    +0.015 A 
ATOM     42  C   UNL     1       7.000   2.090  22.128  0.00  0.00    +0.050 A 
ATOM     43  C   UNL     1       7.948   3.012  22.514  0.00  0.00    +0.158 A 
ATOM     44  C   UNL     1       8.868   2.710  23.522  0.00  0.00    +0.162 A 
ATOM     45  C   UNL     1       8.886   1.432  24.114  0.00  0.00    +0.061 A 
BRANCH  44  46
ATOM     46  O   UNL     1       9.743   3.726  23.820  0.00  0.00    -0.491 OA
ATOM     47  C   UNL     1      11.090   3.462  23.442  0.00  0.00    +0.277 C 
ENDBRANCH  44  46
BRANCH  43  48
ATOM     48  O   UNL     1       7.949   4.233  21.898  0.00  0.00    -0.503 OA
ATOM     49  H   UNL     1       8.556   4.786  22.426  0.00  0.00    +0.292 HD
ENDBRANCH  43  48
ENDBRANCH  39  40
BRANCH  38  50
ATOM     50  O   UNL     1       6.817  -5.692  25.586  0.00  0.00    -0.506 OA
ATOM     51  H   UNL     1       5.934  -6.093  25.609  0.00  0.00    +0.292 HD
ENDBRANCH  38  50
BRANCH  35  52
ATOM     52  O   UNL     1       6.518  -5.754  20.865  0.00  0.00    -0.507 OA
ATOM     53  H   UNL     1       5.830  -5.280  20.372  0.00  0.00    +0.292 HD
ENDBRANCH  35  52
ENDBRANCH  28  29
ENDBRANCH   2  28
BRANCH   1  54
ATOM     54  O   UNL     1       5.255  -1.193  28.016  0.00  0.00    -0.337 OA
BRANCH  54  58
ATOM     55  C   UNL     1       1.328  -2.654  28.409  0.00  0.00    +0.041 C 
ATOM     56  C   UNL     1       2.506  -3.379  29.076  0.00  0.00    +0.149 C 
ATOM     57  O   UNL     1       3.678  -2.539  29.184  0.00  0.00    -0.343 OA
ATOM     58  C   UNL     1       4.244  -2.209  27.906  0.00  0.00    +0.282 C 
ATOM     59  C   UNL     1       4.718  -3.498  27.179  0.00  0.00    +0.201 C 
ATOM     60  C   UNL     1       3.540  -4.456  27.028  0.00  0.00    +0.179 C 
ATOM     61  C   UNL     1       2.853  -4.703  28.372  0.00  0.00    +0.174 C 
BRANCH  59  62
ATOM     62  O   UNL     1       5.791  -4.133  27.903  0.00  0.00    -0.384 OA
ATOM     63  H   UNL     1       6.613  -3.851  27.460  0.00  0.00    +0.210 HD
ENDBRANCH  59  62
BRANCH  60  64
ATOM     64  O   UNL     1       4.013  -5.691  26.470  0.00  0.00    -0.386 OA
ATOM     65  H   UNL     1       3.985  -6.335  27.210  0.00  0.00    +0.210 HD
ENDBRANCH  60  64
BRANCH  61  66
ATOM     66  O   UNL     1       3.751  -5.471  29.193  0.00  0.00    -0.387 OA
ATOM     67  H   UNL     1       3.284  -6.313  29.394  0.00  0.00    +0.210 HD
ENDBRANCH  61  66
ENDBRANCH  54  58
ENDBRANCH   1  54
TORSDOF 22
ENDMDL
MODEL 9
REMARK VINA RESULT:      -6.1      1.358      2.417
REMARK  Name = 
REMARK  24 active torsions:
REMARK  status: ('A' for Active; 'I' for Inactive)
REMARK    1  A    between atoms: C_1  and  C_2
REMARK    2  A    between atoms: C_3  and  O_64
REMARK    3  A    between atoms: C_5  and  O_63
REMARK    4  A    between atoms: C_6  and  O_62
REMARK    5  A    between atoms: C_8  and  O_11
REMARK    6  A    between atoms: O_11  and  C_12
REMARK    7  A    between atoms: C_13  and  O_61
REMARK    8  A    between atoms: C_15  and  O_60
REMARK    9  A    between atoms: C_17  and  C_44
REMARK   10  A    between atoms: C_19  and  O_21
REMARK   11  A    between atoms: O_21  and  C_22
REMARK   12  A    between atoms: C_23  and  C_35
REMARK   13  A    between atoms: C_27  and  O_34
REMARK   14  A    between atoms: C_29  and  O_33
REMARK   15  A    between atoms: C_37  and  O_42
REMARK   16  A    between atoms: C_38  and  O_41
REMARK   17  A    between atoms: O_42  and  C_43
REMARK   18  A    between atoms: C_44  and  O_45
REMARK   19  A    between atoms: O_45  and  C_46
REMARK   20  A    between atoms: C_48  and  O_59
REMARK   21  A    between atoms: C_49  and  O_58
REMARK   22  A    between atoms: C_51  and  O_57
REMARK   23  A    between atoms: C_53  and  C_55
REMARK   24  A    between atoms: C_55  and  O_56
REMARK                            x       y       z     vdW  Elec       q    Type
REMARK                         _______ _______ _______ _____ _____    ______ ____
ROOT
ATOM      1  C   UNL     1       5.643  -1.744  26.996  0.00  0.00    +0.221 C 
ATOM      2  C   UNL     1       7.057  -1.107  26.811  0.00  0.00    +0.340 C 
ATOM      3  O   UNL     1       7.354  -0.238  27.928  0.00  0.00    -0.331 OA
ATOM      4  C   UNL     1       6.406   0.866  28.042  0.00  0.00    +0.179 C 
ATOM      5  C   UNL     1       4.978   0.334  28.263  0.00  0.00    +0.177 C 
ATOM      6  C   UNL     1       4.610  -0.590  27.096  0.00  0.00    +0.180 C 
ENDROOT
BRANCH   5   7
ATOM      7  O   UNL     1       4.018   1.388  28.361  0.00  0.00    -0.386 OA
ATOM      8  H   UNL     1       3.566   1.421  27.495  0.00  0.00    +0.210 HD
ENDBRANCH   5   7
BRANCH   6   9
ATOM      9  O   UNL     1       3.236  -0.987  27.230  0.00  0.00    -0.386 OA
ATOM     10  H   UNL     1       3.180  -1.583  27.998  0.00  0.00    +0.210 HD
ENDBRANCH   6   9
BRANCH   4  11
ATOM     11  C   UNL     1       6.496   1.811  26.817  0.00  0.00    +0.197 C 
BRANCH  11  12
ATOM     12  O   UNL     1       5.299   2.147  26.127  0.00  0.00    -0.346 OA
BRANCH  12  13
ATOM     13  C   UNL     1       4.909   3.522  26.104  0.00  0.00    +0.282 C 
ATOM     14  O   UNL     1       3.491   3.591  26.355  0.00  0.00    -0.341 OA
ATOM     15  C   UNL     1       2.726   2.815  25.410  0.00  0.00    +0.178 C 
ATOM     16  C   UNL     1       2.959   3.305  23.957  0.00  0.00    +0.177 C 
ATOM     17  C   UNL     1       4.460   3.417  23.636  0.00  0.00    +0.179 C 
ATOM     18  C   UNL     1       5.181   4.201  24.748  0.00  0.00    +0.201 C 
BRANCH  18  19
ATOM     19  O   UNL     1       6.577   4.349  24.473  0.00  0.00    -0.384 OA
ATOM     20  H   UNL     1       6.953   3.455  24.379  0.00  0.00    +0.210 HD
ENDBRANCH  18  19
BRANCH  17  21
ATOM     21  O   UNL     1       5.041   2.124  23.419  0.00  0.00    -0.386 OA
ATOM     22  H   UNL     1       5.973   2.263  23.149  0.00  0.00    +0.210 HD
ENDBRANCH  17  21
BRANCH  16  23
ATOM     23  O   UNL     1       2.388   4.599  23.752  0.00  0.00    -0.386 OA
ATOM     24  H   UNL     1       2.424   5.073  24.602  0.00  0.00    +0.210 HD
ENDBRANCH  16  23
BRANCH  15  25
ATOM     25  C   UNL     1       1.255   2.832  25.862  0.00  0.00    +0.190 C 
BRANCH  25  26
ATOM     26  O   UNL     1       0.487   1.738  25.375  0.00  0.00    -0.392 OA
ATOM     27  H   UNL     1       0.294   1.937  24.439  0.00  0.00    +0.210 HD
ENDBRANCH  25  26
ENDBRANCH  15  25
ENDBRANCH  12  13
ENDBRANCH  11  12
ENDBRANCH   4  11
BRANCH   2  28
ATOM     28  O   UNL     1       8.086  -2.100  26.535  0.00  0.00    -0.453 OA
BRANCH  28  29
ATOM     29  C   UNL     1       8.019  -2.714  25.266  0.00  0.00    +0.214 A 
ATOM     30  C   UNL     1       7.535  -4.138  25.102  0.00  0.00    +0.238 A 
ATOM     31  O   UNL     1       7.599  -4.977  25.999  0.00  0.00    -0.283 OA
ATOM     32  C   UNL     1       6.999  -4.545  23.813  0.00  0.00    +0.109 A 
ATOM     33  C   UNL     1       7.467  -3.840  22.720  0.00  0.00    +0.147 A 
ATOM     34  C   UNL     1       7.105  -4.220  21.430  0.00  0.00    +0.092 A 
ATOM     35  C   UNL     1       6.269  -5.317  21.255  0.00  0.00    +0.124 A 
ATOM     36  C   UNL     1       5.765  -6.016  22.347  0.00  0.00    +0.091 A 
ATOM     37  O   UNL     1       8.305  -2.776  22.866  0.00  0.00    -0.451 OA
ATOM     38  C   UNL     1       6.126  -5.626  23.636  0.00  0.00    +0.135 A 
ATOM     39  C   UNL     1       8.370  -2.107  24.100  0.00  0.00    +0.181 A 
BRANCH  39  40
ATOM     40  C   UNL     1       8.903  -0.724  23.862  0.00  0.00    +0.025 A 
ATOM     41  C   UNL     1      10.234  -0.459  24.286  0.00  0.00    +0.015 A 
ATOM     42  C   UNL     1      10.783   0.824  24.284  0.00  0.00    +0.050 A 
ATOM     43  C   UNL     1      10.023   1.868  23.806  0.00  0.00    +0.158 A 
ATOM     44  C   UNL     1       8.731   1.647  23.321  0.00  0.00    +0.162 A 
ATOM     45  C   UNL     1       8.157   0.361  23.376  0.00  0.00    +0.061 A 
BRANCH  44  46
ATOM     46  O   UNL     1       8.094   2.771  22.858  0.00  0.00    -0.491 OA
ATOM     47  C   UNL     1       7.630   2.665  21.516  0.00  0.00    +0.277 C 
ENDBRANCH  44  46
BRANCH  43  48
ATOM     48  O   UNL     1      10.575   3.119  23.802  0.00  0.00    -0.503 OA
ATOM     49  H   UNL     1      11.030   3.202  24.662  0.00  0.00    +0.292 HD
ENDBRANCH  43  48
ENDBRANCH  39  40
BRANCH  38  50
ATOM     50  O   UNL     1       5.597  -6.289  24.706  0.00  0.00    -0.506 OA
ATOM     51  H   UNL     1       4.728  -6.647  24.468  0.00  0.00    +0.292 HD
ENDBRANCH  38  50
BRANCH  35  52
ATOM     52  O   UNL     1       5.891  -5.738  20.017  0.00  0.00    -0.507 OA
ATOM     53  H   UNL     1       5.336  -6.529  20.099  0.00  0.00    +0.292 HD
ENDBRANCH  35  52
ENDBRANCH  28  29
ENDBRANCH   2  28
BRANCH   1  54
ATOM     54  O   UNL     1       5.602  -2.664  28.113  0.00  0.00    -0.337 OA
BRANCH  54  58
ATOM     55  C   UNL     1       2.635  -4.917  26.158  0.00  0.00    +0.041 C 
ATOM     56  C   UNL     1       2.757  -4.940  27.688  0.00  0.00    +0.149 C 
ATOM     57  O   UNL     1       3.528  -3.827  28.193  0.00  0.00    -0.343 OA
ATOM     58  C   UNL     1       4.909  -3.885  27.805  0.00  0.00    +0.282 C 
ATOM     59  C   UNL     1       5.578  -5.159  28.392  0.00  0.00    +0.201 C 
ATOM     60  C   UNL     1       4.821  -6.394  27.914  0.00  0.00    +0.179 C 
ATOM     61  C   UNL     1       3.324  -6.272  28.210  0.00  0.00    +0.174 C 
BRANCH  59  62
ATOM     62  O   UNL     1       5.604  -5.112  29.831  0.00  0.00    -0.384 OA
ATOM     63  H   UNL     1       6.539  -5.232  30.085  0.00  0.00    +0.210 HD
ENDBRANCH  59  62
BRANCH  60  64
ATOM     64  O   UNL     1       5.367  -7.554  28.560  0.00  0.00    -0.386 OA
ATOM     65  H   UNL     1       5.459  -8.225  27.850  0.00  0.00    +0.210 HD
ENDBRANCH  60  64
BRANCH  61  66
ATOM     66  O   UNL     1       3.147  -6.353  29.636  0.00  0.00    -0.387 OA
ATOM     67  H   UNL     1       2.436  -7.016  29.785  0.00  0.00    +0.210 HD
ENDBRANCH  61  66
ENDBRANCH  54  58
ENDBRANCH   1  54
TORSDOF 22
ENDMDL
