MODEL 1
REMARK VINA RESULT:      -7.3      0.000      0.000
REMARK  Name = 
REMARK  17 active torsions:
REMARK  status: ('A' for Active; 'I' for Inactive)
REMARK    1  A    between atoms: C_1  and  C_2
REMARK    2  A    between atoms: C_4  and  O_53
REMARK    3  A    between atoms: C_6  and  O_52
REMARK    4  A    between atoms: C_8  and  O_51
REMARK    5  A    between atoms: C_10  and  O_13
REMARK    6  A    between atoms: O_13  and  C_14
REMARK    7  A    between atoms: C_15  and  C_43
REMARK    8  A    between atoms: C_19  and  O_26
REMARK    9  A    between atoms: C_21  and  O_25
REMARK   10  A    between atoms: O_26  and  C_27
REMARK   11  A    between atoms: C_29  and  O_42
REMARK   12  A    between atoms: C_31  and  O_41
REMARK   13  A    between atoms: C_33  and  O_40
REMARK   14  A    between atoms: C_35  and  C_38
REMARK   15  A    between atoms: C_38  and  O_39
REMARK   16  A    between atoms: C_45  and  O_50
REMARK   17  A    between atoms: C_46  and  O_49
REMARK                            x       y       z     vdW  Elec       q    Type
REMARK                         _______ _______ _______ _____ _____    ______ ____
ROOT
ATOM      1  C   UNL     1       7.572  -2.934  25.126  0.00  0.00    +0.214 A 
ATOM      2  C   UNL     1       8.788  -2.366  24.456  0.00  0.00    +0.238 A 
ATOM      3  O   UNL     1       9.769  -3.056  24.192  0.00  0.00    -0.283 OA
ATOM      4  C   UNL     1       8.810  -0.912  24.204  0.00  0.00    +0.109 A 
ATOM      5  C   UNL     1       7.797  -0.144  24.765  0.00  0.00    +0.147 A 
ATOM      6  C   UNL     1       7.818   1.251  24.646  0.00  0.00    +0.093 A 
ATOM      7  C   UNL     1       8.864   1.889  23.970  0.00  0.00    +0.131 A 
ATOM      8  C   UNL     1       9.856   1.119  23.364  0.00  0.00    +0.092 A 
ATOM      9  O   UNL     1       6.749  -0.681  25.469  0.00  0.00    -0.451 OA
ATOM     10  C   UNL     1       9.830  -0.274  23.481  0.00  0.00    +0.135 A 
ATOM     11  C   UNL     1       6.667  -2.058  25.601  0.00  0.00    +0.181 A 
ENDROOT
BRANCH  11  12
ATOM     12  C   UNL     1       5.495  -2.472  26.403  0.00  0.00    +0.025 A 
ATOM     13  C   UNL     1       4.201  -2.255  25.891  0.00  0.00    +0.015 A 
ATOM     14  C   UNL     1       3.070  -2.685  26.589  0.00  0.00    +0.050 A 
ATOM     15  C   UNL     1       3.233  -3.336  27.801  0.00  0.00    +0.158 A 
ATOM     16  C   UNL     1       4.502  -3.542  28.330  0.00  0.00    +0.159 A 
ATOM     17  C   UNL     1       5.641  -3.115  27.642  0.00  0.00    +0.060 A 
BRANCH  16  18
ATOM     18  O   UNL     1       4.585  -4.193  29.528  0.00  0.00    -0.503 OA
ATOM     19  H   UNL     1       5.049  -5.035  29.389  0.00  0.00    +0.292 HD
ENDBRANCH  16  18
BRANCH  15  20
ATOM     20  O   UNL     1       2.128  -3.782  28.472  0.00  0.00    -0.503 OA
ATOM     21  H   UNL     1       2.398  -3.795  29.411  0.00  0.00    +0.292 HD
ENDBRANCH  15  20
ENDBRANCH  11  12
BRANCH  10  22
ATOM     22  O   UNL     1      10.813  -0.999  22.868  0.00  0.00    -0.506 OA
ATOM     23  H   UNL     1      11.686  -0.620  23.052  0.00  0.00    +0.292 HD
ENDBRANCH  10  22
BRANCH   7  24
ATOM     24  O   UNL     1       8.986   3.252  23.827  0.00  0.00    -0.461 OA
BRANCH  24  25
ATOM     25  C   UNL     1       8.269   4.007  24.817  0.00  0.00    +0.339 C 
ATOM     26  O   UNL     1       6.943   4.331  24.393  0.00  0.00    -0.331 OA
ATOM     27  C   UNL     1       6.791   5.426  23.477  0.00  0.00    +0.179 C 
ATOM     28  C   UNL     1       7.465   6.695  24.024  0.00  0.00    +0.177 C 
ATOM     29  C   UNL     1       8.949   6.437  24.309  0.00  0.00    +0.180 C 
ATOM     30  C   UNL     1       9.103   5.237  25.260  0.00  0.00    +0.214 C 
BRANCH  30  31
ATOM     31  O   UNL     1       8.695   5.639  26.581  0.00  0.00    -0.383 OA
ATOM     32  H   UNL     1       8.175   6.466  26.470  0.00  0.00    +0.210 HD
ENDBRANCH  30  31
BRANCH  29  33
ATOM     33  O   UNL     1       9.672   6.301  23.085  0.00  0.00    -0.386 OA
ATOM     34  H   UNL     1      10.091   7.151  22.860  0.00  0.00    +0.210 HD
ENDBRANCH  29  33
BRANCH  28  35
ATOM     35  O   UNL     1       6.811   7.057  25.257  0.00  0.00    -0.386 OA
ATOM     36  H   UNL     1       6.240   7.825  25.070  0.00  0.00    +0.210 HD
ENDBRANCH  28  35
BRANCH  27  37
ATOM     37  C   UNL     1       7.180   5.060  22.033  0.00  0.00    +0.190 C 
BRANCH  37  38
ATOM     38  O   UNL     1       7.452   6.222  21.254  0.00  0.00    -0.392 OA
ATOM     39  H   UNL     1       7.194   6.028  20.335  0.00  0.00    +0.210 HD
ENDBRANCH  37  38
ENDBRANCH  27  37
ENDBRANCH  24  25
ENDBRANCH   7  24
BRANCH   1  40
ATOM     40  O   UNL     1       7.421  -4.296  25.361  0.00  0.00    -0.453 OA
BRANCH  40  44
ATOM     41  C   UNL     1       6.499  -5.884  21.398  0.00  0.00    +0.041 C 
ATOM     42  C   UNL     1       5.652  -4.902  22.203  0.00  0.00    +0.150 C 
ATOM     43  O   UNL     1       6.399  -4.247  23.240  0.00  0.00    -0.334 OA
ATOM     44  C   UNL     1       6.705  -5.061  24.381  0.00  0.00    +0.339 C 
ATOM     45  C   UNL     1       5.424  -5.601  25.052  0.00  0.00    +0.214 C 
ATOM     46  C   UNL     1       4.556  -6.340  24.024  0.00  0.00    +0.180 C 
ATOM     47  C   UNL     1       4.342  -5.482  22.768  0.00  0.00    +0.174 C 
BRANCH  47  48
ATOM     48  O   UNL     1       3.488  -4.378  23.119  0.00  0.00    -0.387 OA
ATOM     49  H   UNL     1       4.013  -3.751  23.654  0.00  0.00    +0.210 HD
ENDBRANCH  47  48
BRANCH  46  50
ATOM     50  O   UNL     1       5.101  -7.634  23.716  0.00  0.00    -0.386 OA
ATOM     51  H   UNL     1       5.234  -8.159  24.522  0.00  0.00    +0.210 HD
ENDBRANCH  46  50
BRANCH  45  52
ATOM     52  O   UNL     1       5.736  -6.485  26.141  0.00  0.00    -0.383 OA
ATOM     53  H   UNL     1       5.878  -7.374  25.766  0.00  0.00    +0.210 HD
ENDBRANCH  45  52
ENDBRANCH  40  44
ENDBRANCH   1  40
TORSDOF 16
ENDMDL
MODEL 2
REMARK VINA RESULT:      -7.3      1.101      2.088
REMARK  Name = 
REMARK  17 active torsions:
REMARK  status: ('A' for Active; 'I' for Inactive)
REMARK    1  A    between atoms: C_1  and  C_2
REMARK    2  A    between atoms: C_4  and  O_53
REMARK    3  A    between atoms: C_6  and  O_52
REMARK    4  A    between atoms: C_8  and  O_51
REMARK    5  A    between atoms: C_10  and  O_13
REMARK    6  A    between atoms: O_13  and  C_14
REMARK    7  A    between atoms: C_15  and  C_43
REMARK    8  A    between atoms: C_19  and  O_26
REMARK    9  A    between atoms: C_21  and  O_25
REMARK   10  A    between atoms: O_26  and  C_27
REMARK   11  A    between atoms: C_29  and  O_42
REMARK   12  A    between atoms: C_31  and  O_41
REMARK   13  A    between atoms: C_33  and  O_40
REMARK   14  A    between atoms: C_35  and  C_38
REMARK   15  A    between atoms: C_38  and  O_39
REMARK   16  A    between atoms: C_45  and  O_50
REMARK   17  A    between atoms: C_46  and  O_49
REMARK                            x       y       z     vdW  Elec       q    Type
REMARK                         _______ _______ _______ _____ _____    ______ ____
ROOT
ATOM      1  C   UNL     1       7.400  -3.700  25.592  0.00  0.00    +0.214 A 
ATOM      2  C   UNL     1       8.596  -3.213  24.829  0.00  0.00    +0.238 A 
ATOM      3  O   UNL     1       9.426  -3.985  24.355  0.00  0.00    -0.283 OA
ATOM      4  C   UNL     1       8.801  -1.754  24.742  0.00  0.00    +0.109 A 
ATOM      5  C   UNL     1       7.988  -0.940  25.522  0.00  0.00    +0.147 A 
ATOM      6  C   UNL     1       8.200   0.443  25.560  0.00  0.00    +0.093 A 
ATOM      7  C   UNL     1       9.239   1.022  24.821  0.00  0.00    +0.131 A 
ATOM      8  C   UNL     1      10.026   0.215  24.001  0.00  0.00    +0.092 A 
ATOM      9  O   UNL     1       6.966  -1.423  26.299  0.00  0.00    -0.451 OA
ATOM     10  C   UNL     1       9.809  -1.166  23.962  0.00  0.00    +0.135 A 
ATOM     11  C   UNL     1       6.699  -2.783  26.284  0.00  0.00    +0.181 A 
ENDROOT
BRANCH  11  12
ATOM     12  C   UNL     1       5.584  -3.141  27.189  0.00  0.00    +0.025 A 
ATOM     13  C   UNL     1       4.294  -2.646  26.918  0.00  0.00    +0.015 A 
ATOM     14  C   UNL     1       3.203  -3.009  27.713  0.00  0.00    +0.050 A 
ATOM     15  C   UNL     1       3.403  -3.872  28.779  0.00  0.00    +0.158 A 
ATOM     16  C   UNL     1       4.674  -4.355  29.071  0.00  0.00    +0.159 A 
ATOM     17  C   UNL     1       5.772  -3.998  28.285  0.00  0.00    +0.060 A 
BRANCH  16  18
ATOM     18  O   UNL     1       4.793  -5.202  30.135  0.00  0.00    -0.503 OA
ATOM     19  H   UNL     1       5.681  -5.098  30.514  0.00  0.00    +0.292 HD
ENDBRANCH  16  18
BRANCH  15  20
ATOM     20  O   UNL     1       2.333  -4.249  29.540  0.00  0.00    -0.503 OA
ATOM     21  H   UNL     1       1.686  -3.524  29.435  0.00  0.00    +0.292 HD
ENDBRANCH  15  20
ENDBRANCH  11  12
BRANCH  10  22
ATOM     22  O   UNL     1      10.593  -1.927  23.141  0.00  0.00    -0.506 OA
ATOM     23  H   UNL     1      11.121  -1.366  22.552  0.00  0.00    +0.292 HD
ENDBRANCH  10  22
BRANCH   7  24
ATOM     24  O   UNL     1       9.541   2.363  24.819  0.00  0.00    -0.461 OA
BRANCH  24  25
ATOM     25  C   UNL     1       9.497   2.969  23.516  0.00  0.00    +0.339 C 
ATOM     26  O   UNL     1       9.850   4.353  23.552  0.00  0.00    -0.331 OA
ATOM     27  C   UNL     1       8.847   5.280  23.994  0.00  0.00    +0.179 C 
ATOM     28  C   UNL     1       7.553   5.115  23.180  0.00  0.00    +0.177 C 
ATOM     29  C   UNL     1       7.033   3.675  23.279  0.00  0.00    +0.180 C 
ATOM     30  C   UNL     1       8.130   2.688  22.842  0.00  0.00    +0.214 C 
BRANCH  30  31
ATOM     31  O   UNL     1       8.279   2.767  21.412  0.00  0.00    -0.383 OA
ATOM     32  H   UNL     1       7.522   2.270  21.028  0.00  0.00    +0.210 HD
ENDBRANCH  30  31
BRANCH  29  33
ATOM     33  O   UNL     1       6.518   3.424  24.587  0.00  0.00    -0.386 OA
ATOM     34  H   UNL     1       6.447   2.462  24.728  0.00  0.00    +0.210 HD
ENDBRANCH  29  33
BRANCH  28  35
ATOM     35  O   UNL     1       7.847   5.408  21.800  0.00  0.00    -0.386 OA
ATOM     36  H   UNL     1       8.049   4.561  21.358  0.00  0.00    +0.210 HD
ENDBRANCH  28  35
BRANCH  27  37
ATOM     37  C   UNL     1       8.654   5.274  25.521  0.00  0.00    +0.190 C 
BRANCH  37  38
ATOM     38  O   UNL     1       7.463   5.958  25.900  0.00  0.00    -0.392 OA
ATOM     39  H   UNL     1       6.716   5.348  25.759  0.00  0.00    +0.210 HD
ENDBRANCH  37  38
ENDBRANCH  27  37
ENDBRANCH  24  25
ENDBRANCH   7  24
BRANCH   1  40
ATOM     40  O   UNL     1       7.080  -5.049  25.690  0.00  0.00    -0.453 OA
BRANCH  40  44
ATOM     41  C   UNL     1       5.704  -6.080  21.675  0.00  0.00    +0.041 C 
ATOM     42  C   UNL     1       5.071  -5.061  22.618  0.00  0.00    +0.150 C 
ATOM     43  O   UNL     1       5.968  -4.635  23.655  0.00  0.00    -0.334 OA
ATOM     44  C   UNL     1       6.198  -5.593  24.697  0.00  0.00    +0.339 C 
ATOM     45  C   UNL     1       4.883  -5.989  25.404  0.00  0.00    +0.214 C 
ATOM     46  C   UNL     1       3.854  -6.479  24.376  0.00  0.00    +0.180 C 
ATOM     47  C   UNL     1       3.716  -5.480  23.218  0.00  0.00    +0.174 C 
BRANCH  47  48
ATOM     48  O   UNL     1       3.073  -4.295  23.721  0.00  0.00    -0.387 OA
ATOM     49  H   UNL     1       3.748  -3.761  24.185  0.00  0.00    +0.210 HD
ENDBRANCH  47  48
BRANCH  46  50
ATOM     50  O   UNL     1       4.165  -7.806  23.920  0.00  0.00    -0.386 OA
ATOM     51  H   UNL     1       4.330  -8.404  24.668  0.00  0.00    +0.210 HD
ENDBRANCH  46  50
BRANCH  45  52
ATOM     52  O   UNL     1       5.106  -7.012  26.388  0.00  0.00    -0.383 OA
ATOM     53  H   UNL     1       5.876  -6.743  26.923  0.00  0.00    +0.210 HD
ENDBRANCH  45  52
ENDBRANCH  40  44
ENDBRANCH   1  40
TORSDOF 16
ENDMDL
MODEL 3
REMARK VINA RESULT:      -7.1      2.796      9.400
REMARK  Name = 
REMARK  17 active torsions:
REMARK  status: ('A' for Active; 'I' for Inactive)
REMARK    1  A    between atoms: C_1  and  C_2
REMARK    2  A    between atoms: C_4  and  O_53
REMARK    3  A    between atoms: C_6  and  O_52
REMARK    4  A    between atoms: C_8  and  O_51
REMARK    5  A    between atoms: C_10  and  O_13
REMARK    6  A    between atoms: O_13  and  C_14
REMARK    7  A    between atoms: C_15  and  C_43
REMARK    8  A    between atoms: C_19  and  O_26
REMARK    9  A    between atoms: C_21  and  O_25
REMARK   10  A    between atoms: O_26  and  C_27
REMARK   11  A    between atoms: C_29  and  O_42
REMARK   12  A    between atoms: C_31  and  O_41
REMARK   13  A    between atoms: C_33  and  O_40
REMARK   14  A    between atoms: C_35  and  C_38
REMARK   15  A    between atoms: C_38  and  O_39
REMARK   16  A    between atoms: C_45  and  O_50
REMARK   17  A    between atoms: C_46  and  O_49
REMARK                            x       y       z     vdW  Elec       q    Type
REMARK                         _______ _______ _______ _____ _____    ______ ____
ROOT
ATOM      1  C   UNL     1       7.969  -1.690  24.995  0.00  0.00    +0.214 A 
ATOM      2  C   UNL     1       7.965  -2.877  24.078  0.00  0.00    +0.238 A 
ATOM      3  O   UNL     1       8.832  -3.043  23.223  0.00  0.00    -0.283 OA
ATOM      4  C   UNL     1       6.821  -3.805  24.169  0.00  0.00    +0.109 A 
ATOM      5  C   UNL     1       5.742  -3.424  24.957  0.00  0.00    +0.147 A 
ATOM      6  C   UNL     1       4.587  -4.214  25.004  0.00  0.00    +0.093 A 
ATOM      7  C   UNL     1       4.501  -5.390  24.250  0.00  0.00    +0.131 A 
ATOM      8  C   UNL     1       5.600  -5.800  23.497  0.00  0.00    +0.092 A 
ATOM      9  O   UNL     1       5.727  -2.274  25.705  0.00  0.00    -0.451 OA
ATOM     10  C   UNL     1       6.753  -5.012  23.455  0.00  0.00    +0.135 A 
ATOM     11  C   UNL     1       6.851  -1.465  25.711  0.00  0.00    +0.181 A 
ENDROOT
BRANCH  11  12
ATOM     12  C   UNL     1       6.665  -0.258  26.548  0.00  0.00    +0.025 A 
ATOM     13  C   UNL     1       5.631   0.644  26.231  0.00  0.00    +0.015 A 
ATOM     14  C   UNL     1       5.383   1.763  27.031  0.00  0.00    +0.050 A 
ATOM     15  C   UNL     1       6.169   1.978  28.151  0.00  0.00    +0.158 A 
ATOM     16  C   UNL     1       7.206   1.107  28.468  0.00  0.00    +0.159 A 
ATOM     17  C   UNL     1       7.465  -0.014  27.675  0.00  0.00    +0.060 A 
BRANCH  16  18
ATOM     18  O   UNL     1       7.936   1.382  29.588  0.00  0.00    -0.503 OA
ATOM     19  H   UNL     1       7.366   1.848  30.221  0.00  0.00    +0.292 HD
ENDBRANCH  16  18
BRANCH  15  20
ATOM     20  O   UNL     1       5.911   3.057  28.949  0.00  0.00    -0.503 OA
ATOM     21  H   UNL     1       4.990   3.305  28.739  0.00  0.00    +0.292 HD
ENDBRANCH  15  20
ENDBRANCH  11  12
BRANCH  10  22
ATOM     22  O   UNL     1       7.816  -5.447  22.712  0.00  0.00    -0.506 OA
ATOM     23  H   UNL     1       8.482  -4.749  22.623  0.00  0.00    +0.292 HD
ENDBRANCH  10  22
BRANCH   7  24
ATOM     24  O   UNL     1       3.400  -6.213  24.210  0.00  0.00    -0.461 OA
BRANCH  24  25
ATOM     25  C   UNL     1       3.395  -7.231  25.224  0.00  0.00    +0.339 C 
ATOM     26  O   UNL     1       2.966  -8.496  24.716  0.00  0.00    -0.331 OA
ATOM     27  C   UNL     1       1.556  -8.694  24.540  0.00  0.00    +0.179 C 
ATOM     28  C   UNL     1       0.794  -8.394  25.841  0.00  0.00    +0.177 C 
ATOM     29  C   UNL     1       1.079  -6.964  26.315  0.00  0.00    +0.180 C 
ATOM     30  C   UNL     1       2.596  -6.750  26.462  0.00  0.00    +0.214 C 
BRANCH  30  31
ATOM     31  O   UNL     1       3.051  -7.460  27.629  0.00  0.00    -0.383 OA
ATOM     32  H   UNL     1       2.877  -6.870  28.396  0.00  0.00    +0.210 HD
ENDBRANCH  30  31
BRANCH  29  33
ATOM     33  O   UNL     1       0.443  -6.020  25.451  0.00  0.00    -0.386 OA
ATOM     34  H   UNL     1      -0.506  -5.973  25.667  0.00  0.00    +0.210 HD
ENDBRANCH  29  33
BRANCH  28  35
ATOM     35  O   UNL     1       1.246  -9.317  26.852  0.00  0.00    -0.386 OA
ATOM     36  H   UNL     1       2.003  -9.808  26.481  0.00  0.00    +0.210 HD
ENDBRANCH  28  35
BRANCH  27  37
ATOM     37  C   UNL     1       1.001  -7.988  23.289  0.00  0.00    +0.190 C 
BRANCH  37  38
ATOM     38  O   UNL     1       1.943  -8.003  22.219  0.00  0.00    -0.392 OA
ATOM     39  H   UNL     1       1.554  -8.522  21.492  0.00  0.00    +0.210 HD
ENDBRANCH  37  38
ENDBRANCH  27  37
ENDBRANCH  24  25
ENDBRANCH   7  24
BRANCH   1  40
ATOM     40  O   UNL     1       9.022  -0.783  25.033  0.00  0.00    -0.453 OA
BRANCH  40  44
ATOM     41  C   UNL     1       6.989   2.618  23.198  0.00  0.00    +0.041 C 
ATOM     42  C   UNL     1       7.592   1.420  22.470  0.00  0.00    +0.150 C 
ATOM     43  O   UNL     1       7.794   0.292  23.335  0.00  0.00    -0.334 OA
ATOM     44  C   UNL     1       8.896   0.410  24.245  0.00  0.00    +0.339 C 
ATOM     45  C   UNL     1      10.230   0.620  23.497  0.00  0.00    +0.214 C 
ATOM     46  C   UNL     1      10.124   1.825  22.550  0.00  0.00    +0.180 C 
ATOM     47  C   UNL     1       8.871   1.720  21.668  0.00  0.00    +0.174 C 
BRANCH  47  48
ATOM     48  O   UNL     1       9.068   0.642  20.735  0.00  0.00    -0.387 OA
ATOM     49  H   UNL     1      10.031   0.518  20.619  0.00  0.00    +0.210 HD
ENDBRANCH  47  48
BRANCH  46  50
ATOM     50  O   UNL     1      10.181   3.064  23.276  0.00  0.00    -0.386 OA
ATOM     51  H   UNL     1       9.329   3.530  23.241  0.00  0.00    +0.210 HD
ENDBRANCH  46  50
BRANCH  45  52
ATOM     52  O   UNL     1      11.318   0.824  24.414  0.00  0.00    -0.383 OA
ATOM     53  H   UNL     1      11.816  -0.013  24.469  0.00  0.00    +0.210 HD
ENDBRANCH  45  52
ENDBRANCH  40  44
ENDBRANCH   1  40
TORSDOF 16
ENDMDL
MODEL 4
REMARK VINA RESULT:      -6.7      1.764      4.172
REMARK  Name = 
REMARK  17 active torsions:
REMARK  status: ('A' for Active; 'I' for Inactive)
REMARK    1  A    between atoms: C_1  and  C_2
REMARK    2  A    between atoms: C_4  and  O_53
REMARK    3  A    between atoms: C_6  and  O_52
REMARK    4  A    between atoms: C_8  and  O_51
REMARK    5  A    between atoms: C_10  and  O_13
REMARK    6  A    between atoms: O_13  and  C_14
REMARK    7  A    between atoms: C_15  and  C_43
REMARK    8  A    between atoms: C_19  and  O_26
REMARK    9  A    between atoms: C_21  and  O_25
REMARK   10  A    between atoms: O_26  and  C_27
REMARK   11  A    between atoms: C_29  and  O_42
REMARK   12  A    between atoms: C_31  and  O_41
REMARK   13  A    between atoms: C_33  and  O_40
REMARK   14  A    between atoms: C_35  and  C_38
REMARK   15  A    between atoms: C_38  and  O_39
REMARK   16  A    between atoms: C_45  and  O_50
REMARK   17  A    between atoms: C_46  and  O_49
REMARK                            x       y       z     vdW  Elec       q    Type
REMARK                         _______ _______ _______ _____ _____    ______ ____
ROOT
ATOM      1  C   UNL     1       6.820  -2.116  26.068  0.00  0.00    +0.214 A 
ATOM      2  C   UNL     1       6.897  -0.769  26.724  0.00  0.00    +0.238 A 
ATOM      3  O   UNL     1       6.559  -0.591  27.891  0.00  0.00    -0.283 OA
ATOM      4  C   UNL     1       7.308   0.374  25.885  0.00  0.00    +0.109 A 
ATOM      5  C   UNL     1       7.414   0.165  24.516  0.00  0.00    +0.147 A 
ATOM      6  C   UNL     1       7.701   1.233  23.657  0.00  0.00    +0.093 A 
ATOM      7  C   UNL     1       7.875   2.525  24.167  0.00  0.00    +0.131 A 
ATOM      8  C   UNL     1       7.818   2.730  25.544  0.00  0.00    +0.092 A 
ATOM      9  O   UNL     1       7.231  -1.060  23.926  0.00  0.00    -0.451 OA
ATOM     10  C   UNL     1       7.535   1.661  26.399  0.00  0.00    +0.135 A 
ATOM     11  C   UNL     1       6.964  -2.156  24.730  0.00  0.00    +0.181 A 
ENDROOT
BRANCH  11  12
ATOM     12  C   UNL     1       6.773  -3.393  23.940  0.00  0.00    +0.025 A 
ATOM     13  C   UNL     1       7.885  -4.211  23.665  0.00  0.00    +0.015 A 
ATOM     14  C   UNL     1       7.738  -5.417  22.974  0.00  0.00    +0.050 A 
ATOM     15  C   UNL     1       6.475  -5.807  22.561  0.00  0.00    +0.158 A 
ATOM     16  C   UNL     1       5.368  -5.002  22.809  0.00  0.00    +0.159 A 
ATOM     17  C   UNL     1       5.503  -3.794  23.497  0.00  0.00    +0.060 A 
BRANCH  16  18
ATOM     18  O   UNL     1       4.155  -5.454  22.374  0.00  0.00    -0.503 OA
ATOM     19  H   UNL     1       3.946  -6.277  22.845  0.00  0.00    +0.292 HD
ENDBRANCH  16  18
BRANCH  15  20
ATOM     20  O   UNL     1       6.326  -6.999  21.910  0.00  0.00    -0.503 OA
ATOM     21  H   UNL     1       6.984  -6.971  21.188  0.00  0.00    +0.292 HD
ENDBRANCH  15  20
ENDBRANCH  11  12
BRANCH  10  22
ATOM     22  O   UNL     1       7.493   1.894  27.745  0.00  0.00    -0.506 OA
ATOM     23  H   UNL     1       8.380   2.080  28.090  0.00  0.00    +0.292 HD
ENDBRANCH  10  22
BRANCH   7  24
ATOM     24  O   UNL     1       8.131   3.638  23.400  0.00  0.00    -0.461 OA
BRANCH  24  25
ATOM     25  C   UNL     1       7.086   3.955  22.466  0.00  0.00    +0.339 C 
ATOM     26  O   UNL     1       7.407   5.093  21.662  0.00  0.00    -0.331 OA
ATOM     27  C   UNL     1       7.241   6.389  22.255  0.00  0.00    +0.179 C 
ATOM     28  C   UNL     1       5.818   6.557  22.813  0.00  0.00    +0.177 C 
ATOM     29  C   UNL     1       5.506   5.456  23.835  0.00  0.00    +0.180 C 
ATOM     30  C   UNL     1       5.726   4.071  23.201  0.00  0.00    +0.214 C 
BRANCH  30  31
ATOM     31  O   UNL     1       4.658   3.813  22.271  0.00  0.00    -0.383 OA
ATOM     32  H   UNL     1       5.058   3.322  21.519  0.00  0.00    +0.210 HD
ENDBRANCH  30  31
BRANCH  29  33
ATOM     33  O   UNL     1       6.252   5.668  25.034  0.00  0.00    -0.386 OA
ATOM     34  H   UNL     1       6.550   4.809  25.386  0.00  0.00    +0.210 HD
ENDBRANCH  29  33
BRANCH  28  35
ATOM     35  O   UNL     1       4.888   6.450  21.717  0.00  0.00    -0.386 OA
ATOM     36  H   UNL     1       4.763   7.345  21.352  0.00  0.00    +0.210 HD
ENDBRANCH  28  35
BRANCH  27  37
ATOM     37  C   UNL     1       8.367   6.748  23.241  0.00  0.00    +0.190 C 
BRANCH  37  38
ATOM     38  O   UNL     1       9.605   6.153  22.859  0.00  0.00    -0.392 OA
ATOM     39  H   UNL     1      10.144   6.052  23.664  0.00  0.00    +0.210 HD
ENDBRANCH  37  38
ENDBRANCH  27  37
ENDBRANCH  24  25
ENDBRANCH   7  24
BRANCH   1  40
ATOM     40  O   UNL     1       6.499  -3.269  26.776  0.00  0.00    -0.453 OA
BRANCH  40  44
ATOM     41  C   UNL     1       2.259  -3.354  25.732  0.00  0.00    +0.041 C 
ATOM     42  C   UNL     1       2.863  -3.654  27.101  0.00  0.00    +0.150 C 
ATOM     43  O   UNL     1       4.194  -3.135  27.244  0.00  0.00    -0.334 OA
ATOM     44  C   UNL     1       5.211  -3.856  26.534  0.00  0.00    +0.339 C 
ATOM     45  C   UNL     1       5.278  -5.332  26.982  0.00  0.00    +0.214 C 
ATOM     46  C   UNL     1       3.896  -5.989  26.850  0.00  0.00    +0.180 C 
ATOM     47  C   UNL     1       2.815  -5.133  27.525  0.00  0.00    +0.174 C 
BRANCH  47  48
ATOM     48  O   UNL     1       3.021  -5.189  28.949  0.00  0.00    -0.387 OA
ATOM     49  H   UNL     1       2.577  -4.414  29.346  0.00  0.00    +0.210 HD
ENDBRANCH  47  48
BRANCH  46  50
ATOM     50  O   UNL     1       3.587  -6.280  25.477  0.00  0.00    -0.386 OA
ATOM     51  H   UNL     1       2.937  -6.998  25.408  0.00  0.00    +0.210 HD
ENDBRANCH  46  50
BRANCH  45  52
ATOM     52  O   UNL     1       6.237  -6.071  26.209  0.00  0.00    -0.383 OA
ATOM     53  H   UNL     1       7.104  -5.638  26.325  0.00  0.00    +0.210 HD
ENDBRANCH  45  52
ENDBRANCH  40  44
ENDBRANCH   1  40
TORSDOF 16
ENDMDL
MODEL 5
REMARK VINA RESULT:      -6.7      2.339      9.656
REMARK  Name = 
REMARK  17 active torsions:
REMARK  status: ('A' for Active; 'I' for Inactive)
REMARK    1  A    between atoms: C_1  and  C_2
REMARK    2  A    between atoms: C_4  and  O_53
REMARK    3  A    between atoms: C_6  and  O_52
REMARK    4  A    between atoms: C_8  and  O_51
REMARK    5  A    between atoms: C_10  and  O_13
REMARK    6  A    between atoms: O_13  and  C_14
REMARK    7  A    between atoms: C_15  and  C_43
REMARK    8  A    between atoms: C_19  and  O_26
REMARK    9  A    between atoms: C_21  and  O_25
REMARK   10  A    between atoms: O_26  and  C_27
REMARK   11  A    between atoms: C_29  and  O_42
REMARK   12  A    between atoms: C_31  and  O_41
REMARK   13  A    between atoms: C_33  and  O_40
REMARK   14  A    between atoms: C_35  and  C_38
REMARK   15  A    between atoms: C_38  and  O_39
REMARK   16  A    between atoms: C_45  and  O_50
REMARK   17  A    between atoms: C_46  and  O_49
REMARK                            x       y       z     vdW  Elec       q    Type
REMARK                         _______ _______ _______ _____ _____    ______ ____
ROOT
ATOM      1  C   UNL     1       6.724   1.504  23.071  0.00  0.00    +0.214 A 
ATOM      2  C   UNL     1       7.344   0.142  23.165  0.00  0.00    +0.238 A 
ATOM      3  O   UNL     1       8.199  -0.242  22.370  0.00  0.00    -0.283 OA
ATOM      4  C   UNL     1       6.822  -0.775  24.197  0.00  0.00    +0.109 A 
ATOM      5  C   UNL     1       5.678  -0.389  24.884  0.00  0.00    +0.147 A 
ATOM      6  C   UNL     1       5.077  -1.259  25.803  0.00  0.00    +0.093 A 
ATOM      7  C   UNL     1       5.617  -2.529  26.033  0.00  0.00    +0.131 A 
ATOM      8  C   UNL     1       6.793  -2.901  25.383  0.00  0.00    +0.092 A 
ATOM      9  O   UNL     1       5.064   0.823  24.700  0.00  0.00    -0.451 OA
ATOM     10  C   UNL     1       7.392  -2.029  24.469  0.00  0.00    +0.135 A 
ATOM     11  C   UNL     1       5.626   1.731  23.817  0.00  0.00    +0.181 A 
ENDROOT
BRANCH  11  12
ATOM     12  C   UNL     1       4.834   2.977  23.719  0.00  0.00    +0.025 A 
ATOM     13  C   UNL     1       4.762   3.834  24.833  0.00  0.00    +0.015 A 
ATOM     14  C   UNL     1       4.074   5.049  24.762  0.00  0.00    +0.050 A 
ATOM     15  C   UNL     1       3.460   5.407  23.573  0.00  0.00    +0.158 A 
ATOM     16  C   UNL     1       3.506   4.564  22.469  0.00  0.00    +0.159 A 
ATOM     17  C   UNL     1       4.189   3.346  22.528  0.00  0.00    +0.060 A 
BRANCH  16  18
ATOM     18  O   UNL     1       2.880   4.985  21.331  0.00  0.00    -0.503 OA
ATOM     19  H   UNL     1       3.379   4.657  20.565  0.00  0.00    +0.292 HD
ENDBRANCH  16  18
BRANCH  15  20
ATOM     20  O   UNL     1       2.810   6.607  23.495  0.00  0.00    -0.503 OA
ATOM     21  H   UNL     1       1.894   6.377  23.245  0.00  0.00    +0.292 HD
ENDBRANCH  15  20
ENDBRANCH  11  12
BRANCH  10  22
ATOM     22  O   UNL     1       8.548  -2.421  23.854  0.00  0.00    -0.506 OA
ATOM     23  H   UNL     1       8.559  -2.137  22.927  0.00  0.00    +0.292 HD
ENDBRANCH  10  22
BRANCH   7  24
ATOM     24  O   UNL     1       5.082  -3.461  26.893  0.00  0.00    -0.461 OA
BRANCH  24  25
ATOM     25  C   UNL     1       5.706  -4.753  26.815  0.00  0.00    +0.339 C 
ATOM     26  O   UNL     1       4.784  -5.775  26.430  0.00  0.00    -0.331 OA
ATOM     27  C   UNL     1       3.903  -6.285  27.441  0.00  0.00    +0.179 C 
ATOM     28  C   UNL     1       4.697  -6.764  28.669  0.00  0.00    +0.177 C 
ATOM     29  C   UNL     1       5.558  -5.626  29.232  0.00  0.00    +0.180 C 
ATOM     30  C   UNL     1       6.470  -5.059  28.129  0.00  0.00    +0.214 C 
BRANCH  30  31
ATOM     31  O   UNL     1       7.516  -6.011  27.861  0.00  0.00    -0.383 OA
ATOM     32  H   UNL     1       8.105  -5.593  27.194  0.00  0.00    +0.210 HD
ENDBRANCH  30  31
BRANCH  29  33
ATOM     33  O   UNL     1       4.731  -4.644  29.859  0.00  0.00    -0.386 OA
ATOM     34  H   UNL     1       4.750  -3.823  29.334  0.00  0.00    +0.210 HD
ENDBRANCH  29  33
BRANCH  28  35
ATOM     35  O   UNL     1       5.563  -7.839  28.254  0.00  0.00    -0.386 OA
ATOM     36  H   UNL     1       6.478  -7.573  28.461  0.00  0.00    +0.210 HD
ENDBRANCH  28  35
BRANCH  27  37
ATOM     37  C   UNL     1       2.737  -5.331  27.759  0.00  0.00    +0.190 C 
BRANCH  37  38
ATOM     38  O   UNL     1       2.305  -4.629  26.596  0.00  0.00    -0.392 OA
ATOM     39  H   UNL     1       3.058  -4.103  26.273  0.00  0.00    +0.210 HD
ENDBRANCH  37  38
ENDBRANCH  27  37
ENDBRANCH  24  25
ENDBRANCH   7  24
BRANCH   1  40
ATOM     40  O   UNL     1       7.175   2.465  22.173  0.00  0.00    -0.453 OA
BRANCH  40  44
ATOM     41  C   UNL     1      11.190   3.655  23.413  0.00  0.00    +0.041 C 
ATOM     42  C   UNL     1       9.944   3.609  24.293  0.00  0.00    +0.150 C 
ATOM     43  O   UNL     1       8.904   2.788  23.739  0.00  0.00    -0.334 OA
ATOM     44  C   UNL     1       8.207   3.356  22.622  0.00  0.00    +0.339 C 
ATOM     45  C   UNL     1       7.539   4.698  22.992  0.00  0.00    +0.214 C 
ATOM     46  C   UNL     1       8.578   5.662  23.584  0.00  0.00    +0.180 C 
ATOM     47  C   UNL     1       9.382   4.984  24.702  0.00  0.00    +0.174 C 
BRANCH  47  48
ATOM     48  O   UNL     1       8.507   4.784  25.827  0.00  0.00    -0.387 OA
ATOM     49  H   UNL     1       8.856   5.309  26.575  0.00  0.00    +0.210 HD
ENDBRANCH  47  48
BRANCH  46  50
ATOM     50  O   UNL     1       9.422   6.211  22.558  0.00  0.00    -0.386 OA
ATOM     51  H   UNL     1       8.906   6.450  21.770  0.00  0.00    +0.210 HD
ENDBRANCH  46  50
BRANCH  45  52
ATOM     52  O   UNL     1       6.915   5.305  21.849  0.00  0.00    -0.383 OA
ATOM     53  H   UNL     1       6.434   4.605  21.371  0.00  0.00    +0.210 HD
ENDBRANCH  45  52
ENDBRANCH  40  44
ENDBRANCH   1  40
TORSDOF 16
ENDMDL
MODEL 6
REMARK VINA RESULT:      -6.6      1.968      4.792
REMARK  Name = 
REMARK  17 active torsions:
REMARK  status: ('A' for Active; 'I' for Inactive)
REMARK    1  A    between atoms: C_1  and  C_2
REMARK    2  A    between atoms: C_4  and  O_53
REMARK    3  A    between atoms: C_6  and  O_52
REMARK    4  A    between atoms: C_8  and  O_51
REMARK    5  A    between atoms: C_10  and  O_13
REMARK    6  A    between atoms: O_13  and  C_14
REMARK    7  A    between atoms: C_15  and  C_43
REMARK    8  A    between atoms: C_19  and  O_26
REMARK    9  A    between atoms: C_21  and  O_25
REMARK   10  A    between atoms: O_26  and  C_27
REMARK   11  A    between atoms: C_29  and  O_42
REMARK   12  A    between atoms: C_31  and  O_41
REMARK   13  A    between atoms: C_33  and  O_40
REMARK   14  A    between atoms: C_35  and  C_38
REMARK   15  A    between atoms: C_38  and  O_39
REMARK   16  A    between atoms: C_45  and  O_50
REMARK   17  A    between atoms: C_46  and  O_49
REMARK                            x       y       z     vdW  Elec       q    Type
REMARK                         _______ _______ _______ _____ _____    ______ ____
ROOT
ATOM      1  C   UNL     1       5.041  -1.879  25.572  0.00  0.00    +0.214 A 
ATOM      2  C   UNL     1       4.686  -0.598  26.267  0.00  0.00    +0.238 A 
ATOM      3  O   UNL     1       3.603  -0.437  26.823  0.00  0.00    -0.283 OA
ATOM      4  C   UNL     1       5.652   0.514  26.181  0.00  0.00    +0.109 A 
ATOM      5  C   UNL     1       6.730   0.368  25.316  0.00  0.00    +0.147 A 
ATOM      6  C   UNL     1       7.625   1.426  25.115  0.00  0.00    +0.093 A 
ATOM      7  C   UNL     1       7.439   2.646  25.776  0.00  0.00    +0.131 A 
ATOM      8  C   UNL     1       6.387   2.780  26.681  0.00  0.00    +0.092 A 
ATOM      9  O   UNL     1       6.972  -0.780  24.606  0.00  0.00    -0.451 OA
ATOM     10  C   UNL     1       5.498   1.720  26.882  0.00  0.00    +0.135 A 
ATOM     11  C   UNL     1       6.130  -1.866  24.780  0.00  0.00    +0.181 A 
ENDROOT
BRANCH  11  12
ATOM     12  C   UNL     1       6.516  -3.014  23.929  0.00  0.00    +0.025 A 
ATOM     13  C   UNL     1       7.445  -3.951  24.420  0.00  0.00    +0.015 A 
ATOM     14  C   UNL     1       7.791  -5.080  23.672  0.00  0.00    +0.050 A 
ATOM     15  C   UNL     1       7.204  -5.273  22.433  0.00  0.00    +0.158 A 
ATOM     16  C   UNL     1       6.298  -4.348  21.925  0.00  0.00    +0.159 A 
ATOM     17  C   UNL     1       5.946  -3.214  22.662  0.00  0.00    +0.060 A 
BRANCH  16  18
ATOM     18  O   UNL     1       5.759  -4.607  20.698  0.00  0.00    -0.503 OA
ATOM     19  H   UNL     1       5.044  -3.969  20.535  0.00  0.00    +0.292 HD
ENDBRANCH  16  18
BRANCH  15  20
ATOM     20  O   UNL     1       7.520  -6.391  21.713  0.00  0.00    -0.503 OA
ATOM     21  H   UNL     1       6.751  -6.982  21.822  0.00  0.00    +0.292 HD
ENDBRANCH  15  20
ENDBRANCH  11  12
BRANCH  10  22
ATOM     22  O   UNL     1       4.482   1.882  27.783  0.00  0.00    -0.506 OA
ATOM     23  H   UNL     1       4.324   2.822  27.958  0.00  0.00    +0.292 HD
ENDBRANCH  10  22
BRANCH   7  24
ATOM     24  O   UNL     1       8.247   3.749  25.620  0.00  0.00    -0.461 OA
BRANCH  24  25
ATOM     25  C   UNL     1       8.604   4.022  24.255  0.00  0.00    +0.339 C 
ATOM     26  O   UNL     1       9.459   5.161  24.138  0.00  0.00    -0.331 OA
ATOM     27  C   UNL     1       8.847   6.457  24.216  0.00  0.00    +0.179 C 
ATOM     28  C   UNL     1       7.703   6.584  23.196  0.00  0.00    +0.177 C 
ATOM     29  C   UNL     1       6.657   5.484  23.419  0.00  0.00    +0.180 C 
ATOM     30  C   UNL     1       7.330   4.101  23.374  0.00  0.00    +0.214 C 
BRANCH  30  31
ATOM     31  O   UNL     1       7.675   3.799  22.009  0.00  0.00    -0.383 OA
ATOM     32  H   UNL     1       6.829   3.614  21.545  0.00  0.00    +0.210 HD
ENDBRANCH  30  31
BRANCH  29  33
ATOM     33  O   UNL     1       5.926   5.733  24.621  0.00  0.00    -0.386 OA
ATOM     34  H   UNL     1       6.258   6.549  25.038  0.00  0.00    +0.210 HD
ENDBRANCH  29  33
BRANCH  28  35
ATOM     35  O   UNL     1       8.258   6.436  21.875  0.00  0.00    -0.386 OA
ATOM     36  H   UNL     1       7.526   6.534  21.237  0.00  0.00    +0.210 HD
ENDBRANCH  28  35
BRANCH  27  37
ATOM     37  C   UNL     1       8.478   6.862  25.654  0.00  0.00    +0.190 C 
BRANCH  37  38
ATOM     38  O   UNL     1       9.414   6.349  26.599  0.00  0.00    -0.392 OA
ATOM     39  H   UNL     1       9.019   5.556  27.004  0.00  0.00    +0.210 HD
ENDBRANCH  37  38
ENDBRANCH  27  37
ENDBRANCH  24  25
ENDBRANCH   7  24
BRANCH   1  40
ATOM     40  O   UNL     1       4.231  -3.007  25.634  0.00  0.00    -0.453 OA
BRANCH  40  44
ATOM     41  C   UNL     1       6.445  -5.832  28.122  0.00  0.00    +0.041 C 
ATOM     42  C   UNL     1       5.241  -6.149  27.240  0.00  0.00    +0.150 C 
ATOM     43  O   UNL     1       5.009  -5.146  26.238  0.00  0.00    -0.334 OA
ATOM     44  C   UNL     1       4.448  -3.918  26.721  0.00  0.00    +0.339 C 
ATOM     45  C   UNL     1       3.089  -4.150  27.417  0.00  0.00    +0.214 C 
ATOM     46  C   UNL     1       3.233  -5.203  28.526  0.00  0.00    +0.180 C 
ATOM     47  C   UNL     1       3.939  -6.461  28.000  0.00  0.00    +0.174 C 
BRANCH  47  48
ATOM     48  O   UNL     1       3.047  -7.129  27.089  0.00  0.00    -0.387 OA
ATOM     49  H   UNL     1       3.562  -7.803  26.605  0.00  0.00    +0.210 HD
ENDBRANCH  47  48
BRANCH  46  50
ATOM     50  O   UNL     1       3.884  -4.653  29.684  0.00  0.00    -0.386 OA
ATOM     51  H   UNL     1       3.505  -3.791  29.923  0.00  0.00    +0.210 HD
ENDBRANCH  46  50
BRANCH  45  52
ATOM     52  O   UNL     1       2.572  -2.931  27.975  0.00  0.00    -0.383 OA
ATOM     53  H   UNL     1       3.270  -2.546  28.537  0.00  0.00    +0.210 HD
ENDBRANCH  45  52
ENDBRANCH  40  44
ENDBRANCH   1  40
TORSDOF 16
ENDMDL
MODEL 7
REMARK VINA RESULT:      -6.6      2.184      4.435
REMARK  Name = 
REMARK  17 active torsions:
REMARK  status: ('A' for Active; 'I' for Inactive)
REMARK    1  A    between atoms: C_1  and  C_2
REMARK    2  A    between atoms: C_4  and  O_53
REMARK    3  A    between atoms: C_6  and  O_52
REMARK    4  A    between atoms: C_8  and  O_51
REMARK    5  A    between atoms: C_10  and  O_13
REMARK    6  A    between atoms: O_13  and  C_14
REMARK    7  A    between atoms: C_15  and  C_43
REMARK    8  A    between atoms: C_19  and  O_26
REMARK    9  A    between atoms: C_21  and  O_25
REMARK   10  A    between atoms: O_26  and  C_27
REMARK   11  A    between atoms: C_29  and  O_42
REMARK   12  A    between atoms: C_31  and  O_41
REMARK   13  A    between atoms: C_33  and  O_40
REMARK   14  A    between atoms: C_35  and  C_38
REMARK   15  A    between atoms: C_38  and  O_39
REMARK   16  A    between atoms: C_45  and  O_50
REMARK   17  A    between atoms: C_46  and  O_49
REMARK                            x       y       z     vdW  Elec       q    Type
REMARK                         _______ _______ _______ _____ _____    ______ ____
ROOT
ATOM      1  C   UNL     1       5.095  -2.452  26.444  0.00  0.00    +0.214 A 
ATOM      2  C   UNL     1       4.112  -1.321  26.498  0.00  0.00    +0.238 A 
ATOM      3  O   UNL     1       2.940  -1.491  26.824  0.00  0.00    -0.283 OA
ATOM      4  C   UNL     1       4.575   0.007  26.050  0.00  0.00    +0.109 A 
ATOM      5  C   UNL     1       5.820   0.084  25.438  0.00  0.00    +0.147 A 
ATOM      6  C   UNL     1       6.272   1.296  24.902  0.00  0.00    +0.093 A 
ATOM      7  C   UNL     1       5.470   2.442  24.967  0.00  0.00    +0.131 A 
ATOM      8  C   UNL     1       4.241   2.380  25.623  0.00  0.00    +0.092 A 
ATOM      9  O   UNL     1       6.659  -0.993  25.303  0.00  0.00    -0.451 OA
ATOM     10  C   UNL     1       3.796   1.169  26.160  0.00  0.00    +0.135 A 
ATOM     11  C   UNL     1       6.271  -2.214  25.833  0.00  0.00    +0.181 A 
ENDROOT
BRANCH  11  12
ATOM     12  C   UNL     1       7.275  -3.272  25.585  0.00  0.00    +0.025 A 
ATOM     13  C   UNL     1       8.194  -3.599  26.601  0.00  0.00    +0.015 A 
ATOM     14  C   UNL     1       9.118  -4.633  26.430  0.00  0.00    +0.050 A 
ATOM     15  C   UNL     1       9.121  -5.343  25.240  0.00  0.00    +0.158 A 
ATOM     16  C   UNL     1       8.234  -5.022  24.220  0.00  0.00    +0.159 A 
ATOM     17  C   UNL     1       7.306  -3.989  24.379  0.00  0.00    +0.060 A 
BRANCH  16  18
ATOM     18  O   UNL     1       8.294  -5.767  23.077  0.00  0.00    -0.503 OA
ATOM     19  H   UNL     1       8.709  -6.620  23.288  0.00  0.00    +0.292 HD
ENDBRANCH  16  18
BRANCH  15  20
ATOM     20  O   UNL     1      10.007  -6.373  25.082  0.00  0.00    -0.503 OA
ATOM     21  H   UNL     1      10.561  -6.107  24.322  0.00  0.00    +0.292 HD
ENDBRANCH  15  20
ENDBRANCH  11  12
BRANCH  10  22
ATOM     22  O   UNL     1       2.590   1.145  26.804  0.00  0.00    -0.506 OA
ATOM     23  H   UNL     1       1.879   0.893  26.194  0.00  0.00    +0.292 HD
ENDBRANCH  10  22
BRANCH   7  24
ATOM     24  O   UNL     1       5.815   3.666  24.444  0.00  0.00    -0.461 OA
BRANCH  24  25
ATOM     25  C   UNL     1       7.206   3.785  24.105  0.00  0.00    +0.339 C 
ATOM     26  O   UNL     1       7.866   4.793  24.874  0.00  0.00    -0.331 OA
ATOM     27  C   UNL     1       7.675   6.158  24.477  0.00  0.00    +0.179 C 
ATOM     28  C   UNL     1       8.028   6.351  22.992  0.00  0.00    +0.177 C 
ATOM     29  C   UNL     1       7.191   5.414  22.113  0.00  0.00    +0.180 C 
ATOM     30  C   UNL     1       7.372   3.957  22.573  0.00  0.00    +0.214 C 
BRANCH  30  31
ATOM     31  O   UNL     1       8.682   3.508  22.182  0.00  0.00    -0.383 OA
ATOM     32  H   UNL     1       9.075   4.235  21.648  0.00  0.00    +0.210 HD
ENDBRANCH  30  31
BRANCH  29  33
ATOM     33  O   UNL     1       5.830   5.847  22.085  0.00  0.00    -0.386 OA
ATOM     34  H   UNL     1       5.565   6.022  21.164  0.00  0.00    +0.210 HD
ENDBRANCH  29  33
BRANCH  28  35
ATOM     35  O   UNL     1       9.422   6.031  22.816  0.00  0.00    -0.386 OA
ATOM     36  H   UNL     1       9.858   6.819  22.442  0.00  0.00    +0.210 HD
ENDBRANCH  28  35
BRANCH  27  37
ATOM     37  C   UNL     1       6.302   6.718  24.891  0.00  0.00    +0.190 C 
BRANCH  37  38
ATOM     38  O   UNL     1       5.863   6.163  26.129  0.00  0.00    -0.392 OA
ATOM     39  H   UNL     1       5.609   5.237  25.963  0.00  0.00    +0.210 HD
ENDBRANCH  37  38
ENDBRANCH  27  37
ENDBRANCH  24  25
ENDBRANCH   7  24
BRANCH   1  40
ATOM     40  O   UNL     1       4.783  -3.730  26.893  0.00  0.00    -0.453 OA
BRANCH  40  44
ATOM     41  C   UNL     1       2.535  -5.017  23.377  0.00  0.00    +0.041 C 
ATOM     42  C   UNL     1       2.196  -5.322  24.833  0.00  0.00    +0.150 C 
ATOM     43  O   UNL     1       2.846  -4.429  25.751  0.00  0.00    -0.334 OA
ATOM     44  C   UNL     1       4.250  -4.656  25.935  0.00  0.00    +0.339 C 
ATOM     45  C   UNL     1       4.530  -6.082  26.455  0.00  0.00    +0.214 C 
ATOM     46  C   UNL     1       3.887  -7.122  25.526  0.00  0.00    +0.180 C 
ATOM     47  C   UNL     1       2.413  -6.785  25.262  0.00  0.00    +0.174 C 
BRANCH  47  48
ATOM     48  O   UNL     1       1.678  -6.999  26.480  0.00  0.00    -0.387 OA
ATOM     49  H   UNL     1       2.313  -6.971  27.223  0.00  0.00    +0.210 HD
ENDBRANCH  47  48
BRANCH  46  50
ATOM     50  O   UNL     1       4.641  -7.272  24.311  0.00  0.00    -0.386 OA
ATOM     51  H   UNL     1       5.498  -6.817  24.372  0.00  0.00    +0.210 HD
ENDBRANCH  46  50
BRANCH  45  52
ATOM     52  O   UNL     1       5.942  -6.334  26.555  0.00  0.00    -0.383 OA
ATOM     53  H   UNL     1       6.058  -7.145  27.085  0.00  0.00    +0.210 HD
ENDBRANCH  45  52
ENDBRANCH  40  44
ENDBRANCH   1  40
TORSDOF 16
ENDMDL
MODEL 8
REMARK VINA RESULT:      -6.4      2.397      9.677
REMARK  Name = 
REMARK  17 active torsions:
REMARK  status: ('A' for Active; 'I' for Inactive)
REMARK    1  A    between atoms: C_1  and  C_2
REMARK    2  A    between atoms: C_4  and  O_53
REMARK    3  A    between atoms: C_6  and  O_52
REMARK    4  A    between atoms: C_8  and  O_51
REMARK    5  A    between atoms: C_10  and  O_13
REMARK    6  A    between atoms: O_13  and  C_14
REMARK    7  A    between atoms: C_15  and  C_43
REMARK    8  A    between atoms: C_19  and  O_26
REMARK    9  A    between atoms: C_21  and  O_25
REMARK   10  A    between atoms: O_26  and  C_27
REMARK   11  A    between atoms: C_29  and  O_42
REMARK   12  A    between atoms: C_31  and  O_41
REMARK   13  A    between atoms: C_33  and  O_40
REMARK   14  A    between atoms: C_35  and  C_38
REMARK   15  A    between atoms: C_38  and  O_39
REMARK   16  A    between atoms: C_45  and  O_50
REMARK   17  A    between atoms: C_46  and  O_49
REMARK                            x       y       z     vdW  Elec       q    Type
REMARK                         _______ _______ _______ _____ _____    ______ ____
ROOT
ATOM      1  C   UNL     1       7.129   0.050  25.806  0.00  0.00    +0.214 A 
ATOM      2  C   UNL     1       7.574  -1.340  26.150  0.00  0.00    +0.238 A 
ATOM      3  O   UNL     1       8.754  -1.615  26.352  0.00  0.00    -0.283 OA
ATOM      4  C   UNL     1       6.552  -2.405  26.145  0.00  0.00    +0.109 A 
ATOM      5  C   UNL     1       5.294  -2.089  25.647  0.00  0.00    +0.147 A 
ATOM      6  C   UNL     1       4.313  -3.081  25.523  0.00  0.00    +0.093 A 
ATOM      7  C   UNL     1       4.590  -4.402  25.892  0.00  0.00    +0.131 A 
ATOM      8  C   UNL     1       5.835  -4.713  26.438  0.00  0.00    +0.092 A 
ATOM      9  O   UNL     1       4.943  -0.829  25.235  0.00  0.00    -0.451 OA
ATOM     10  C   UNL     1       6.811  -3.719  26.563  0.00  0.00    +0.135 A 
ATOM     11  C   UNL     1       5.869   0.196  25.353  0.00  0.00    +0.181 A 
ENDROOT
BRANCH  11  12
ATOM     12  C   UNL     1       5.343   1.483  24.847  0.00  0.00    +0.025 A 
ATOM     13  C   UNL     1       4.621   2.320  25.719  0.00  0.00    +0.015 A 
ATOM     14  C   UNL     1       4.159   3.570  25.298  0.00  0.00    +0.050 A 
ATOM     15  C   UNL     1       4.423   3.984  24.002  0.00  0.00    +0.158 A 
ATOM     16  C   UNL     1       5.118   3.162  23.122  0.00  0.00    +0.159 A 
ATOM     17  C   UNL     1       5.583   1.909  23.531  0.00  0.00    +0.060 A 
BRANCH  16  18
ATOM     18  O   UNL     1       5.342   3.639  21.863  0.00  0.00    -0.503 OA
ATOM     19  H   UNL     1       6.294   3.799  21.758  0.00  0.00    +0.292 HD
ENDBRANCH  16  18
BRANCH  15  20
ATOM     20  O   UNL     1       3.995   5.218  23.597  0.00  0.00    -0.503 OA
ATOM     21  H   UNL     1       4.623   5.844  24.007  0.00  0.00    +0.292 HD
ENDBRANCH  15  20
ENDBRANCH  11  12
BRANCH  10  22
ATOM     22  O   UNL     1       8.018  -4.056  27.110  0.00  0.00    -0.506 OA
ATOM     23  H   UNL     1       8.745  -3.807  26.519  0.00  0.00    +0.292 HD
ENDBRANCH  10  22
BRANCH   7  24
ATOM     24  O   UNL     1       3.703  -5.447  25.779  0.00  0.00    -0.461 OA
BRANCH  24  25
ATOM     25  C   UNL     1       2.946  -5.440  24.558  0.00  0.00    +0.339 C 
ATOM     26  O   UNL     1       1.544  -5.292  24.791  0.00  0.00    -0.331 OA
ATOM     27  C   UNL     1       0.817  -6.456  25.211  0.00  0.00    +0.179 C 
ATOM     28  C   UNL     1       1.040  -7.622  24.233  0.00  0.00    +0.177 C 
ATOM     29  C   UNL     1       2.535  -7.941  24.106  0.00  0.00    +0.180 C 
ATOM     30  C   UNL     1       3.310  -6.676  23.696  0.00  0.00    +0.214 C 
BRANCH  30  31
ATOM     31  O   UNL     1       3.031  -6.392  22.312  0.00  0.00    -0.383 OA
ATOM     32  H   UNL     1       2.665  -7.220  21.929  0.00  0.00    +0.210 HD
ENDBRANCH  30  31
BRANCH  29  33
ATOM     33  O   UNL     1       3.015  -8.549  25.306  0.00  0.00    -0.386 OA
ATOM     34  H   UNL     1       2.793  -7.981  26.067  0.00  0.00    +0.210 HD
ENDBRANCH  29  33
BRANCH  28  35
ATOM     35  O   UNL     1       0.538  -7.230  22.941  0.00  0.00    -0.386 OA
ATOM     36  H   UNL     1       0.988  -7.781  22.273  0.00  0.00    +0.210 HD
ENDBRANCH  28  35
BRANCH  27  37
ATOM     37  C   UNL     1       1.043  -6.804  26.693  0.00  0.00    +0.190 C 
BRANCH  37  38
ATOM     38  O   UNL     1       1.235  -5.632  27.482  0.00  0.00    -0.392 OA
ATOM     39  H   UNL     1       2.062  -5.210  27.185  0.00  0.00    +0.210 HD
ENDBRANCH  37  38
ENDBRANCH  27  37
ENDBRANCH  24  25
ENDBRANCH   7  24
BRANCH   1  40
ATOM     40  O   UNL     1       7.995   1.136  25.833  0.00  0.00    -0.453 OA
BRANCH  40  44
ATOM     41  C   UNL     1       9.038   1.094  21.592  0.00  0.00    +0.041 C 
ATOM     42  C   UNL     1       9.989   1.349  22.759  0.00  0.00    +0.150 C 
ATOM     43  O   UNL     1       9.466   0.880  24.011  0.00  0.00    -0.334 OA
ATOM     44  C   UNL     1       8.415   1.679  24.573  0.00  0.00    +0.339 C 
ATOM     45  C   UNL     1       8.877   3.132  24.819  0.00  0.00    +0.214 C 
ATOM     46  C   UNL     1       9.442   3.736  23.525  0.00  0.00    +0.180 C 
ATOM     47  C   UNL     1      10.483   2.801  22.892  0.00  0.00    +0.174 C 
BRANCH  47  48
ATOM     48  O   UNL     1      11.650   2.793  23.735  0.00  0.00    -0.387 OA
ATOM     49  H   UNL     1      12.309   3.398  23.341  0.00  0.00    +0.210 HD
ENDBRANCH  47  48
BRANCH  46  50
ATOM     50  O   UNL     1       8.390   4.083  22.610  0.00  0.00    -0.386 OA
ATOM     51  H   UNL     1       8.346   5.044  22.475  0.00  0.00    +0.210 HD
ENDBRANCH  46  50
BRANCH  45  52
ATOM     52  O   UNL     1       7.798   3.950  25.300  0.00  0.00    -0.383 OA
ATOM     53  H   UNL     1       8.187   4.774  25.649  0.00  0.00    +0.210 HD
ENDBRANCH  45  52
ENDBRANCH  40  44
ENDBRANCH   1  40
TORSDOF 16
ENDMDL
MODEL 9
REMARK VINA RESULT:      -6.3      1.200      2.500
REMARK  Name = 
REMARK  17 active torsions:
REMARK  status: ('A' for Active; 'I' for Inactive)
REMARK    1  A    between atoms: C_1  and  C_2
REMARK    2  A    between atoms: C_4  and  O_53
REMARK    3  A    between atoms: C_6  and  O_52
REMARK    4  A    between atoms: C_8  and  O_51
REMARK    5  A    between atoms: C_10  and  O_13
REMARK    6  A    between atoms: O_13  and  C_14
REMARK    7  A    between atoms: C_15  and  C_43
REMARK    8  A    between atoms: C_19  and  O_26
REMARK    9  A    between atoms: C_21  and  O_25
REMARK   10  A    between atoms: O_26  and  C_27
REMARK   11  A    between atoms: C_29  and  O_42
REMARK   12  A    between atoms: C_31  and  O_41
REMARK   13  A    between atoms: C_33  and  O_40
REMARK   14  A    between atoms: C_35  and  C_38
REMARK   15  A    between atoms: C_38  and  O_39
REMARK   16  A    between atoms: C_45  and  O_50
REMARK   17  A    between atoms: C_46  and  O_49
REMARK                            x       y       z     vdW  Elec       q    Type
REMARK                         _______ _______ _______ _____ _____    ______ ____
ROOT
ATOM      1  C   UNL     1       7.648  -2.379  24.908  0.00  0.00    +0.214 A 
ATOM      2  C   UNL     1       8.849  -1.656  24.373  0.00  0.00    +0.238 A 
ATOM      3  O   UNL     1       9.835  -2.254  23.952  0.00  0.00    -0.283 OA
ATOM      4  C   UNL     1       8.850  -0.183  24.458  0.00  0.00    +0.109 A 
ATOM      5  C   UNL     1       7.835   0.423  25.187  0.00  0.00    +0.147 A 
ATOM      6  C   UNL     1       7.838   1.809  25.387  0.00  0.00    +0.093 A 
ATOM      7  C   UNL     1       8.868   2.599  24.864  0.00  0.00    +0.131 A 
ATOM      8  C   UNL     1       9.862   2.001  24.091  0.00  0.00    +0.092 A 
ATOM      9  O   UNL     1       6.802  -0.274  25.760  0.00  0.00    -0.451 OA
ATOM     10  C   UNL     1       9.854   0.617  23.889  0.00  0.00    +0.135 A 
ATOM     11  C   UNL     1       6.739  -1.646  25.577  0.00  0.00    +0.181 A 
ENDROOT
BRANCH  11  12
ATOM     12  C   UNL     1       5.581  -2.248  26.275  0.00  0.00    +0.025 A 
ATOM     13  C   UNL     1       4.288  -2.061  25.749  0.00  0.00    +0.015 A 
ATOM     14  C   UNL     1       3.175  -2.662  26.343  0.00  0.00    +0.050 A 
ATOM     15  C   UNL     1       3.357  -3.455  27.464  0.00  0.00    +0.158 A 
ATOM     16  C   UNL     1       4.624  -3.636  28.008  0.00  0.00    +0.159 A 
ATOM     17  C   UNL     1       5.744  -3.038  27.424  0.00  0.00    +0.060 A 
BRANCH  16  18
ATOM     18  O   UNL     1       4.724  -4.432  29.112  0.00  0.00    -0.503 OA
ATOM     19  H   UNL     1       4.764  -5.358  28.821  0.00  0.00    +0.292 HD
ENDBRANCH  16  18
BRANCH  15  20
ATOM     20  O   UNL     1       2.272  -4.065  28.031  0.00  0.00    -0.503 OA
ATOM     21  H   UNL     1       2.022  -4.764  27.396  0.00  0.00    +0.292 HD
ENDBRANCH  15  20
ENDBRANCH  11  12
BRANCH  10  22
ATOM     22  O   UNL     1      10.839   0.064  23.119  0.00  0.00    -0.506 OA
ATOM     23  H   UNL     1      10.463  -0.368  22.337  0.00  0.00    +0.292 HD
ENDBRANCH  10  22
BRANCH   7  24
ATOM     24  O   UNL     1       8.971   3.960  25.033  0.00  0.00    -0.461 OA
BRANCH  24  25
ATOM     25  C   UNL     1       8.784   4.714  23.824  0.00  0.00    +0.339 C 
ATOM     26  O   UNL     1       8.958   6.117  24.030  0.00  0.00    -0.331 OA
ATOM     27  C   UNL     1       7.868   6.838  24.624  0.00  0.00    +0.179 C 
ATOM     28  C   UNL     1       6.566   6.606  23.839  0.00  0.00    +0.177 C 
ATOM     29  C   UNL     1       6.241   5.109  23.764  0.00  0.00    +0.180 C 
ATOM     30  C   UNL     1       7.432   4.340  23.164  0.00  0.00    +0.214 C 
BRANCH  30  31
ATOM     31  O   UNL     1       7.498   4.619  21.753  0.00  0.00    -0.383 OA
ATOM     32  H   UNL     1       8.266   4.112  21.407  0.00  0.00    +0.210 HD
ENDBRANCH  30  31
BRANCH  29  33
ATOM     33  O   UNL     1       5.829   4.628  25.044  0.00  0.00    -0.386 OA
ATOM     34  H   UNL     1       6.267   5.149  25.741  0.00  0.00    +0.210 HD
ENDBRANCH  29  33
BRANCH  28  35
ATOM     35  O   UNL     1       6.752   7.108  22.500  0.00  0.00    -0.386 OA
ATOM     36  H   UNL     1       7.685   6.959  22.259  0.00  0.00    +0.210 HD
ENDBRANCH  28  35
BRANCH  27  37
ATOM     37  C   UNL     1       7.755   6.613  26.142  0.00  0.00    +0.190 C 
BRANCH  37  38
ATOM     38  O   UNL     1       9.038   6.563  26.761  0.00  0.00    -0.392 OA
ATOM     39  H   UNL     1       9.163   5.661  27.108  0.00  0.00    +0.210 HD
ENDBRANCH  37  38
ENDBRANCH  27  37
ENDBRANCH  24  25
ENDBRANCH   7  24
BRANCH   1  40
ATOM     40  O   UNL     1       7.517  -3.761  24.829  0.00  0.00    -0.453 OA
BRANCH  40  44
ATOM     41  C   UNL     1       3.759  -5.389  23.311  0.00  0.00    +0.041 C 
ATOM     42  C   UNL     1       5.091  -6.126  23.418  0.00  0.00    +0.150 C 
ATOM     43  O   UNL     1       6.002  -5.494  24.330  0.00  0.00    -0.334 OA
ATOM     44  C   UNL     1       6.606  -4.284  23.852  0.00  0.00    +0.339 C 
ATOM     45  C   UNL     1       7.401  -4.523  22.550  0.00  0.00    +0.214 C 
ATOM     46  C   UNL     1       6.504  -5.186  21.494  0.00  0.00    +0.180 C 
ATOM     47  C   UNL     1       5.788  -6.413  22.075  0.00  0.00    +0.174 C 
BRANCH  47  48
ATOM     48  O   UNL     1       6.769  -7.442  22.300  0.00  0.00    -0.387 OA
ATOM     49  H   UNL     1       6.333  -8.172  22.782  0.00  0.00    +0.210 HD
ENDBRANCH  47  48
BRANCH  46  50
ATOM     50  O   UNL     1       5.589  -4.238  20.920  0.00  0.00    -0.386 OA
ATOM     51  H   UNL     1       5.260  -4.545  20.058  0.00  0.00    +0.210 HD
ENDBRANCH  46  50
BRANCH  45  52
ATOM     52  O   UNL     1       7.931  -3.294  22.027  0.00  0.00    -0.383 OA
ATOM     53  H   UNL     1       7.920  -2.639  22.750  0.00  0.00    +0.210 HD
ENDBRANCH  45  52
ENDBRANCH  40  44
ENDBRANCH   1  40
TORSDOF 16
ENDMDL
