MODEL 1
REMARK VINA RESULT:      -7.9      0.000      0.000
REMARK  Name = 
REMARK  14 active torsions:
REMARK  status: ('A' for Active; 'I' for Inactive)
REMARK    1  A    between atoms: C_1  and  C_2
REMARK    2  A    between atoms: C_2  and  C_3
REMARK    3  A    between atoms: C_3  and  C_4
REMARK    4  A    between atoms: C_4  and  C_5
REMARK    5  A    between atoms: C_5  and  C_6
REMARK    6  A    between atoms: C_6  and  C_7
REMARK    7  A    between atoms: C_7  and  C_8
REMARK    8  A    between atoms: C_8  and  O_10
REMARK    9  A    between atoms: O_10  and  C_11
REMARK   10  A    between atoms: C_12  and  O_31
REMARK   11  A    between atoms: C_14  and  C_17
REMARK   12  A    between atoms: C_18  and  O_30
REMARK   13  A    between atoms: C_22  and  O_29
REMARK   14  A    between atoms: C_24  and  O_28
REMARK                            x       y       z     vdW  Elec       q    Type
REMARK                         _______ _______ _______ _____ _____    ______ ____
ROOT
ATOM      1  C   UNL     1      10.063  -0.407  23.568  0.00  0.00    +0.173 A 
ATOM      2  C   UNL     1       9.602  -0.378  24.886  0.00  0.00    +0.051 A 
ATOM      3  C   UNL     1       8.921  -1.476  25.405  0.00  0.00    +0.015 A 
ATOM      4  C   UNL     1       8.671  -2.593  24.601  0.00  0.00    +0.025 A 
ATOM      5  C   UNL     1       9.146  -2.627  23.283  0.00  0.00    +0.061 A 
ATOM      6  C   UNL     1       9.838  -1.532  22.772  0.00  0.00    +0.160 A 
ENDROOT
BRANCH   4   7
ATOM      7  C   UNL     1       7.847  -3.683  25.132  0.00  0.00    +0.181 A 
ATOM      8  O   UNL     1       6.833  -4.029  24.257  0.00  0.00    -0.451 OA
ATOM      9  C   UNL     1       5.961  -5.018  24.623  0.00  0.00    +0.147 A 
ATOM     10  C   UNL     1       6.049  -5.691  25.837  0.00  0.00    +0.109 A 
ATOM     11  C   UNL     1       5.121  -6.692  26.145  0.00  0.00    +0.135 A 
ATOM     12  C   UNL     1       4.110  -7.018  25.242  0.00  0.00    +0.091 A 
ATOM     13  C   UNL     1       4.036  -6.335  24.030  0.00  0.00    +0.124 A 
ATOM     14  C   UNL     1       7.125  -5.321  26.768  0.00  0.00    +0.238 A 
ATOM     15  O   UNL     1       7.219  -5.900  27.848  0.00  0.00    -0.283 OA
ATOM     16  C   UNL     1       4.952  -5.337  23.714  0.00  0.00    +0.092 A 
ATOM     17  C   UNL     1       8.055  -4.239  26.341  0.00  0.00    +0.208 A 
BRANCH  11  18
ATOM     18  O   UNL     1       5.145  -7.393  27.319  0.00  0.00    -0.506 OA
ATOM     19  H   UNL     1       5.505  -8.292  27.132  0.00  0.00    +0.292 HD
ENDBRANCH  11  18
BRANCH  13  20
ATOM     20  O   UNL     1       3.068  -6.620  23.114  0.00  0.00    -0.507 OA
ATOM     21  H   UNL     1       2.880  -5.817  22.599  0.00  0.00    +0.292 HD
ENDBRANCH  13  20
BRANCH  17  22
ATOM     22  O   UNL     1       9.059  -3.869  27.216  0.00  0.00    -0.501 OA
ATOM     23  H   UNL     1       8.958  -2.930  27.446  0.00  0.00    +0.292 HD
ENDBRANCH  17  22
ENDBRANCH   4   7
BRANCH   6  24
ATOM     24  O   UNL     1      10.251  -1.597  21.472  0.00  0.00    -0.503 OA
ATOM     25  H   UNL     1       9.491  -1.880  20.934  0.00  0.00    +0.292 HD
ENDBRANCH   6  24
BRANCH   1  26
ATOM     26  O   UNL     1      10.611   0.745  22.978  0.00  0.00    -0.422 OA
BRANCH  26  27
ATOM     27  C   UNL     1       9.734   1.808  22.775  0.00  0.00    +0.312 C 
ATOM     28  O   UNL     1       8.985   1.954  21.818  0.00  0.00    -0.250 OA
BRANCH  27  29
ATOM     29  C   UNL     1       9.850   2.788  23.916  0.00  0.00    +0.121 C 
BRANCH  29  30
ATOM     30  C   UNL     1       8.973   4.010  23.693  0.00  0.00    +0.011 C 
BRANCH  30  31
ATOM     31  C   UNL     1       9.498   5.226  24.456  0.00  0.00    +0.001 C 
BRANCH  31  32
ATOM     32  C   UNL     1      10.405   6.078  23.573  0.00  0.00    +0.000 C 
BRANCH  32  33
ATOM     33  C   UNL     1      11.859   5.973  24.029  0.00  0.00    -0.000 C 
BRANCH  33  35
ATOM     34  C   UNL     1      13.385   5.701  22.050  0.00  0.00    +0.004 C 
ATOM     35  C   UNL     1      12.635   4.987  23.161  0.00  0.00    -0.003 C 
ENDBRANCH  33  35
ENDBRANCH  32  33
ENDBRANCH  31  32
ENDBRANCH  30  31
ENDBRANCH  29  30
ENDBRANCH  27  29
ENDBRANCH  26  27
ENDBRANCH   1  26
TORSDOF 13
ENDMDL
MODEL 2
REMARK VINA RESULT:      -7.9      1.928      3.601
REMARK  Name = 
REMARK  14 active torsions:
REMARK  status: ('A' for Active; 'I' for Inactive)
REMARK    1  A    between atoms: C_1  and  C_2
REMARK    2  A    between atoms: C_2  and  C_3
REMARK    3  A    between atoms: C_3  and  C_4
REMARK    4  A    between atoms: C_4  and  C_5
REMARK    5  A    between atoms: C_5  and  C_6
REMARK    6  A    between atoms: C_6  and  C_7
REMARK    7  A    between atoms: C_7  and  C_8
REMARK    8  A    between atoms: C_8  and  O_10
REMARK    9  A    between atoms: O_10  and  C_11
REMARK   10  A    between atoms: C_12  and  O_31
REMARK   11  A    between atoms: C_14  and  C_17
REMARK   12  A    between atoms: C_18  and  O_30
REMARK   13  A    between atoms: C_22  and  O_29
REMARK   14  A    between atoms: C_24  and  O_28
REMARK                            x       y       z     vdW  Elec       q    Type
REMARK                         _______ _______ _______ _____ _____    ______ ____
ROOT
ATOM      1  C   UNL     1      10.136  -0.402  23.644  0.00  0.00    +0.173 A 
ATOM      2  C   UNL     1       9.702  -0.365  24.970  0.00  0.00    +0.051 A 
ATOM      3  C   UNL     1       9.006  -1.449  25.502  0.00  0.00    +0.015 A 
ATOM      4  C   UNL     1       8.716  -2.559  24.701  0.00  0.00    +0.025 A 
ATOM      5  C   UNL     1       9.165  -2.601  23.374  0.00  0.00    +0.061 A 
ATOM      6  C   UNL     1       9.870  -1.521  22.851  0.00  0.00    +0.160 A 
ENDROOT
BRANCH   4   7
ATOM      7  C   UNL     1       7.879  -3.632  25.247  0.00  0.00    +0.181 A 
ATOM      8  O   UNL     1       6.739  -3.825  24.489  0.00  0.00    -0.451 OA
ATOM      9  C   UNL     1       5.842  -4.779  24.886  0.00  0.00    +0.147 A 
ATOM     10  C   UNL     1       6.026  -5.563  26.021  0.00  0.00    +0.109 A 
ATOM     11  C   UNL     1       5.065  -6.520  26.366  0.00  0.00    +0.135 A 
ATOM     12  C   UNL     1       3.926  -6.690  25.581  0.00  0.00    +0.091 A 
ATOM     13  C   UNL     1       3.757  -5.898  24.449  0.00  0.00    +0.124 A 
ATOM     14  C   UNL     1       7.237  -5.355  26.828  0.00  0.00    +0.238 A 
ATOM     15  O   UNL     1       7.419  -6.034  27.836  0.00  0.00    -0.283 OA
ATOM     16  C   UNL     1       4.704  -4.942  24.096  0.00  0.00    +0.092 A 
ATOM     17  C   UNL     1       8.192  -4.307  26.370  0.00  0.00    +0.208 A 
BRANCH  11  18
ATOM     18  O   UNL     1       5.180  -7.324  27.467  0.00  0.00    -0.506 OA
ATOM     19  H   UNL     1       6.138  -7.421  27.677  0.00  0.00    +0.292 HD
ENDBRANCH  11  18
BRANCH  13  20
ATOM     20  O   UNL     1       2.662  -6.030  23.649  0.00  0.00    -0.507 OA
ATOM     21  H   UNL     1       2.247  -6.891  23.826  0.00  0.00    +0.292 HD
ENDBRANCH  13  20
BRANCH  17  22
ATOM     22  O   UNL     1       9.324  -4.089  27.132  0.00  0.00    -0.501 OA
ATOM     23  H   UNL     1       9.105  -3.506  27.878  0.00  0.00    +0.292 HD
ENDBRANCH  17  22
ENDBRANCH   4   7
BRANCH   6  24
ATOM     24  O   UNL     1      10.257  -1.594  21.544  0.00  0.00    -0.503 OA
ATOM     25  H   UNL     1       9.685  -0.993  21.032  0.00  0.00    +0.292 HD
ENDBRANCH   6  24
BRANCH   1  26
ATOM     26  O   UNL     1      10.697   0.738  23.044  0.00  0.00    -0.422 OA
BRANCH  26  27
ATOM     27  C   UNL     1       9.872   1.857  22.960  0.00  0.00    +0.312 C 
ATOM     28  O   UNL     1       9.869   2.813  23.726  0.00  0.00    -0.250 OA
BRANCH  27  29
ATOM     29  C   UNL     1       8.947   1.719  21.776  0.00  0.00    +0.121 C 
BRANCH  29  30
ATOM     30  C   UNL     1       7.498   1.961  22.170  0.00  0.00    +0.011 C 
BRANCH  30  31
ATOM     31  C   UNL     1       6.854   0.701  22.747  0.00  0.00    +0.001 C 
BRANCH  31  32
ATOM     32  C   UNL     1       6.378   0.933  24.177  0.00  0.00    +0.000 C 
BRANCH  32  33
ATOM     33  C   UNL     1       5.750  -0.334  24.753  0.00  0.00    -0.000 C 
BRANCH  33  35
ATOM     34  C   UNL     1       5.344  -1.576  26.900  0.00  0.00    +0.004 C 
ATOM     35  C   UNL     1       5.556  -0.214  26.261  0.00  0.00    -0.003 C 
ENDBRANCH  33  35
ENDBRANCH  32  33
ENDBRANCH  31  32
ENDBRANCH  30  31
ENDBRANCH  29  30
ENDBRANCH  27  29
ENDBRANCH  26  27
ENDBRANCH   1  26
TORSDOF 13
ENDMDL
MODEL 3
REMARK VINA RESULT:      -7.8      1.905      3.001
REMARK  Name = 
REMARK  14 active torsions:
REMARK  status: ('A' for Active; 'I' for Inactive)
REMARK    1  A    between atoms: C_1  and  C_2
REMARK    2  A    between atoms: C_2  and  C_3
REMARK    3  A    between atoms: C_3  and  C_4
REMARK    4  A    between atoms: C_4  and  C_5
REMARK    5  A    between atoms: C_5  and  C_6
REMARK    6  A    between atoms: C_6  and  C_7
REMARK    7  A    between atoms: C_7  and  C_8
REMARK    8  A    between atoms: C_8  and  O_10
REMARK    9  A    between atoms: O_10  and  C_11
REMARK   10  A    between atoms: C_12  and  O_31
REMARK   11  A    between atoms: C_14  and  C_17
REMARK   12  A    between atoms: C_18  and  O_30
REMARK   13  A    between atoms: C_22  and  O_29
REMARK   14  A    between atoms: C_24  and  O_28
REMARK                            x       y       z     vdW  Elec       q    Type
REMARK                         _______ _______ _______ _____ _____    ______ ____
ROOT
ATOM      1  C   UNL     1      10.226  -0.317  23.845  0.00  0.00    +0.173 A 
ATOM      2  C   UNL     1       9.548  -0.274  25.064  0.00  0.00    +0.051 A 
ATOM      3  C   UNL     1       8.801  -1.373  25.481  0.00  0.00    +0.015 A 
ATOM      4  C   UNL     1       8.705  -2.507  24.666  0.00  0.00    +0.025 A 
ATOM      5  C   UNL     1       9.398  -2.555  23.450  0.00  0.00    +0.061 A 
ATOM      6  C   UNL     1      10.153  -1.458  23.043  0.00  0.00    +0.160 A 
ENDROOT
BRANCH   4   7
ATOM      7  C   UNL     1       7.816  -3.600  25.070  0.00  0.00    +0.181 A 
ATOM      8  O   UNL     1       6.745  -3.733  24.205  0.00  0.00    -0.451 OA
ATOM      9  C   UNL     1       5.810  -4.698  24.463  0.00  0.00    +0.147 A 
ATOM     10  C   UNL     1       5.889  -5.552  25.558  0.00  0.00    +0.109 A 
ATOM     11  C   UNL     1       4.895  -6.517  25.758  0.00  0.00    +0.135 A 
ATOM     12  C   UNL     1       3.828  -6.625  24.868  0.00  0.00    +0.091 A 
ATOM     13  C   UNL     1       3.764  -5.763  23.777  0.00  0.00    +0.124 A 
ATOM     14  C   UNL     1       7.026  -5.409  26.479  0.00  0.00    +0.238 A 
ATOM     15  O   UNL     1       7.113  -6.151  27.455  0.00  0.00    -0.283 OA
ATOM     16  C   UNL     1       4.745  -4.800  23.567  0.00  0.00    +0.092 A 
ATOM     17  C   UNL     1       8.024  -4.347  26.171  0.00  0.00    +0.208 A 
BRANCH  11  18
ATOM     18  O   UNL     1       4.907  -7.388  26.813  0.00  0.00    -0.506 OA
ATOM     19  H   UNL     1       4.681  -8.285  26.472  0.00  0.00    +0.292 HD
ENDBRANCH  11  18
BRANCH  13  20
ATOM     20  O   UNL     1       2.742  -5.833  22.877  0.00  0.00    -0.507 OA
ATOM     21  H   UNL     1       3.112  -6.029  21.999  0.00  0.00    +0.292 HD
ENDBRANCH  13  20
BRANCH  17  22
ATOM     22  O   UNL     1       9.087  -4.190  27.041  0.00  0.00    -0.501 OA
ATOM     23  H   UNL     1       9.608  -3.413  26.779  0.00  0.00    +0.292 HD
ENDBRANCH  17  22
ENDBRANCH   4   7
BRANCH   6  24
ATOM     24  O   UNL     1      10.783  -1.539  21.834  0.00  0.00    -0.503 OA
ATOM     25  H   UNL     1      10.712  -2.459  21.525  0.00  0.00    +0.292 HD
ENDBRANCH   6  24
BRANCH   1  26
ATOM     26  O   UNL     1      10.853   0.833  23.335  0.00  0.00    -0.422 OA
BRANCH  26  27
ATOM     27  C   UNL     1      10.018   1.909  23.044  0.00  0.00    +0.312 C 
ATOM     28  O   UNL     1       9.882   2.922  23.718  0.00  0.00    -0.250 OA
BRANCH  27  29
ATOM     29  C   UNL     1       9.272   1.641  21.760  0.00  0.00    +0.121 C 
BRANCH  29  30
ATOM     30  C   UNL     1       7.824   2.097  21.852  0.00  0.00    +0.011 C 
BRANCH  30  31
ATOM     31  C   UNL     1       6.966   1.093  22.622  0.00  0.00    +0.001 C 
BRANCH  31  32
ATOM     32  C   UNL     1       6.162   1.785  23.718  0.00  0.00    +0.000 C 
BRANCH  32  33
ATOM     33  C   UNL     1       5.796   0.799  24.825  0.00  0.00    -0.000 C 
BRANCH  33  35
ATOM     34  C   UNL     1       7.172   2.524  26.028  0.00  0.00    +0.004 C 
ATOM     35  C   UNL     1       6.341   1.261  26.174  0.00  0.00    -0.003 C 
ENDBRANCH  33  35
ENDBRANCH  32  33
ENDBRANCH  31  32
ENDBRANCH  30  31
ENDBRANCH  29  30
ENDBRANCH  27  29
ENDBRANCH  26  27
ENDBRANCH   1  26
TORSDOF 13
ENDMDL
MODEL 4
REMARK VINA RESULT:      -7.7      2.138      4.106
REMARK  Name = 
REMARK  14 active torsions:
REMARK  status: ('A' for Active; 'I' for Inactive)
REMARK    1  A    between atoms: C_1  and  C_2
REMARK    2  A    between atoms: C_2  and  C_3
REMARK    3  A    between atoms: C_3  and  C_4
REMARK    4  A    between atoms: C_4  and  C_5
REMARK    5  A    between atoms: C_5  and  C_6
REMARK    6  A    between atoms: C_6  and  C_7
REMARK    7  A    between atoms: C_7  and  C_8
REMARK    8  A    between atoms: C_8  and  O_10
REMARK    9  A    between atoms: O_10  and  C_11
REMARK   10  A    between atoms: C_12  and  O_31
REMARK   11  A    between atoms: C_14  and  C_17
REMARK   12  A    between atoms: C_18  and  O_30
REMARK   13  A    between atoms: C_22  and  O_29
REMARK   14  A    between atoms: C_24  and  O_28
REMARK                            x       y       z     vdW  Elec       q    Type
REMARK                         _______ _______ _______ _____ _____    ______ ____
ROOT
ATOM      1  C   UNL     1       8.355  -0.397  22.135  0.00  0.00    +0.173 A 
ATOM      2  C   UNL     1       7.090  -0.222  22.699  0.00  0.00    +0.051 A 
ATOM      3  C   UNL     1       6.486  -1.273  23.384  0.00  0.00    +0.015 A 
ATOM      4  C   UNL     1       7.130  -2.511  23.482  0.00  0.00    +0.025 A 
ATOM      5  C   UNL     1       8.406  -2.682  22.927  0.00  0.00    +0.061 A 
ATOM      6  C   UNL     1       9.012  -1.624  22.254  0.00  0.00    +0.160 A 
ENDROOT
BRANCH   4   7
ATOM      7  C   UNL     1       6.422  -3.635  24.101  0.00  0.00    +0.181 A 
ATOM      8  O   UNL     1       6.764  -3.783  25.432  0.00  0.00    -0.451 OA
ATOM      9  C   UNL     1       6.203  -4.809  26.143  0.00  0.00    +0.147 A 
ATOM     10  C   UNL     1       5.302  -5.710  25.585  0.00  0.00    +0.109 A 
ATOM     11  C   UNL     1       4.767  -6.735  26.374  0.00  0.00    +0.135 A 
ATOM     12  C   UNL     1       5.132  -6.857  27.713  0.00  0.00    +0.091 A 
ATOM     13  C   UNL     1       6.034  -5.946  28.257  0.00  0.00    +0.124 A 
ATOM     14  C   UNL     1       4.940  -5.554  24.168  0.00  0.00    +0.238 A 
ATOM     15  O   UNL     1       4.149  -6.341  23.654  0.00  0.00    -0.283 OA
ATOM     16  C   UNL     1       6.574  -4.924  27.483  0.00  0.00    +0.092 A 
ATOM     17  C   UNL     1       5.572  -4.430  23.423  0.00  0.00    +0.208 A 
BRANCH  11  18
ATOM     18  O   UNL     1       3.879  -7.657  25.892  0.00  0.00    -0.506 OA
ATOM     19  H   UNL     1       3.792  -8.377  26.560  0.00  0.00    +0.292 HD
ENDBRANCH  11  18
BRANCH  13  20
ATOM     20  O   UNL     1       6.420  -6.023  29.562  0.00  0.00    -0.507 OA
ATOM     21  H   UNL     1       5.806  -6.611  30.035  0.00  0.00    +0.292 HD
ENDBRANCH  13  20
BRANCH  17  22
ATOM     22  O   UNL     1       5.254  -4.286  22.085  0.00  0.00    -0.501 OA
ATOM     23  H   UNL     1       5.800  -4.892  21.556  0.00  0.00    +0.292 HD
ENDBRANCH  17  22
ENDBRANCH   4   7
BRANCH   6  24
ATOM     24  O   UNL     1      10.240  -1.849  21.702  0.00  0.00    -0.503 OA
ATOM     25  H   UNL     1      10.708  -0.996  21.667  0.00  0.00    +0.292 HD
ENDBRANCH   6  24
BRANCH   1  26
ATOM     26  O   UNL     1       8.912   0.594  21.309  0.00  0.00    -0.422 OA
BRANCH  26  27
ATOM     27  C   UNL     1       8.940   1.885  21.831  0.00  0.00    +0.312 C 
ATOM     28  O   UNL     1       8.052   2.723  21.734  0.00  0.00    -0.250 OA
BRANCH  27  29
ATOM     29  C   UNL     1      10.253   2.122  22.534  0.00  0.00    +0.121 C 
BRANCH  29  30
ATOM     30  C   UNL     1      10.116   1.964  24.040  0.00  0.00    +0.011 C 
BRANCH  30  31
ATOM     31  C   UNL     1      10.939   0.785  24.559  0.00  0.00    +0.001 C 
BRANCH  31  32
ATOM     32  C   UNL     1      10.064  -0.200  25.327  0.00  0.00    +0.000 C 
BRANCH  32  33
ATOM     33  C   UNL     1       8.740   0.448  25.727  0.00  0.00    -0.000 C 
BRANCH  33  35
ATOM     34  C   UNL     1       7.123   0.461  27.651  0.00  0.00    +0.004 C 
ATOM     35  C   UNL     1       8.005  -0.398  26.762  0.00  0.00    -0.003 C 
ENDBRANCH  33  35
ENDBRANCH  32  33
ENDBRANCH  31  32
ENDBRANCH  30  31
ENDBRANCH  29  30
ENDBRANCH  27  29
ENDBRANCH  26  27
ENDBRANCH   1  26
TORSDOF 13
ENDMDL
MODEL 5
REMARK VINA RESULT:      -7.4      2.070      9.201
REMARK  Name = 
REMARK  14 active torsions:
REMARK  status: ('A' for Active; 'I' for Inactive)
REMARK    1  A    between atoms: C_1  and  C_2
REMARK    2  A    between atoms: C_2  and  C_3
REMARK    3  A    between atoms: C_3  and  C_4
REMARK    4  A    between atoms: C_4  and  C_5
REMARK    5  A    between atoms: C_5  and  C_6
REMARK    6  A    between atoms: C_6  and  C_7
REMARK    7  A    between atoms: C_7  and  C_8
REMARK    8  A    between atoms: C_8  and  O_10
REMARK    9  A    between atoms: O_10  and  C_11
REMARK   10  A    between atoms: C_12  and  O_31
REMARK   11  A    between atoms: C_14  and  C_17
REMARK   12  A    between atoms: C_18  and  O_30
REMARK   13  A    between atoms: C_22  and  O_29
REMARK   14  A    between atoms: C_24  and  O_28
REMARK                            x       y       z     vdW  Elec       q    Type
REMARK                         _______ _______ _______ _____ _____    ______ ____
ROOT
ATOM      1  C   UNL     1       6.375  -4.158  27.044  0.00  0.00    +0.173 A 
ATOM      2  C   UNL     1       5.595  -3.120  26.529  0.00  0.00    +0.051 A 
ATOM      3  C   UNL     1       6.168  -2.180  25.677  0.00  0.00    +0.015 A 
ATOM      4  C   UNL     1       7.529  -2.256  25.359  0.00  0.00    +0.025 A 
ATOM      5  C   UNL     1       8.307  -3.306  25.864  0.00  0.00    +0.061 A 
ATOM      6  C   UNL     1       7.727  -4.250  26.706  0.00  0.00    +0.160 A 
ENDROOT
BRANCH   4   7
ATOM      7  C   UNL     1       8.134  -1.187  24.560  0.00  0.00    +0.181 A 
ATOM      8  O   UNL     1       8.024   0.042  25.184  0.00  0.00    -0.451 OA
ATOM      9  C   UNL     1       8.522   1.147  24.548  0.00  0.00    +0.147 A 
ATOM     10  C   UNL     1       9.134   1.088  23.301  0.00  0.00    +0.109 A 
ATOM     11  C   UNL     1       9.621   2.260  22.710  0.00  0.00    +0.135 A 
ATOM     12  C   UNL     1       9.494   3.484  23.365  0.00  0.00    +0.091 A 
ATOM     13  C   UNL     1       8.879   3.526  24.614  0.00  0.00    +0.124 A 
ATOM     14  C   UNL     1       9.248  -0.218  22.636  0.00  0.00    +0.238 A 
ATOM     15  O   UNL     1       9.782  -0.293  21.531  0.00  0.00    -0.283 OA
ATOM     16  C   UNL     1       8.391   2.368  25.210  0.00  0.00    +0.092 A 
ATOM     17  C   UNL     1       8.694  -1.400  23.353  0.00  0.00    +0.208 A 
BRANCH  11  18
ATOM     18  O   UNL     1      10.231   2.278  21.486  0.00  0.00    -0.506 OA
ATOM     19  H   UNL     1       9.746   2.914  20.911  0.00  0.00    +0.292 HD
ENDBRANCH  11  18
BRANCH  13  20
ATOM     20  O   UNL     1       8.735   4.698  25.294  0.00  0.00    -0.507 OA
ATOM     21  H   UNL     1       8.374   4.505  26.176  0.00  0.00    +0.292 HD
ENDBRANCH  13  20
BRANCH  17  22
ATOM     22  O   UNL     1       8.778  -2.630  22.729  0.00  0.00    -0.501 OA
ATOM     23  H   UNL     1       7.887  -3.009  22.639  0.00  0.00    +0.292 HD
ENDBRANCH  17  22
ENDBRANCH   4   7
BRANCH   6  24
ATOM     24  O   UNL     1       8.534  -5.235  27.201  0.00  0.00    -0.503 OA
ATOM     25  H   UNL     1       8.118  -5.579  28.011  0.00  0.00    +0.292 HD
ENDBRANCH   6  24
BRANCH   1  26
ATOM     26  O   UNL     1       5.858  -5.020  28.025  0.00  0.00    -0.422 OA
BRANCH  26  27
ATOM     27  C   UNL     1       4.692  -5.705  27.690  0.00  0.00    +0.312 C 
ATOM     28  O   UNL     1       3.584  -5.528  28.180  0.00  0.00    -0.250 OA
BRANCH  27  29
ATOM     29  C   UNL     1       4.994  -6.732  26.626  0.00  0.00    +0.121 C 
BRANCH  29  30
ATOM     30  C   UNL     1       3.980  -6.676  25.494  0.00  0.00    +0.011 C 
BRANCH  30  31
ATOM     31  C   UNL     1       4.655  -6.802  24.129  0.00  0.00    +0.001 C 
BRANCH  31  32
ATOM     32  C   UNL     1       5.071  -5.436  23.593  0.00  0.00    +0.000 C 
BRANCH  32  33
ATOM     33  C   UNL     1       6.586  -5.361  23.418  0.00  0.00    -0.000 C 
BRANCH  33  35
ATOM     34  C   UNL     1       6.182  -5.644  20.953  0.00  0.00    +0.004 C 
ATOM     35  C   UNL     1       7.026  -6.071  22.141  0.00  0.00    -0.003 C 
ENDBRANCH  33  35
ENDBRANCH  32  33
ENDBRANCH  31  32
ENDBRANCH  30  31
ENDBRANCH  29  30
ENDBRANCH  27  29
ENDBRANCH  26  27
ENDBRANCH   1  26
TORSDOF 13
ENDMDL
MODEL 6
REMARK VINA RESULT:      -7.4      1.492      3.033
REMARK  Name = 
REMARK  14 active torsions:
REMARK  status: ('A' for Active; 'I' for Inactive)
REMARK    1  A    between atoms: C_1  and  C_2
REMARK    2  A    between atoms: C_2  and  C_3
REMARK    3  A    between atoms: C_3  and  C_4
REMARK    4  A    between atoms: C_4  and  C_5
REMARK    5  A    between atoms: C_5  and  C_6
REMARK    6  A    between atoms: C_6  and  C_7
REMARK    7  A    between atoms: C_7  and  C_8
REMARK    8  A    between atoms: C_8  and  O_10
REMARK    9  A    between atoms: O_10  and  C_11
REMARK   10  A    between atoms: C_12  and  O_31
REMARK   11  A    between atoms: C_14  and  C_17
REMARK   12  A    between atoms: C_18  and  O_30
REMARK   13  A    between atoms: C_22  and  O_29
REMARK   14  A    between atoms: C_24  and  O_28
REMARK                            x       y       z     vdW  Elec       q    Type
REMARK                         _______ _______ _______ _____ _____    ______ ____
ROOT
ATOM      1  C   UNL     1       8.824   0.245  22.613  0.00  0.00    +0.173 A 
ATOM      2  C   UNL     1       9.453  -0.997  22.714  0.00  0.00    +0.051 A 
ATOM      3  C   UNL     1       8.691  -2.147  22.899  0.00  0.00    +0.015 A 
ATOM      4  C   UNL     1       7.299  -2.057  23.016  0.00  0.00    +0.025 A 
ATOM      5  C   UNL     1       6.667  -0.812  22.900  0.00  0.00    +0.061 A 
ATOM      6  C   UNL     1       7.432   0.334  22.702  0.00  0.00    +0.160 A 
ENDROOT
BRANCH   4   7
ATOM      7  C   UNL     1       6.531  -3.264  23.332  0.00  0.00    +0.181 A 
ATOM      8  O   UNL     1       6.696  -3.643  24.652  0.00  0.00    -0.451 OA
ATOM      9  C   UNL     1       6.060  -4.770  25.095  0.00  0.00    +0.147 A 
ATOM     10  C   UNL     1       5.253  -5.553  24.275  0.00  0.00    +0.109 A 
ATOM     11  C   UNL     1       4.633  -6.694  24.798  0.00  0.00    +0.135 A 
ATOM     12  C   UNL     1       4.820  -7.049  26.133  0.00  0.00    +0.091 A 
ATOM     13  C   UNL     1       5.629  -6.254  26.940  0.00  0.00    +0.124 A 
ATOM     14  C   UNL     1       5.080  -5.152  22.871  0.00  0.00    +0.238 A 
ATOM     15  O   UNL     1       4.376  -5.832  22.129  0.00  0.00    -0.283 OA
ATOM     16  C   UNL     1       6.252  -5.118  26.432  0.00  0.00    +0.092 A 
ATOM     17  C   UNL     1       5.789  -3.922  22.421  0.00  0.00    +0.208 A 
BRANCH  11  18
ATOM     18  O   UNL     1       3.830  -7.511  24.051  0.00  0.00    -0.506 OA
ATOM     19  H   UNL     1       3.130  -7.876  24.641  0.00  0.00    +0.292 HD
ENDBRANCH  11  18
BRANCH  13  20
ATOM     20  O   UNL     1       5.839  -6.558  28.252  0.00  0.00    -0.507 OA
ATOM     21  H   UNL     1       5.646  -5.772  28.790  0.00  0.00    +0.292 HD
ENDBRANCH  13  20
BRANCH  17  22
ATOM     22  O   UNL     1       5.650  -3.547  21.098  0.00  0.00    -0.501 OA
ATOM     23  H   UNL     1       6.365  -2.933  20.859  0.00  0.00    +0.292 HD
ENDBRANCH  17  22
ENDBRANCH   4   7
BRANCH   6  24
ATOM     24  O   UNL     1       6.774   1.528  22.630  0.00  0.00    -0.503 OA
ATOM     25  H   UNL     1       6.028   1.418  22.015  0.00  0.00    +0.292 HD
ENDBRANCH   6  24
BRANCH   1  26
ATOM     26  O   UNL     1       9.580   1.429  22.584  0.00  0.00    -0.422 OA
BRANCH  26  27
ATOM     27  C   UNL     1      10.179   1.805  23.785  0.00  0.00    +0.312 C 
ATOM     28  O   UNL     1      11.262   1.419  24.204  0.00  0.00    -0.250 OA
BRANCH  27  29
ATOM     29  C   UNL     1       9.278   2.764  24.524  0.00  0.00    +0.121 C 
BRANCH  29  30
ATOM     30  C   UNL     1       9.005   4.016  23.705  0.00  0.00    +0.011 C 
BRANCH  30  31
ATOM     31  C   UNL     1       9.511   5.272  24.415  0.00  0.00    +0.001 C 
BRANCH  31  32
ATOM     32  C   UNL     1      10.483   6.047  23.532  0.00  0.00    +0.000 C 
BRANCH  32  33
ATOM     33  C   UNL     1      11.905   5.955  24.082  0.00  0.00    -0.000 C 
BRANCH  33  35
ATOM     34  C   UNL     1      13.297   5.647  22.012  0.00  0.00    +0.004 C 
ATOM     35  C   UNL     1      12.748   4.982  23.263  0.00  0.00    -0.003 C 
ENDBRANCH  33  35
ENDBRANCH  32  33
ENDBRANCH  31  32
ENDBRANCH  30  31
ENDBRANCH  29  30
ENDBRANCH  27  29
ENDBRANCH  26  27
ENDBRANCH   1  26
TORSDOF 13
ENDMDL
MODEL 7
REMARK VINA RESULT:      -7.4      1.846      3.724
REMARK  Name = 
REMARK  14 active torsions:
REMARK  status: ('A' for Active; 'I' for Inactive)
REMARK    1  A    between atoms: C_1  and  C_2
REMARK    2  A    between atoms: C_2  and  C_3
REMARK    3  A    between atoms: C_3  and  C_4
REMARK    4  A    between atoms: C_4  and  C_5
REMARK    5  A    between atoms: C_5  and  C_6
REMARK    6  A    between atoms: C_6  and  C_7
REMARK    7  A    between atoms: C_7  and  C_8
REMARK    8  A    between atoms: C_8  and  O_10
REMARK    9  A    between atoms: O_10  and  C_11
REMARK   10  A    between atoms: C_12  and  O_31
REMARK   11  A    between atoms: C_14  and  C_17
REMARK   12  A    between atoms: C_18  and  O_30
REMARK   13  A    between atoms: C_22  and  O_29
REMARK   14  A    between atoms: C_24  and  O_28
REMARK                            x       y       z     vdW  Elec       q    Type
REMARK                         _______ _______ _______ _____ _____    ______ ____
ROOT
ATOM      1  C   UNL     1       8.998  -0.209  22.995  0.00  0.00    +0.173 A 
ATOM      2  C   UNL     1       7.791  -0.070  23.684  0.00  0.00    +0.051 A 
ATOM      3  C   UNL     1       7.000  -1.189  23.928  0.00  0.00    +0.015 A 
ATOM      4  C   UNL     1       7.397  -2.446  23.458  0.00  0.00    +0.025 A 
ATOM      5  C   UNL     1       8.614  -2.587  22.779  0.00  0.00    +0.061 A 
ATOM      6  C   UNL     1       9.408  -1.467  22.548  0.00  0.00    +0.160 A 
ENDROOT
BRANCH   4   7
ATOM      7  C   UNL     1       6.489  -3.586  23.621  0.00  0.00    +0.181 A 
ATOM      8  O   UNL     1       6.563  -4.119  24.895  0.00  0.00    -0.451 OA
ATOM      9  C   UNL     1       5.790  -5.208  25.195  0.00  0.00    +0.147 A 
ATOM     10  C   UNL     1       4.934  -5.803  24.274  0.00  0.00    +0.109 A 
ATOM     11  C   UNL     1       4.173  -6.915  24.653  0.00  0.00    +0.135 A 
ATOM     12  C   UNL     1       4.270  -7.429  25.945  0.00  0.00    +0.091 A 
ATOM     13  C   UNL     1       5.131  -6.821  26.854  0.00  0.00    +0.124 A 
ATOM     14  C   UNL     1       4.859  -5.238  22.919  0.00  0.00    +0.238 A 
ATOM     15  O   UNL     1       4.112  -5.751  22.088  0.00  0.00    -0.283 OA
ATOM     16  C   UNL     1       5.893  -5.716  26.490  0.00  0.00    +0.092 A 
ATOM     17  C   UNL     1       5.714  -4.056  22.624  0.00  0.00    +0.208 A 
BRANCH  11  18
ATOM     18  O   UNL     1       3.313  -7.552  23.800  0.00  0.00    -0.506 OA
ATOM     19  H   UNL     1       3.385  -7.123  22.916  0.00  0.00    +0.292 HD
ENDBRANCH  11  18
BRANCH  13  20
ATOM     20  O   UNL     1       5.257  -7.285  28.130  0.00  0.00    -0.507 OA
ATOM     21  H   UNL     1       6.183  -7.541  28.279  0.00  0.00    +0.292 HD
ENDBRANCH  13  20
BRANCH  17  22
ATOM     22  O   UNL     1       5.666  -3.528  21.347  0.00  0.00    -0.501 OA
ATOM     23  H   UNL     1       6.523  -3.665  20.908  0.00  0.00    +0.292 HD
ENDBRANCH  17  22
ENDBRANCH   4   7
BRANCH   6  24
ATOM     24  O   UNL     1      10.568  -1.648  21.853  0.00  0.00    -0.503 OA
ATOM     25  H   UNL     1      10.572  -2.562  21.516  0.00  0.00    +0.292 HD
ENDBRANCH   6  24
BRANCH   1  26
ATOM     26  O   UNL     1       9.730   0.924  22.602  0.00  0.00    -0.422 OA
BRANCH  26  27
ATOM     27  C   UNL     1      10.408   1.599  23.614  0.00  0.00    +0.312 C 
ATOM     28  O   UNL     1      11.092   1.087  24.492  0.00  0.00    -0.250 OA
BRANCH  27  29
ATOM     29  C   UNL     1      10.163   3.083  23.489  0.00  0.00    +0.121 C 
BRANCH  29  30
ATOM     30  C   UNL     1       8.784   3.466  24.003  0.00  0.00    +0.011 C 
BRANCH  30  31
ATOM     31  C   UNL     1       8.331   4.814  23.443  0.00  0.00    +0.001 C 
BRANCH  31  32
ATOM     32  C   UNL     1       7.328   4.629  22.310  0.00  0.00    +0.000 C 
BRANCH  32  33
ATOM     33  C   UNL     1       6.788   3.200  22.291  0.00  0.00    -0.000 C 
BRANCH  33  35
ATOM     34  C   UNL     1       5.044   2.471  23.948  0.00  0.00    +0.004 C 
ATOM     35  C   UNL     1       5.299   3.172  22.624  0.00  0.00    -0.003 C 
ENDBRANCH  33  35
ENDBRANCH  32  33
ENDBRANCH  31  32
ENDBRANCH  30  31
ENDBRANCH  29  30
ENDBRANCH  27  29
ENDBRANCH  26  27
ENDBRANCH   1  26
TORSDOF 13
ENDMDL
MODEL 8
REMARK VINA RESULT:      -7.1      2.728      4.438
REMARK  Name = 
REMARK  14 active torsions:
REMARK  status: ('A' for Active; 'I' for Inactive)
REMARK    1  A    between atoms: C_1  and  C_2
REMARK    2  A    between atoms: C_2  and  C_3
REMARK    3  A    between atoms: C_3  and  C_4
REMARK    4  A    between atoms: C_4  and  C_5
REMARK    5  A    between atoms: C_5  and  C_6
REMARK    6  A    between atoms: C_6  and  C_7
REMARK    7  A    between atoms: C_7  and  C_8
REMARK    8  A    between atoms: C_8  and  O_10
REMARK    9  A    between atoms: O_10  and  C_11
REMARK   10  A    between atoms: C_12  and  O_31
REMARK   11  A    between atoms: C_14  and  C_17
REMARK   12  A    between atoms: C_18  and  O_30
REMARK   13  A    between atoms: C_22  and  O_29
REMARK   14  A    between atoms: C_24  and  O_28
REMARK                            x       y       z     vdW  Elec       q    Type
REMARK                         _______ _______ _______ _____ _____    ______ ____
ROOT
ATOM      1  C   UNL     1       7.901   0.879  24.554  0.00  0.00    +0.173 A 
ATOM      2  C   UNL     1       6.596   0.444  24.318  0.00  0.00    +0.051 A 
ATOM      3  C   UNL     1       6.153  -0.753  24.876  0.00  0.00    +0.015 A 
ATOM      4  C   UNL     1       7.022  -1.532  25.648  0.00  0.00    +0.025 A 
ATOM      5  C   UNL     1       8.327  -1.088  25.897  0.00  0.00    +0.061 A 
ATOM      6  C   UNL     1       8.762   0.115  25.346  0.00  0.00    +0.160 A 
ENDROOT
BRANCH   4   7
ATOM      7  C   UNL     1       6.570  -2.844  26.122  0.00  0.00    +0.181 A 
ATOM      8  O   UNL     1       5.218  -3.029  25.900  0.00  0.00    -0.451 OA
ATOM      9  C   UNL     1       4.641  -4.200  26.311  0.00  0.00    +0.147 A 
ATOM     10  C   UNL     1       5.355  -5.212  26.944  0.00  0.00    +0.109 A 
ATOM     11  C   UNL     1       4.697  -6.383  27.337  0.00  0.00    +0.135 A 
ATOM     12  C   UNL     1       3.333  -6.540  27.099  0.00  0.00    +0.091 A 
ATOM     13  C   UNL     1       2.633  -5.517  26.464  0.00  0.00    +0.124 A 
ATOM     14  C   UNL     1       6.792  -5.013  27.183  0.00  0.00    +0.238 A 
ATOM     15  O   UNL     1       7.441  -5.893  27.745  0.00  0.00    -0.283 OA
ATOM     16  C   UNL     1       3.275  -4.348  26.069  0.00  0.00    +0.092 A 
ATOM     17  C   UNL     1       7.388  -3.728  26.726  0.00  0.00    +0.208 A 
BRANCH  11  18
ATOM     18  O   UNL     1       5.334  -7.418  27.966  0.00  0.00    -0.506 OA
ATOM     19  H   UNL     1       6.209  -7.549  27.531  0.00  0.00    +0.292 HD
ENDBRANCH  11  18
BRANCH  13  20
ATOM     20  O   UNL     1       1.299  -5.625  26.206  0.00  0.00    -0.507 OA
ATOM     21  H   UNL     1       1.083  -6.563  26.063  0.00  0.00    +0.292 HD
ENDBRANCH  13  20
BRANCH  17  22
ATOM     22  O   UNL     1       8.734  -3.522  26.963  0.00  0.00    -0.501 OA
ATOM     23  H   UNL     1       9.232  -4.320  26.719  0.00  0.00    +0.292 HD
ENDBRANCH  17  22
ENDBRANCH   4   7
BRANCH   6  24
ATOM     24  O   UNL     1      10.052   0.490  25.588  0.00  0.00    -0.503 OA
ATOM     25  H   UNL     1      10.047   1.090  26.355  0.00  0.00    +0.292 HD
ENDBRANCH   6  24
BRANCH   1  26
ATOM     26  O   UNL     1       8.415   1.997  23.875  0.00  0.00    -0.422 OA
BRANCH  26  27
ATOM     27  C   UNL     1       8.455   1.907  22.486  0.00  0.00    +0.312 C 
ATOM     28  O   UNL     1       7.579   2.271  21.712  0.00  0.00    -0.250 OA
BRANCH  27  29
ATOM     29  C   UNL     1       9.751   1.266  22.054  0.00  0.00    +0.121 C 
BRANCH  29  30
ATOM     30  C   UNL     1       9.525  -0.135  21.507  0.00  0.00    +0.011 C 
BRANCH  30  31
ATOM     31  C   UNL     1      10.337  -1.177  22.277  0.00  0.00    +0.001 C 
BRANCH  31  32
ATOM     32  C   UNL     1       9.445  -2.308  22.779  0.00  0.00    +0.000 C 
BRANCH  32  33
ATOM     33  C   UNL     1       8.054  -2.219  22.154  0.00  0.00    -0.000 C 
BRANCH  33  35
ATOM     34  C   UNL     1       5.757  -3.239  22.185  0.00  0.00    +0.004 C 
ATOM     35  C   UNL     1       7.233  -3.467  22.465  0.00  0.00    -0.003 C 
ENDBRANCH  33  35
ENDBRANCH  32  33
ENDBRANCH  31  32
ENDBRANCH  30  31
ENDBRANCH  29  30
ENDBRANCH  27  29
ENDBRANCH  26  27
ENDBRANCH   1  26
TORSDOF 13
ENDMDL
MODEL 9
REMARK VINA RESULT:      -7.1      2.109      2.984
REMARK  Name = 
REMARK  14 active torsions:
REMARK  status: ('A' for Active; 'I' for Inactive)
REMARK    1  A    between atoms: C_1  and  C_2
REMARK    2  A    between atoms: C_2  and  C_3
REMARK    3  A    between atoms: C_3  and  C_4
REMARK    4  A    between atoms: C_4  and  C_5
REMARK    5  A    between atoms: C_5  and  C_6
REMARK    6  A    between atoms: C_6  and  C_7
REMARK    7  A    between atoms: C_7  and  C_8
REMARK    8  A    between atoms: C_8  and  O_10
REMARK    9  A    between atoms: O_10  and  C_11
REMARK   10  A    between atoms: C_12  and  O_31
REMARK   11  A    between atoms: C_14  and  C_17
REMARK   12  A    between atoms: C_18  and  O_30
REMARK   13  A    between atoms: C_22  and  O_29
REMARK   14  A    between atoms: C_24  and  O_28
REMARK                            x       y       z     vdW  Elec       q    Type
REMARK                         _______ _______ _______ _____ _____    ______ ____
ROOT
ATOM      1  C   UNL     1       9.814  -0.829  23.904  0.00  0.00    +0.173 A 
ATOM      2  C   UNL     1       9.738  -2.105  23.343  0.00  0.00    +0.051 A 
ATOM      3  C   UNL     1       8.917  -3.069  23.921  0.00  0.00    +0.015 A 
ATOM      4  C   UNL     1       8.191  -2.770  25.080  0.00  0.00    +0.025 A 
ATOM      5  C   UNL     1       8.256  -1.485  25.634  0.00  0.00    +0.061 A 
ATOM      6  C   UNL     1       9.070  -0.521  25.045  0.00  0.00    +0.160 A 
ENDROOT
BRANCH   4   7
ATOM      7  C   UNL     1       7.430  -3.836  25.738  0.00  0.00    +0.181 A 
ATOM      8  O   UNL     1       6.132  -3.903  25.265  0.00  0.00    -0.451 OA
ATOM      9  C   UNL     1       5.286  -4.835  25.802  0.00  0.00    +0.147 A 
ATOM     10  C   UNL     1       5.675  -5.719  26.803  0.00  0.00    +0.109 A 
ATOM     11  C   UNL     1       4.755  -6.648  27.305  0.00  0.00    +0.135 A 
ATOM     12  C   UNL     1       3.454  -6.690  26.807  0.00  0.00    +0.091 A 
ATOM     13  C   UNL     1       3.081  -5.798  25.805  0.00  0.00    +0.124 A 
ATOM     14  C   UNL     1       7.054  -5.646  27.307  0.00  0.00    +0.238 A 
ATOM     15  O   UNL     1       7.418  -6.415  28.194  0.00  0.00    -0.283 OA
ATOM     16  C   UNL     1       3.986  -4.870  25.299  0.00  0.00    +0.092 A 
ATOM     17  C   UNL     1       7.948  -4.618  26.704  0.00  0.00    +0.208 A 
BRANCH  11  18
ATOM     18  O   UNL     1       5.067  -7.545  28.289  0.00  0.00    -0.506 OA
ATOM     19  H   UNL     1       4.540  -7.316  29.090  0.00  0.00    +0.292 HD
ENDBRANCH  11  18
BRANCH  13  20
ATOM     20  O   UNL     1       1.821  -5.803  25.285  0.00  0.00    -0.507 OA
ATOM     21  H   UNL     1       1.671  -6.653  24.838  0.00  0.00    +0.292 HD
ENDBRANCH  13  20
BRANCH  17  22
ATOM     22  O   UNL     1       9.241  -4.527  27.184  0.00  0.00    -0.501 OA
ATOM     23  H   UNL     1       9.509  -3.593  27.216  0.00  0.00    +0.292 HD
ENDBRANCH  17  22
ENDBRANCH   4   7
BRANCH   6  24
ATOM     24  O   UNL     1       9.127   0.706  25.641  0.00  0.00    -0.503 OA
ATOM     25  H   UNL     1       9.308   1.364  24.946  0.00  0.00    +0.292 HD
ENDBRANCH   6  24
BRANCH   1  26
ATOM     26  O   UNL     1      10.752   0.105  23.432  0.00  0.00    -0.422 OA
BRANCH  26  27
ATOM     27  C   UNL     1      10.233   1.240  22.815  0.00  0.00    +0.312 C 
ATOM     28  O   UNL     1      10.359   2.395  23.203  0.00  0.00    -0.250 OA
BRANCH  27  29
ATOM     29  C   UNL     1       9.458   0.841  21.584  0.00  0.00    +0.121 C 
BRANCH  29  30
ATOM     30  C   UNL     1       8.208   1.690  21.412  0.00  0.00    +0.011 C 
BRANCH  30  31
ATOM     31  C   UNL     1       7.148   1.348  22.458  0.00  0.00    +0.001 C 
BRANCH  31  32
ATOM     32  C   UNL     1       6.162   2.498  22.638  0.00  0.00    +0.000 C 
BRANCH  32  33
ATOM     33  C   UNL     1       6.836   3.839  22.355  0.00  0.00    -0.000 C 
BRANCH  33  35
ATOM     34  C   UNL     1       6.525   4.130  24.833  0.00  0.00    +0.004 C 
ATOM     35  C   UNL     1       7.403   4.448  23.634  0.00  0.00    -0.003 C 
ENDBRANCH  33  35
ENDBRANCH  32  33
ENDBRANCH  31  32
ENDBRANCH  30  31
ENDBRANCH  29  30
ENDBRANCH  27  29
ENDBRANCH  26  27
ENDBRANCH   1  26
TORSDOF 13
ENDMDL
