MODEL 1
REMARK VINA RESULT:      -8.0      0.000      0.000
REMARK  Name = 
REMARK  12 active torsions:
REMARK  status: ('A' for Active; 'I' for Inactive)
REMARK    1  A    between atoms: C_3  and  O_37
REMARK    2  A    between atoms: C_4  and  O_36
REMARK    3  A    between atoms: C_6  and  C_7
REMARK    4  A    between atoms: C_8  and  O_35
REMARK    5  A    between atoms: C_12  and  O_34
REMARK    6  A    between atoms: C_14  and  O_18
REMARK    7  A    between atoms: O_18  and  C_19
REMARK    8  A    between atoms: C_21  and  O_33
REMARK    9  A    between atoms: C_22  and  O_32
REMARK   10  A    between atoms: C_24  and  O_31
REMARK   11  A    between atoms: C_26  and  C_28
REMARK   12  A    between atoms: C_28  and  O_30
REMARK                            x       y       z     vdW  Elec       q    Type
REMARK                         _______ _______ _______ _____ _____    ______ ____
ROOT
ATOM      1  C   UNL     1       7.865   1.649  23.449  0.00  0.00    +0.181 A 
ATOM      2  O   UNL     1       6.899   0.629  23.363  0.00  0.00    -0.451 OA
ATOM      3  C   UNL     1       7.310  -0.691  23.436  0.00  0.00    +0.147 A 
ATOM      4  C   UNL     1       8.655  -1.031  23.534  0.00  0.00    +0.109 A 
ATOM      5  C   UNL     1       9.049  -2.361  23.603  0.00  0.00    +0.135 A 
ATOM      6  C   UNL     1       8.103  -3.365  23.558  0.00  0.00    +0.092 A 
ATOM      7  C   UNL     1       6.740  -3.072  23.410  0.00  0.00    +0.131 A 
ATOM      8  C   UNL     1       9.668   0.021  23.580  0.00  0.00    +0.238 A 
ATOM      9  O   UNL     1      10.860  -0.276  23.628  0.00  0.00    -0.283 OA
ATOM     10  C   UNL     1       6.342  -1.720  23.384  0.00  0.00    +0.093 A 
ATOM     11  C   UNL     1       9.188   1.411  23.600  0.00  0.00    +0.208 A 
ENDROOT
BRANCH   1  13
ATOM     12  C   UNL     1       6.353   3.487  24.344  0.00  0.00    +0.015 A 
ATOM     13  C   UNL     1       7.318   3.045  23.407  0.00  0.00    +0.025 A 
ATOM     14  C   UNL     1       7.716   3.948  22.413  0.00  0.00    +0.060 A 
ATOM     15  C   UNL     1       7.089   5.192  22.312  0.00  0.00    +0.159 A 
ATOM     16  C   UNL     1       6.067   5.563  23.183  0.00  0.00    +0.158 A 
ATOM     17  C   UNL     1       5.701   4.720  24.217  0.00  0.00    +0.050 A 
BRANCH  15  18
ATOM     18  O   UNL     1       7.469   6.054  21.322  0.00  0.00    -0.503 OA
ATOM     19  H   UNL     1       8.446   5.998  21.307  0.00  0.00    +0.292 HD
ENDBRANCH  15  18
BRANCH  16  20
ATOM     20  O   UNL     1       5.451   6.764  22.978  0.00  0.00    -0.503 OA
ATOM     21  H   UNL     1       4.623   6.607  22.491  0.00  0.00    +0.292 HD
ENDBRANCH  16  20
ENDBRANCH   1  13
BRANCH   5  22
ATOM     22  O   UNL     1      10.352  -2.771  23.688  0.00  0.00    -0.506 OA
ATOM     23  H   UNL     1      10.567  -2.914  24.640  0.00  0.00    +0.292 HD
ENDBRANCH   5  22
BRANCH  11  24
ATOM     24  O   UNL     1      10.165   2.372  23.804  0.00  0.00    -0.501 OA
ATOM     25  H   UNL     1      10.966   2.092  23.331  0.00  0.00    +0.292 HD
ENDBRANCH  11  24
BRANCH   7  26
ATOM     26  O   UNL     1       5.765  -4.053  23.238  0.00  0.00    -0.461 OA
BRANCH  26  27
ATOM     27  C   UNL     1       4.818  -4.123  24.335  0.00  0.00    +0.340 C 
ATOM     28  O   UNL     1       5.532  -4.213  25.580  0.00  0.00    -0.322 OA
ATOM     29  C   UNL     1       6.056  -5.536  25.787  0.00  0.00    +0.261 C 
ATOM     30  C   UNL     1       4.889  -6.473  26.078  0.00  0.00    +0.185 C 
ATOM     31  C   UNL     1       4.064  -6.589  24.790  0.00  0.00    +0.180 C 
ATOM     32  C   UNL     1       3.704  -5.204  24.219  0.00  0.00    +0.214 C 
BRANCH  29  33
ATOM     33  C   UNL     1       7.063  -5.533  26.927  0.00  0.00    +0.337 C 
ATOM     34  O   UNL     1       6.790  -5.313  28.098  0.00  0.00    -0.248 OA
BRANCH  33  35
ATOM     35  O   UNL     1       8.309  -5.877  26.508  0.00  0.00    -0.479 OA
ATOM     36  H   UNL     1       8.860  -6.072  27.301  0.00  0.00    +0.295 HD
ENDBRANCH  33  35
ENDBRANCH  29  33
BRANCH  30  37
ATOM     37  O   UNL     1       4.066  -5.898  27.105  0.00  0.00    -0.386 OA
ATOM     38  H   UNL     1       4.451  -5.042  27.362  0.00  0.00    +0.210 HD
ENDBRANCH  30  37
BRANCH  31  39
ATOM     39  O   UNL     1       4.734  -7.386  23.811  0.00  0.00    -0.386 OA
ATOM     40  H   UNL     1       5.698  -7.260  23.896  0.00  0.00    +0.210 HD
ENDBRANCH  31  39
BRANCH  32  41
ATOM     41  O   UNL     1       3.193  -5.309  22.887  0.00  0.00    -0.383 OA
ATOM     42  H   UNL     1       2.221  -5.373  22.941  0.00  0.00    +0.210 HD
ENDBRANCH  32  41
ENDBRANCH  26  27
ENDBRANCH   7  26
TORSDOF 12
ENDMDL
MODEL 2
REMARK VINA RESULT:      -7.9      1.672      9.197
REMARK  Name = 
REMARK  12 active torsions:
REMARK  status: ('A' for Active; 'I' for Inactive)
REMARK    1  A    between atoms: C_3  and  O_37
REMARK    2  A    between atoms: C_4  and  O_36
REMARK    3  A    between atoms: C_6  and  C_7
REMARK    4  A    between atoms: C_8  and  O_35
REMARK    5  A    between atoms: C_12  and  O_34
REMARK    6  A    between atoms: C_14  and  O_18
REMARK    7  A    between atoms: O_18  and  C_19
REMARK    8  A    between atoms: C_21  and  O_33
REMARK    9  A    between atoms: C_22  and  O_32
REMARK   10  A    between atoms: C_24  and  O_31
REMARK   11  A    between atoms: C_26  and  C_28
REMARK   12  A    between atoms: C_28  and  O_30
REMARK                            x       y       z     vdW  Elec       q    Type
REMARK                         _______ _______ _______ _____ _____    ______ ____
ROOT
ATOM      1  C   UNL     1       6.845  -3.864  24.453  0.00  0.00    +0.181 A 
ATOM      2  O   UNL     1       6.332  -2.553  24.436  0.00  0.00    -0.451 OA
ATOM      3  C   UNL     1       7.190  -1.501  24.167  0.00  0.00    +0.147 A 
ATOM      4  C   UNL     1       8.553  -1.703  23.970  0.00  0.00    +0.109 A 
ATOM      5  C   UNL     1       9.400  -0.635  23.704  0.00  0.00    +0.135 A 
ATOM      6  C   UNL     1       8.895   0.648  23.648  0.00  0.00    +0.092 A 
ATOM      7  C   UNL     1       7.538   0.907  23.889  0.00  0.00    +0.131 A 
ATOM      8  C   UNL     1       9.101  -3.057  24.029  0.00  0.00    +0.238 A 
ATOM      9  O   UNL     1      10.309  -3.236  23.893  0.00  0.00    -0.283 OA
ATOM     10  C   UNL     1       6.677  -0.185  24.116  0.00  0.00    +0.093 A 
ATOM     11  C   UNL     1       8.145  -4.158  24.218  0.00  0.00    +0.208 A 
ENDROOT
BRANCH   1  13
ATOM     12  C   UNL     1       5.751  -5.595  25.959  0.00  0.00    +0.015 A 
ATOM     13  C   UNL     1       5.831  -4.938  24.707  0.00  0.00    +0.025 A 
ATOM     14  C   UNL     1       4.952  -5.358  23.700  0.00  0.00    +0.060 A 
ATOM     15  C   UNL     1       4.114  -6.453  23.919  0.00  0.00    +0.159 A 
ATOM     16  C   UNL     1       4.130  -7.149  25.126  0.00  0.00    +0.158 A 
ATOM     17  C   UNL     1       4.937  -6.716  26.162  0.00  0.00    +0.050 A 
BRANCH  15  18
ATOM     18  O   UNL     1       3.280  -6.867  22.918  0.00  0.00    -0.503 OA
ATOM     19  H   UNL     1       2.408  -6.970  23.350  0.00  0.00    +0.292 HD
ENDBRANCH  15  18
BRANCH  16  20
ATOM     20  O   UNL     1       3.337  -8.254  25.240  0.00  0.00    -0.503 OA
ATOM     21  H   UNL     1       2.406  -7.975  25.174  0.00  0.00    +0.292 HD
ENDBRANCH  16  20
ENDBRANCH   1  13
BRANCH   5  22
ATOM     22  O   UNL     1      10.749  -0.756  23.511  0.00  0.00    -0.506 OA
ATOM     23  H   UNL     1      10.986  -0.269  22.688  0.00  0.00    +0.292 HD
ENDBRANCH   5  22
BRANCH  11  24
ATOM     24  O   UNL     1       8.679  -5.431  24.109  0.00  0.00    -0.501 OA
ATOM     25  H   UNL     1       7.953  -6.046  23.915  0.00  0.00    +0.292 HD
ENDBRANCH  11  24
BRANCH   7  26
ATOM     26  O   UNL     1       7.011   2.195  23.964  0.00  0.00    -0.461 OA
BRANCH  26  27
ATOM     27  C   UNL     1       7.120   2.935  22.720  0.00  0.00    +0.340 C 
ATOM     28  O   UNL     1       8.247   3.825  22.789  0.00  0.00    -0.322 OA
ATOM     29  C   UNL     1       7.951   4.980  23.593  0.00  0.00    +0.261 C 
ATOM     30  C   UNL     1       6.963   5.855  22.828  0.00  0.00    +0.185 C 
ATOM     31  C   UNL     1       5.635   5.091  22.760  0.00  0.00    +0.180 C 
ATOM     32  C   UNL     1       5.830   3.658  22.231  0.00  0.00    +0.214 C 
BRANCH  29  33
ATOM     33  C   UNL     1       9.229   5.738  23.917  0.00  0.00    +0.337 C 
ATOM     34  O   UNL     1       9.591   6.046  25.044  0.00  0.00    -0.248 OA
BRANCH  33  35
ATOM     35  O   UNL     1       9.975   5.978  22.808  0.00  0.00    -0.479 OA
ATOM     36  H   UNL     1      10.236   6.928  22.808  0.00  0.00    +0.295 HD
ENDBRANCH  33  35
ENDBRANCH  29  33
BRANCH  30  37
ATOM     37  O   UNL     1       7.449   6.060  21.493  0.00  0.00    -0.386 OA
ATOM     38  H   UNL     1       7.577   5.190  21.076  0.00  0.00    +0.210 HD
ENDBRANCH  30  37
BRANCH  31  39
ATOM     39  O   UNL     1       4.972   5.083  24.026  0.00  0.00    -0.386 OA
ATOM     40  H   UNL     1       4.786   4.160  24.287  0.00  0.00    +0.210 HD
ENDBRANCH  31  39
BRANCH  32  41
ATOM     41  O   UNL     1       4.658   2.865  22.437  0.00  0.00    -0.383 OA
ATOM     42  H   UNL     1       4.482   2.832  23.396  0.00  0.00    +0.210 HD
ENDBRANCH  32  41
ENDBRANCH  26  27
ENDBRANCH   7  26
TORSDOF 12
ENDMDL
MODEL 3
REMARK VINA RESULT:      -7.7      1.618      3.367
REMARK  Name = 
REMARK  12 active torsions:
REMARK  status: ('A' for Active; 'I' for Inactive)
REMARK    1  A    between atoms: C_3  and  O_37
REMARK    2  A    between atoms: C_4  and  O_36
REMARK    3  A    between atoms: C_6  and  C_7
REMARK    4  A    between atoms: C_8  and  O_35
REMARK    5  A    between atoms: C_12  and  O_34
REMARK    6  A    between atoms: C_14  and  O_18
REMARK    7  A    between atoms: O_18  and  C_19
REMARK    8  A    between atoms: C_21  and  O_33
REMARK    9  A    between atoms: C_22  and  O_32
REMARK   10  A    between atoms: C_24  and  O_31
REMARK   11  A    between atoms: C_26  and  C_28
REMARK   12  A    between atoms: C_28  and  O_30
REMARK                            x       y       z     vdW  Elec       q    Type
REMARK                         _______ _______ _______ _____ _____    ______ ____
ROOT
ATOM      1  C   UNL     1       8.410  -0.335  23.850  0.00  0.00    +0.181 A 
ATOM      2  O   UNL     1       7.405  -1.012  24.566  0.00  0.00    -0.451 OA
ATOM      3  C   UNL     1       7.630  -2.319  24.963  0.00  0.00    +0.147 A 
ATOM      4  C   UNL     1       8.797  -2.995  24.620  0.00  0.00    +0.109 A 
ATOM      5  C   UNL     1       9.003  -4.307  25.024  0.00  0.00    +0.135 A 
ATOM      6  C   UNL     1       8.037  -4.963  25.761  0.00  0.00    +0.092 A 
ATOM      7  C   UNL     1       6.825  -4.340  26.087  0.00  0.00    +0.131 A 
ATOM      8  C   UNL     1       9.826  -2.313  23.839  0.00  0.00    +0.238 A 
ATOM      9  O   UNL     1      10.842  -2.918  23.502  0.00  0.00    -0.283 OA
ATOM     10  C   UNL     1       6.639  -2.995  25.711  0.00  0.00    +0.093 A 
ATOM     11  C   UNL     1       9.597  -0.896  23.521  0.00  0.00    +0.208 A 
ENDROOT
BRANCH   1  13
ATOM     12  C   UNL     1       7.319   1.418  22.366  0.00  0.00    +0.015 A 
ATOM     13  C   UNL     1       8.093   1.089  23.506  0.00  0.00    +0.025 A 
ATOM     14  C   UNL     1       8.586   2.148  24.279  0.00  0.00    +0.060 A 
ATOM     15  C   UNL     1       8.395   3.466  23.859  0.00  0.00    +0.159 A 
ATOM     16  C   UNL     1       7.719   3.759  22.676  0.00  0.00    +0.158 A 
ATOM     17  C   UNL     1       7.161   2.738  21.928  0.00  0.00    +0.050 A 
BRANCH  15  18
ATOM     18  O   UNL     1       8.904   4.488  24.610  0.00  0.00    -0.503 OA
ATOM     19  H   UNL     1       9.258   5.124  23.955  0.00  0.00    +0.292 HD
ENDBRANCH  15  18
BRANCH  16  20
ATOM     20  O   UNL     1       7.635   5.066  22.292  0.00  0.00    -0.503 OA
ATOM     21  H   UNL     1       7.449   5.608  23.079  0.00  0.00    +0.292 HD
ENDBRANCH  16  20
ENDBRANCH   1  13
BRANCH   5  22
ATOM     22  O   UNL     1      10.119  -5.038  24.716  0.00  0.00    -0.506 OA
ATOM     23  H   UNL     1      10.692  -4.489  24.131  0.00  0.00    +0.292 HD
ENDBRANCH   5  22
BRANCH  11  24
ATOM     24  O   UNL     1      10.661  -0.244  22.920  0.00  0.00    -0.501 OA
ATOM     25  H   UNL     1      10.585  -0.365  21.960  0.00  0.00    +0.292 HD
ENDBRANCH  11  24
BRANCH   7  26
ATOM     26  O   UNL     1       5.775  -5.003  26.721  0.00  0.00    -0.461 OA
BRANCH  26  27
ATOM     27  C   UNL     1       5.471  -6.294  26.134  0.00  0.00    +0.340 C 
ATOM     28  O   UNL     1       5.107  -6.120  24.754  0.00  0.00    -0.322 OA
ATOM     29  C   UNL     1       3.768  -5.611  24.628  0.00  0.00    +0.261 C 
ATOM     30  C   UNL     1       2.795  -6.717  25.026  0.00  0.00    +0.185 C 
ATOM     31  C   UNL     1       2.970  -6.958  26.531  0.00  0.00    +0.180 C 
ATOM     32  C   UNL     1       4.448  -7.180  26.904  0.00  0.00    +0.214 C 
BRANCH  29  33
ATOM     33  C   UNL     1       3.516  -5.135  23.206  0.00  0.00    +0.337 C 
ATOM     34  O   UNL     1       4.308  -4.486  22.537  0.00  0.00    -0.248 OA
BRANCH  33  35
ATOM     35  O   UNL     1       2.326  -5.577  22.723  0.00  0.00    -0.479 OA
ATOM     36  H   UNL     1       1.604  -5.089  23.184  0.00  0.00    +0.295 HD
ENDBRANCH  33  35
ENDBRANCH  29  33
BRANCH  30  37
ATOM     37  O   UNL     1       3.136  -7.921  24.322  0.00  0.00    -0.386 OA
ATOM     38  H   UNL     1       2.388  -8.161  23.746  0.00  0.00    +0.210 HD
ENDBRANCH  30  37
BRANCH  31  39
ATOM     39  O   UNL     1       2.403  -5.894  27.299  0.00  0.00    -0.386 OA
ATOM     40  H   UNL     1       1.475  -5.757  27.027  0.00  0.00    +0.210 HD
ENDBRANCH  31  39
BRANCH  32  41
ATOM     41  O   UNL     1       4.640  -7.116  28.320  0.00  0.00    -0.383 OA
ATOM     42  H   UNL     1       5.405  -6.537  28.494  0.00  0.00    +0.210 HD
ENDBRANCH  32  41
ENDBRANCH  26  27
ENDBRANCH   7  26
TORSDOF 12
ENDMDL
MODEL 4
REMARK VINA RESULT:      -7.4      1.676      3.506
REMARK  Name = 
REMARK  12 active torsions:
REMARK  status: ('A' for Active; 'I' for Inactive)
REMARK    1  A    between atoms: C_3  and  O_37
REMARK    2  A    between atoms: C_4  and  O_36
REMARK    3  A    between atoms: C_6  and  C_7
REMARK    4  A    between atoms: C_8  and  O_35
REMARK    5  A    between atoms: C_12  and  O_34
REMARK    6  A    between atoms: C_14  and  O_18
REMARK    7  A    between atoms: O_18  and  C_19
REMARK    8  A    between atoms: C_21  and  O_33
REMARK    9  A    between atoms: C_22  and  O_32
REMARK   10  A    between atoms: C_24  and  O_31
REMARK   11  A    between atoms: C_26  and  C_28
REMARK   12  A    between atoms: C_28  and  O_30
REMARK                            x       y       z     vdW  Elec       q    Type
REMARK                         _______ _______ _______ _____ _____    ______ ____
ROOT
ATOM      1  C   UNL     1       8.384  -0.191  23.688  0.00  0.00    +0.181 A 
ATOM      2  O   UNL     1       7.143  -0.805  23.941  0.00  0.00    -0.451 OA
ATOM      3  C   UNL     1       7.105  -2.169  24.174  0.00  0.00    +0.147 A 
ATOM      4  C   UNL     1       8.252  -2.953  24.107  0.00  0.00    +0.109 A 
ATOM      5  C   UNL     1       8.194  -4.320  24.341  0.00  0.00    +0.135 A 
ATOM      6  C   UNL     1       6.985  -4.921  24.628  0.00  0.00    +0.092 A 
ATOM      7  C   UNL     1       5.795  -4.181  24.657  0.00  0.00    +0.131 A 
ATOM      8  C   UNL     1       9.539  -2.330  23.803  0.00  0.00    +0.238 A 
ATOM      9  O   UNL     1      10.549  -3.024  23.705  0.00  0.00    -0.283 OA
ATOM     10  C   UNL     1       5.866  -2.787  24.461  0.00  0.00    +0.093 A 
ATOM     11  C   UNL     1       9.557  -0.867  23.659  0.00  0.00    +0.208 A 
ENDROOT
BRANCH   1  13
ATOM     12  C   UNL     1       9.091   2.172  24.304  0.00  0.00    +0.015 A 
ATOM     13  C   UNL     1       8.329   1.294  23.495  0.00  0.00    +0.025 A 
ATOM     14  C   UNL     1       7.491   1.868  22.530  0.00  0.00    +0.060 A 
ATOM     15  C   UNL     1       7.353   3.256  22.464  0.00  0.00    +0.159 A 
ATOM     16  C   UNL     1       8.034   4.095  23.343  0.00  0.00    +0.158 A 
ATOM     17  C   UNL     1       8.921   3.562  24.261  0.00  0.00    +0.050 A 
BRANCH  15  18
ATOM     18  O   UNL     1       6.512   3.801  21.535  0.00  0.00    -0.503 OA
ATOM     19  H   UNL     1       5.956   3.053  21.236  0.00  0.00    +0.292 HD
ENDBRANCH  15  18
BRANCH  16  20
ATOM     20  O   UNL     1       7.793   5.437  23.268  0.00  0.00    -0.503 OA
ATOM     21  H   UNL     1       7.965   5.731  22.356  0.00  0.00    +0.292 HD
ENDBRANCH  16  20
ENDBRANCH   1  13
BRANCH   5  22
ATOM     22  O   UNL     1       9.278  -5.155  24.282  0.00  0.00    -0.506 OA
ATOM     23  H   UNL     1       9.875  -4.832  23.567  0.00  0.00    +0.292 HD
ENDBRANCH   5  22
BRANCH  11  24
ATOM     24  O   UNL     1      10.813  -0.299  23.530  0.00  0.00    -0.501 OA
ATOM     25  H   UNL     1      11.422  -0.780  24.114  0.00  0.00    +0.292 HD
ENDBRANCH  11  24
BRANCH   7  26
ATOM     26  O   UNL     1       4.540  -4.764  24.820  0.00  0.00    -0.461 OA
BRANCH  26  27
ATOM     27  C   UNL     1       4.586  -6.211  24.920  0.00  0.00    +0.340 C 
ATOM     28  O   UNL     1       3.803  -6.790  23.862  0.00  0.00    -0.322 OA
ATOM     29  C   UNL     1       2.396  -6.693  24.140  0.00  0.00    +0.261 C 
ATOM     30  C   UNL     1       2.065  -7.656  25.276  0.00  0.00    +0.185 C 
ATOM     31  C   UNL     1       2.740  -7.115  26.543  0.00  0.00    +0.180 C 
ATOM     32  C   UNL     1       4.234  -6.820  26.310  0.00  0.00    +0.214 C 
BRANCH  29  33
ATOM     33  C   UNL     1       1.588  -7.010  22.891  0.00  0.00    +0.337 C 
ATOM     34  O   UNL     1       0.805  -6.241  22.352  0.00  0.00    -0.248 OA
BRANCH  33  35
ATOM     35  O   UNL     1       1.888  -8.235  22.387  0.00  0.00    -0.479 OA
ATOM     36  H   UNL     1       1.752  -8.905  23.097  0.00  0.00    +0.295 HD
ENDBRANCH  33  35
ENDBRANCH  29  33
BRANCH  30  37
ATOM     37  O   UNL     1       2.613  -8.948  24.975  0.00  0.00    -0.386 OA
ATOM     38  H   UNL     1       2.503  -9.113  24.022  0.00  0.00    +0.210 HD
ENDBRANCH  30  37
BRANCH  31  39
ATOM     39  O   UNL     1       2.063  -5.960  27.043  0.00  0.00    -0.386 OA
ATOM     40  H   UNL     1       1.675  -6.165  27.915  0.00  0.00    +0.210 HD
ENDBRANCH  31  39
BRANCH  32  41
ATOM     41  O   UNL     1       4.786  -6.056  27.386  0.00  0.00    -0.383 OA
ATOM     42  H   UNL     1       5.713  -6.336  27.509  0.00  0.00    +0.210 HD
ENDBRANCH  32  41
ENDBRANCH  26  27
ENDBRANCH   7  26
TORSDOF 12
ENDMDL
MODEL 5
REMARK VINA RESULT:      -7.4      1.902      9.175
REMARK  Name = 
REMARK  12 active torsions:
REMARK  status: ('A' for Active; 'I' for Inactive)
REMARK    1  A    between atoms: C_3  and  O_37
REMARK    2  A    between atoms: C_4  and  O_36
REMARK    3  A    between atoms: C_6  and  C_7
REMARK    4  A    between atoms: C_8  and  O_35
REMARK    5  A    between atoms: C_12  and  O_34
REMARK    6  A    between atoms: C_14  and  O_18
REMARK    7  A    between atoms: O_18  and  C_19
REMARK    8  A    between atoms: C_21  and  O_33
REMARK    9  A    between atoms: C_22  and  O_32
REMARK   10  A    between atoms: C_24  and  O_31
REMARK   11  A    between atoms: C_26  and  C_28
REMARK   12  A    between atoms: C_28  and  O_30
REMARK                            x       y       z     vdW  Elec       q    Type
REMARK                         _______ _______ _______ _____ _____    ______ ____
ROOT
ATOM      1  C   UNL     1       7.544  -3.561  25.184  0.00  0.00    +0.181 A 
ATOM      2  O   UNL     1       6.947  -2.292  25.301  0.00  0.00    -0.451 OA
ATOM      3  C   UNL     1       7.546  -1.210  24.681  0.00  0.00    +0.147 A 
ATOM      4  C   UNL     1       8.751  -1.336  23.995  0.00  0.00    +0.109 A 
ATOM      5  C   UNL     1       9.339  -0.239  23.381  0.00  0.00    +0.135 A 
ATOM      6  C   UNL     1       8.737   1.001  23.460  0.00  0.00    +0.092 A 
ATOM      7  C   UNL     1       7.549   1.188  24.181  0.00  0.00    +0.131 A 
ATOM      8  C   UNL     1       9.400  -2.643  23.906  0.00  0.00    +0.238 A 
ATOM      9  O   UNL     1      10.482  -2.752  23.334  0.00  0.00    -0.283 OA
ATOM     10  C   UNL     1       6.935   0.062  24.766  0.00  0.00    +0.093 A 
ATOM     11  C   UNL     1       8.685  -3.786  24.492  0.00  0.00    +0.208 A 
ENDROOT
BRANCH   1  13
ATOM     12  C   UNL     1       5.686  -5.295  25.229  0.00  0.00    +0.015 A 
ATOM     13  C   UNL     1       6.798  -4.677  25.851  0.00  0.00    +0.025 A 
ATOM     14  C   UNL     1       7.151  -5.120  27.133  0.00  0.00    +0.060 A 
ATOM     15  C   UNL     1       6.354  -6.062  27.787  0.00  0.00    +0.159 A 
ATOM     16  C   UNL     1       5.205  -6.578  27.193  0.00  0.00    +0.158 A 
ATOM     17  C   UNL     1       4.869  -6.212  25.903  0.00  0.00    +0.050 A 
BRANCH  15  18
ATOM     18  O   UNL     1       6.696  -6.466  29.047  0.00  0.00    -0.503 OA
ATOM     19  H   UNL     1       5.860  -6.425  29.556  0.00  0.00    +0.292 HD
ENDBRANCH  15  18
BRANCH  16  20
ATOM     20  O   UNL     1       4.436  -7.440  27.923  0.00  0.00    -0.503 OA
ATOM     21  H   UNL     1       4.899  -8.294  27.980  0.00  0.00    +0.292 HD
ENDBRANCH  16  20
ENDBRANCH   1  13
BRANCH   5  22
ATOM     22  O   UNL     1      10.525  -0.285  22.700  0.00  0.00    -0.506 OA
ATOM     23  H   UNL     1      10.779   0.638  22.464  0.00  0.00    +0.292 HD
ENDBRANCH   5  22
BRANCH  11  24
ATOM     24  O   UNL     1       9.252  -5.027  24.249  0.00  0.00    -0.501 OA
ATOM     25  H   UNL     1       9.900  -4.926  23.533  0.00  0.00    +0.292 HD
ENDBRANCH  11  24
BRANCH   7  26
ATOM     26  O   UNL     1       6.974   2.440  24.389  0.00  0.00    -0.461 OA
BRANCH  26  27
ATOM     27  C   UNL     1       6.095   2.856  23.312  0.00  0.00    +0.340 C 
ATOM     28  O   UNL     1       6.716   3.920  22.571  0.00  0.00    -0.322 OA
ATOM     29  C   UNL     1       6.636   5.168  23.282  0.00  0.00    +0.261 C 
ATOM     30  C   UNL     1       5.185   5.638  23.263  0.00  0.00    +0.185 C 
ATOM     31  C   UNL     1       4.378   4.658  24.124  0.00  0.00    +0.180 C 
ATOM     32  C   UNL     1       4.628   3.196  23.709  0.00  0.00    +0.214 C 
BRANCH  29  33
ATOM     33  C   UNL     1       7.561   6.196  22.648  0.00  0.00    +0.337 C 
ATOM     34  O   UNL     1       8.348   6.900  23.265  0.00  0.00    -0.248 OA
BRANCH  33  35
ATOM     35  O   UNL     1       7.469   6.197  21.293  0.00  0.00    -0.479 OA
ATOM     36  H   UNL     1       7.112   7.070  21.007  0.00  0.00    +0.295 HD
ENDBRANCH  33  35
ENDBRANCH  29  33
BRANCH  30  37
ATOM     37  O   UNL     1       4.689   5.588  21.917  0.00  0.00    -0.386 OA
ATOM     38  H   UNL     1       5.435   5.390  21.323  0.00  0.00    +0.210 HD
ENDBRANCH  30  37
BRANCH  31  39
ATOM     39  O   UNL     1       4.642   4.847  25.517  0.00  0.00    -0.386 OA
ATOM     40  H   UNL     1       4.861   3.987  25.923  0.00  0.00    +0.210 HD
ENDBRANCH  31  39
BRANCH  32  41
ATOM     41  O   UNL     1       4.110   2.285  24.683  0.00  0.00    -0.383 OA
ATOM     42  H   UNL     1       4.854   1.754  25.025  0.00  0.00    +0.210 HD
ENDBRANCH  32  41
ENDBRANCH  26  27
ENDBRANCH   7  26
TORSDOF 12
ENDMDL
MODEL 6
REMARK VINA RESULT:      -7.3      1.710      9.032
REMARK  Name = 
REMARK  12 active torsions:
REMARK  status: ('A' for Active; 'I' for Inactive)
REMARK    1  A    between atoms: C_3  and  O_37
REMARK    2  A    between atoms: C_4  and  O_36
REMARK    3  A    between atoms: C_6  and  C_7
REMARK    4  A    between atoms: C_8  and  O_35
REMARK    5  A    between atoms: C_12  and  O_34
REMARK    6  A    between atoms: C_14  and  O_18
REMARK    7  A    between atoms: O_18  and  C_19
REMARK    8  A    between atoms: C_21  and  O_33
REMARK    9  A    between atoms: C_22  and  O_32
REMARK   10  A    between atoms: C_24  and  O_31
REMARK   11  A    between atoms: C_26  and  C_28
REMARK   12  A    between atoms: C_28  and  O_30
REMARK                            x       y       z     vdW  Elec       q    Type
REMARK                         _______ _______ _______ _____ _____    ______ ____
ROOT
ATOM      1  C   UNL     1       7.058  -3.673  24.248  0.00  0.00    +0.181 A 
ATOM      2  O   UNL     1       6.509  -2.433  23.869  0.00  0.00    -0.451 OA
ATOM      3  C   UNL     1       7.353  -1.446  23.389  0.00  0.00    +0.147 A 
ATOM      4  C   UNL     1       8.731  -1.631  23.327  0.00  0.00    +0.109 A 
ATOM      5  C   UNL     1       9.562  -0.628  22.845  0.00  0.00    +0.135 A 
ATOM      6  C   UNL     1       9.025   0.576  22.435  0.00  0.00    +0.092 A 
ATOM      7  C   UNL     1       7.649   0.826  22.525  0.00  0.00    +0.131 A 
ATOM      8  C   UNL     1       9.312  -2.900  23.760  0.00  0.00    +0.238 A 
ATOM      9  O   UNL     1      10.532  -3.053  23.743  0.00  0.00    -0.283 OA
ATOM     10  C   UNL     1       6.806  -0.210  22.975  0.00  0.00    +0.093 A 
ATOM     11  C   UNL     1       8.378  -3.959  24.170  0.00  0.00    +0.208 A 
ENDROOT
BRANCH   1  13
ATOM     12  C   UNL     1       5.931  -5.028  26.081  0.00  0.00    +0.015 A 
ATOM     13  C   UNL     1       6.060  -4.692  24.711  0.00  0.00    +0.025 A 
ATOM     14  C   UNL     1       5.248  -5.378  23.798  0.00  0.00    +0.060 A 
ATOM     15  C   UNL     1       4.430  -6.419  24.240  0.00  0.00    +0.159 A 
ATOM     16  C   UNL     1       4.400  -6.800  25.579  0.00  0.00    +0.158 A 
ATOM     17  C   UNL     1       5.138  -6.097  26.515  0.00  0.00    +0.050 A 
BRANCH  15  18
ATOM     18  O   UNL     1       3.662  -7.096  23.334  0.00  0.00    -0.503 OA
ATOM     19  H   UNL     1       2.879  -6.525  23.198  0.00  0.00    +0.292 HD
ENDBRANCH  15  18
BRANCH  16  20
ATOM     20  O   UNL     1       3.631  -7.875  25.924  0.00  0.00    -0.503 OA
ATOM     21  H   UNL     1       4.019  -8.291  26.714  0.00  0.00    +0.292 HD
ENDBRANCH  16  20
ENDBRANCH   1  13
BRANCH   5  22
ATOM     22  O   UNL     1      10.924  -0.734  22.766  0.00  0.00    -0.506 OA
ATOM     23  H   UNL     1      11.316   0.114  23.081  0.00  0.00    +0.292 HD
ENDBRANCH   5  22
BRANCH  11  24
ATOM     24  O   UNL     1       8.955  -5.193  24.420  0.00  0.00    -0.501 OA
ATOM     25  H   UNL     1       9.642  -5.345  23.752  0.00  0.00    +0.292 HD
ENDBRANCH  11  24
BRANCH   7  26
ATOM     26  O   UNL     1       7.080   2.066  22.239  0.00  0.00    -0.461 OA
BRANCH  26  27
ATOM     27  C   UNL     1       6.809   2.862  23.422  0.00  0.00    +0.340 C 
ATOM     28  O   UNL     1       5.390   3.050  23.558  0.00  0.00    -0.322 OA
ATOM     29  C   UNL     1       4.903   4.038  22.633  0.00  0.00    +0.261 C 
ATOM     30  C   UNL     1       5.401   5.406  23.087  0.00  0.00    +0.185 C 
ATOM     31  C   UNL     1       6.923   5.424  22.895  0.00  0.00    +0.180 C 
ATOM     32  C   UNL     1       7.593   4.201  23.549  0.00  0.00    +0.214 C 
BRANCH  29  33
ATOM     33  C   UNL     1       3.384   3.994  22.565  0.00  0.00    +0.337 C 
ATOM     34  O   UNL     1       2.680   4.884  22.109  0.00  0.00    -0.248 OA
BRANCH  33  35
ATOM     35  O   UNL     1       2.888   2.809  23.007  0.00  0.00    -0.479 OA
ATOM     36  H   UNL     1       3.634   2.171  23.087  0.00  0.00    +0.295 HD
ENDBRANCH  33  35
ENDBRANCH  29  33
BRANCH  30  37
ATOM     37  O   UNL     1       5.108   5.576  24.482  0.00  0.00    -0.386 OA
ATOM     38  H   UNL     1       4.708   6.455  24.606  0.00  0.00    +0.210 HD
ENDBRANCH  30  37
BRANCH  31  39
ATOM     39  O   UNL     1       7.274   5.521  21.513  0.00  0.00    -0.386 OA
ATOM     40  H   UNL     1       8.229   5.708  21.435  0.00  0.00    +0.210 HD
ENDBRANCH  31  39
BRANCH  32  41
ATOM     41  O   UNL     1       8.954   4.069  23.128  0.00  0.00    -0.383 OA
ATOM     42  H   UNL     1       9.371   4.949  23.177  0.00  0.00    +0.210 HD
ENDBRANCH  32  41
ENDBRANCH  26  27
ENDBRANCH   7  26
TORSDOF 12
ENDMDL
MODEL 7
REMARK VINA RESULT:      -7.3      1.798      3.529
REMARK  Name = 
REMARK  12 active torsions:
REMARK  status: ('A' for Active; 'I' for Inactive)
REMARK    1  A    between atoms: C_3  and  O_37
REMARK    2  A    between atoms: C_4  and  O_36
REMARK    3  A    between atoms: C_6  and  C_7
REMARK    4  A    between atoms: C_8  and  O_35
REMARK    5  A    between atoms: C_12  and  O_34
REMARK    6  A    between atoms: C_14  and  O_18
REMARK    7  A    between atoms: O_18  and  C_19
REMARK    8  A    between atoms: C_21  and  O_33
REMARK    9  A    between atoms: C_22  and  O_32
REMARK   10  A    between atoms: C_24  and  O_31
REMARK   11  A    between atoms: C_26  and  C_28
REMARK   12  A    between atoms: C_28  and  O_30
REMARK                            x       y       z     vdW  Elec       q    Type
REMARK                         _______ _______ _______ _____ _____    ______ ____
ROOT
ATOM      1  C   UNL     1       8.385  -0.358  23.895  0.00  0.00    +0.181 A 
ATOM      2  O   UNL     1       7.515  -0.939  24.837  0.00  0.00    -0.451 OA
ATOM      3  C   UNL     1       7.803  -2.200  25.327  0.00  0.00    +0.147 A 
ATOM      4  C   UNL     1       8.897  -2.928  24.870  0.00  0.00    +0.109 A 
ATOM      5  C   UNL     1       9.169  -4.194  25.371  0.00  0.00    +0.135 A 
ATOM      6  C   UNL     1       8.340  -4.753  26.323  0.00  0.00    +0.092 A 
ATOM      7  C   UNL     1       7.199  -4.079  26.778  0.00  0.00    +0.131 A 
ATOM      8  C   UNL     1       9.781  -2.350  23.860  0.00  0.00    +0.238 A 
ATOM      9  O   UNL     1      10.727  -3.004  23.425  0.00  0.00    -0.283 OA
ATOM     10  C   UNL     1       6.952  -2.777  26.298  0.00  0.00    +0.093 A 
ATOM     11  C   UNL     1       9.501  -0.970  23.436  0.00  0.00    +0.208 A 
ENDROOT
BRANCH   1  13
ATOM     12  C   UNL     1       6.812   1.282  22.754  0.00  0.00    +0.015 A 
ATOM     13  C   UNL     1       8.014   1.028  23.459  0.00  0.00    +0.025 A 
ATOM     14  C   UNL     1       8.864   2.115  23.700  0.00  0.00    +0.060 A 
ATOM     15  C   UNL     1       8.563   3.368  23.162  0.00  0.00    +0.159 A 
ATOM     16  C   UNL     1       7.426   3.567  22.382  0.00  0.00    +0.158 A 
ATOM     17  C   UNL     1       6.532   2.530  22.185  0.00  0.00    +0.050 A 
BRANCH  15  18
ATOM     18  O   UNL     1       9.414   4.413  23.384  0.00  0.00    -0.503 OA
ATOM     19  H   UNL     1       9.007   5.168  22.912  0.00  0.00    +0.292 HD
ENDBRANCH  15  18
BRANCH  16  20
ATOM     20  O   UNL     1       7.235   4.801  21.829  0.00  0.00    -0.503 OA
ATOM     21  H   UNL     1       7.094   4.692  20.872  0.00  0.00    +0.292 HD
ENDBRANCH  16  20
ENDBRANCH   1  13
BRANCH   5  22
ATOM     22  O   UNL     1      10.219  -4.972  24.961  0.00  0.00    -0.506 OA
ATOM     23  H   UNL     1      10.836  -4.405  24.443  0.00  0.00    +0.292 HD
ENDBRANCH   5  22
BRANCH  11  24
ATOM     24  O   UNL     1      10.449  -0.403  22.601  0.00  0.00    -0.501 OA
ATOM     25  H   UNL     1      10.772   0.411  23.021  0.00  0.00    +0.292 HD
ENDBRANCH  11  24
BRANCH   7  26
ATOM     26  O   UNL     1       6.270  -4.653  27.644  0.00  0.00    -0.461 OA
BRANCH  26  27
ATOM     27  C   UNL     1       5.806  -5.956  27.209  0.00  0.00    +0.340 C 
ATOM     28  O   UNL     1       5.002  -5.809  26.026  0.00  0.00    -0.322 OA
ATOM     29  C   UNL     1       3.690  -5.313  26.345  0.00  0.00    +0.261 C 
ATOM     30  C   UNL     1       2.920  -6.420  27.058  0.00  0.00    +0.185 C 
ATOM     31  C   UNL     1       3.587  -6.634  28.422  0.00  0.00    +0.180 C 
ATOM     32  C   UNL     1       5.108  -6.837  28.286  0.00  0.00    +0.214 C 
BRANCH  29  33
ATOM     33  C   UNL     1       2.974  -4.863  25.081  0.00  0.00    +0.337 C 
ATOM     34  O   UNL     1       3.502  -4.259  24.157  0.00  0.00    -0.248 OA
BRANCH  33  35
ATOM     35  O   UNL     1       1.680  -5.275  25.053  0.00  0.00    -0.479 OA
ATOM     36  H   UNL     1       1.104  -4.480  24.969  0.00  0.00    +0.295 HD
ENDBRANCH  33  35
ENDBRANCH  29  33
BRANCH  30  37
ATOM     37  O   UNL     1       3.023  -7.633  26.296  0.00  0.00    -0.386 OA
ATOM     38  H   UNL     1       2.316  -7.635  25.627  0.00  0.00    +0.210 HD
ENDBRANCH  30  37
BRANCH  31  39
ATOM     39  O   UNL     1       3.293  -5.562  29.321  0.00  0.00    -0.386 OA
ATOM     40  H   UNL     1       3.093  -5.926  30.204  0.00  0.00    +0.210 HD
ENDBRANCH  31  39
BRANCH  32  41
ATOM     41  O   UNL     1       5.758  -6.748  29.558  0.00  0.00    -0.383 OA
ATOM     42  H   UNL     1       5.138  -7.075  30.236  0.00  0.00    +0.210 HD
ENDBRANCH  32  41
ENDBRANCH  26  27
ENDBRANCH   7  26
TORSDOF 12
ENDMDL
MODEL 8
REMARK VINA RESULT:      -7.1      1.427      2.837
REMARK  Name = 
REMARK  12 active torsions:
REMARK  status: ('A' for Active; 'I' for Inactive)
REMARK    1  A    between atoms: C_3  and  O_37
REMARK    2  A    between atoms: C_4  and  O_36
REMARK    3  A    between atoms: C_6  and  C_7
REMARK    4  A    between atoms: C_8  and  O_35
REMARK    5  A    between atoms: C_12  and  O_34
REMARK    6  A    between atoms: C_14  and  O_18
REMARK    7  A    between atoms: O_18  and  C_19
REMARK    8  A    between atoms: C_21  and  O_33
REMARK    9  A    between atoms: C_22  and  O_32
REMARK   10  A    between atoms: C_24  and  O_31
REMARK   11  A    between atoms: C_26  and  C_28
REMARK   12  A    between atoms: C_28  and  O_30
REMARK                            x       y       z     vdW  Elec       q    Type
REMARK                         _______ _______ _______ _____ _____    ______ ____
ROOT
ATOM      1  C   UNL     1       7.695   1.597  23.197  0.00  0.00    +0.181 A 
ATOM      2  O   UNL     1       7.215   0.741  24.206  0.00  0.00    -0.451 OA
ATOM      3  C   UNL     1       7.837  -0.480  24.402  0.00  0.00    +0.147 A 
ATOM      4  C   UNL     1       8.885  -0.903  23.591  0.00  0.00    +0.109 A 
ATOM      5  C   UNL     1       9.496  -2.132  23.801  0.00  0.00    +0.135 A 
ATOM      6  C   UNL     1       9.053  -2.959  24.814  0.00  0.00    +0.092 A 
ATOM      7  C   UNL     1       7.969  -2.598  25.625  0.00  0.00    +0.131 A 
ATOM      8  C   UNL     1       9.362  -0.039  22.513  0.00  0.00    +0.238 A 
ATOM      9  O   UNL     1      10.263  -0.424  21.770  0.00  0.00    -0.283 OA
ATOM     10  C   UNL     1       7.381  -1.331  25.435  0.00  0.00    +0.093 A 
ATOM     11  C   UNL     1       8.744   1.290  22.398  0.00  0.00    +0.208 A 
ENDROOT
BRANCH   1  13
ATOM     12  C   UNL     1       7.529   4.090  23.665  0.00  0.00    +0.015 A 
ATOM     13  C   UNL     1       6.987   2.914  23.092  0.00  0.00    +0.025 A 
ATOM     14  C   UNL     1       5.742   3.018  22.457  0.00  0.00    +0.060 A 
ATOM     15  C   UNL     1       5.040   4.224  22.496  0.00  0.00    +0.159 A 
ATOM     16  C   UNL     1       5.550   5.340  23.157  0.00  0.00    +0.158 A 
ATOM     17  C   UNL     1       6.806   5.287  23.734  0.00  0.00    +0.050 A 
BRANCH  15  18
ATOM     18  O   UNL     1       3.816   4.305  21.894  0.00  0.00    -0.503 OA
ATOM     19  H   UNL     1       3.764   5.223  21.560  0.00  0.00    +0.292 HD
ENDBRANCH  15  18
BRANCH  16  20
ATOM     20  O   UNL     1       4.774   6.462  23.216  0.00  0.00    -0.503 OA
ATOM     21  H   UNL     1       3.904   6.256  22.831  0.00  0.00    +0.292 HD
ENDBRANCH  16  20
ENDBRANCH   1  13
BRANCH   5  22
ATOM     22  O   UNL     1      10.522  -2.619  23.037  0.00  0.00    -0.506 OA
ATOM     23  H   UNL     1      10.437  -3.600  22.998  0.00  0.00    +0.292 HD
ENDBRANCH   5  22
BRANCH  11  24
ATOM     24  O   UNL     1       9.328   2.137  21.471  0.00  0.00    -0.501 OA
ATOM     25  H   UNL     1       8.729   2.888  21.330  0.00  0.00    +0.292 HD
ENDBRANCH  11  24
BRANCH   7  26
ATOM     26  O   UNL     1       7.412  -3.451  26.576  0.00  0.00    -0.461 OA
BRANCH  26  27
ATOM     27  C   UNL     1       7.204  -4.801  26.087  0.00  0.00    +0.340 C 
ATOM     28  O   UNL     1       6.621  -4.751  24.774  0.00  0.00    -0.322 OA
ATOM     29  C   UNL     1       5.221  -4.428  24.836  0.00  0.00    +0.261 C 
ATOM     30  C   UNL     1       4.478  -5.627  25.415  0.00  0.00    +0.185 C 
ATOM     31  C   UNL     1       4.902  -5.761  26.883  0.00  0.00    +0.180 C 
ATOM     32  C   UNL     1       6.435  -5.769  27.034  0.00  0.00    +0.214 C 
BRANCH  29  33
ATOM     33  C   UNL     1       4.701  -4.068  23.453  0.00  0.00    +0.337 C 
ATOM     34  O   UNL     1       3.827  -4.679  22.856  0.00  0.00    -0.248 OA
BRANCH  33  35
ATOM     35  O   UNL     1       5.271  -2.932  22.974  0.00  0.00    -0.479 OA
ATOM     36  H   UNL     1       5.601  -2.404  23.737  0.00  0.00    +0.295 HD
ENDBRANCH  33  35
ENDBRANCH  29  33
BRANCH  30  37
ATOM     37  O   UNL     1       4.873  -6.814  24.710  0.00  0.00    -0.386 OA
ATOM     38  H   UNL     1       5.781  -6.687  24.381  0.00  0.00    +0.210 HD
ENDBRANCH  30  37
BRANCH  31  39
ATOM     39  O   UNL     1       4.314  -4.739  27.692  0.00  0.00    -0.386 OA
ATOM     40  H   UNL     1       3.601  -4.300  27.190  0.00  0.00    +0.210 HD
ENDBRANCH  31  39
BRANCH  32  41
ATOM     41  O   UNL     1       6.822  -5.603  28.402  0.00  0.00    -0.383 OA
ATOM     42  H   UNL     1       7.766  -5.839  28.478  0.00  0.00    +0.210 HD
ENDBRANCH  32  41
ENDBRANCH  26  27
ENDBRANCH   7  26
TORSDOF 12
ENDMDL
MODEL 9
REMARK VINA RESULT:      -7.1      1.899      9.010
REMARK  Name = 
REMARK  12 active torsions:
REMARK  status: ('A' for Active; 'I' for Inactive)
REMARK    1  A    between atoms: C_3  and  O_37
REMARK    2  A    between atoms: C_4  and  O_36
REMARK    3  A    between atoms: C_6  and  C_7
REMARK    4  A    between atoms: C_8  and  O_35
REMARK    5  A    between atoms: C_12  and  O_34
REMARK    6  A    between atoms: C_14  and  O_18
REMARK    7  A    between atoms: O_18  and  C_19
REMARK    8  A    between atoms: C_21  and  O_33
REMARK    9  A    between atoms: C_22  and  O_32
REMARK   10  A    between atoms: C_24  and  O_31
REMARK   11  A    between atoms: C_26  and  C_28
REMARK   12  A    between atoms: C_28  and  O_30
REMARK                            x       y       z     vdW  Elec       q    Type
REMARK                         _______ _______ _______ _____ _____    ______ ____
ROOT
ATOM      1  C   UNL     1       7.335  -4.257  25.591  0.00  0.00    +0.181 A 
ATOM      2  O   UNL     1       6.619  -3.120  25.169  0.00  0.00    -0.451 OA
ATOM      3  C   UNL     1       7.240  -2.211  24.330  0.00  0.00    +0.147 A 
ATOM      4  C   UNL     1       8.568  -2.363  23.944  0.00  0.00    +0.109 A 
ATOM      5  C   UNL     1       9.176  -1.439  23.104  0.00  0.00    +0.135 A 
ATOM      6  C   UNL     1       8.466  -0.343  22.656  0.00  0.00    +0.092 A 
ATOM      7  C   UNL     1       7.142  -0.120  23.058  0.00  0.00    +0.131 A 
ATOM      8  C   UNL     1       9.331  -3.518  24.413  0.00  0.00    +0.238 A 
ATOM      9  O   UNL     1      10.516  -3.638  24.105  0.00  0.00    -0.283 OA
ATOM     10  C   UNL     1       6.518  -1.084  23.875  0.00  0.00    +0.093 A 
ATOM     11  C   UNL     1       8.611  -4.514  25.220  0.00  0.00    +0.208 A 
ENDROOT
BRANCH   1  13
ATOM     12  C   UNL     1       5.530  -6.015  25.927  0.00  0.00    +0.015 A 
ATOM     13  C   UNL     1       6.563  -5.205  26.458  0.00  0.00    +0.025 A 
ATOM     14  C   UNL     1       6.812  -5.294  27.834  0.00  0.00    +0.060 A 
ATOM     15  C   UNL     1       5.987  -6.080  28.641  0.00  0.00    +0.159 A 
ATOM     16  C   UNL     1       4.910  -6.786  28.109  0.00  0.00    +0.158 A 
ATOM     17  C   UNL     1       4.682  -6.773  26.745  0.00  0.00    +0.050 A 
BRANCH  15  18
ATOM     18  O   UNL     1       6.225  -6.137  29.986  0.00  0.00    -0.503 OA
ATOM     19  H   UNL     1       7.023  -5.586  30.119  0.00  0.00    +0.292 HD
ENDBRANCH  15  18
BRANCH  16  20
ATOM     20  O   UNL     1       4.104  -7.474  28.970  0.00  0.00    -0.503 OA
ATOM     21  H   UNL     1       3.486  -8.016  28.448  0.00  0.00    +0.292 HD
ENDBRANCH  16  20
ENDBRANCH   1  13
BRANCH   5  22
ATOM     22  O   UNL     1      10.479  -1.518  22.692  0.00  0.00    -0.506 OA
ATOM     23  H   UNL     1      10.697  -0.688  22.208  0.00  0.00    +0.292 HD
ENDBRANCH   5  22
BRANCH  11  24
ATOM     24  O   UNL     1       9.320  -5.667  25.511  0.00  0.00    -0.501 OA
ATOM     25  H   UNL     1       8.846  -6.419  25.121  0.00  0.00    +0.292 HD
ENDBRANCH  11  24
BRANCH   7  26
ATOM     26  O   UNL     1       6.431   1.032  22.730  0.00  0.00    -0.461 OA
BRANCH  26  27
ATOM     27  C   UNL     1       6.290   1.958  23.838  0.00  0.00    +0.340 C 
ATOM     28  O   UNL     1       4.923   2.392  23.930  0.00  0.00    -0.322 OA
ATOM     29  C   UNL     1       4.616   3.367  22.918  0.00  0.00    +0.261 C 
ATOM     30  C   UNL     1       5.336   4.665  23.270  0.00  0.00    +0.185 C 
ATOM     31  C   UNL     1       6.840   4.411  23.109  0.00  0.00    +0.180 C 
ATOM     32  C   UNL     1       7.289   3.152  23.873  0.00  0.00    +0.214 C 
BRANCH  29  33
ATOM     33  C   UNL     1       3.112   3.574  22.824  0.00  0.00    +0.337 C 
ATOM     34  O   UNL     1       2.274   2.723  23.084  0.00  0.00    -0.248 OA
BRANCH  33  35
ATOM     35  O   UNL     1       2.793   4.849  22.483  0.00  0.00    -0.479 OA
ATOM     36  H   UNL     1       2.894   4.945  21.508  0.00  0.00    +0.295 HD
ENDBRANCH  33  35
ENDBRANCH  29  33
BRANCH  30  37
ATOM     37  O   UNL     1       5.067   4.998  24.641  0.00  0.00    -0.386 OA
ATOM     38  H   UNL     1       5.241   5.948  24.765  0.00  0.00    +0.210 HD
ENDBRANCH  30  37
BRANCH  31  39
ATOM     39  O   UNL     1       7.211   4.333  21.731  0.00  0.00    -0.386 OA
ATOM     40  H   UNL     1       6.408   4.236  21.185  0.00  0.00    +0.210 HD
ENDBRANCH  31  39
BRANCH  32  41
ATOM     41  O   UNL     1       8.611   2.758  23.492  0.00  0.00    -0.383 OA
ATOM     42  H   UNL     1       8.746   1.837  23.783  0.00  0.00    +0.210 HD
ENDBRANCH  32  41
ENDBRANCH  26  27
ENDBRANCH   7  26
TORSDOF 12
ENDMDL
