MODEL 1
REMARK VINA RESULT:      -7.2      0.000      0.000
REMARK  Name = 
REMARK  13 active torsions:
REMARK  status: ('A' for Active; 'I' for Inactive)
REMARK    1  A    between atoms: C_1  and  O_2
REMARK    2  A    between atoms: O_2  and  C_3
REMARK    3  A    between atoms: C_4  and  O_35
REMARK    4  A    between atoms: C_6  and  C_9
REMARK    5  A    between atoms: C_10  and  O_23
REMARK    6  A    between atoms: C_14  and  O_22
REMARK    7  A    between atoms: C_16  and  O_20
REMARK    8  A    between atoms: O_20  and  C_21
REMARK    9  A    between atoms: O_23  and  C_24
REMARK   10  A    between atoms: C_26  and  O_34
REMARK   11  A    between atoms: C_27  and  O_33
REMARK   12  A    between atoms: C_28  and  O_32
REMARK   13  A    between atoms: O_35  and  C_36
REMARK                            x       y       z     vdW  Elec       q    Type
REMARK                         _______ _______ _______ _____ _____    ______ ____
ROOT
ATOM      1  C   UNL     1       7.736  -2.875  25.056  0.00  0.00    +0.181 A 
ATOM      2  O   UNL     1       8.397  -1.684  25.390  0.00  0.00    -0.451 OA
ATOM      3  C   UNL     1       8.923  -0.883  24.412  0.00  0.00    +0.147 A 
ATOM      4  C   UNL     1       8.876  -1.226  23.075  0.00  0.00    +0.109 A 
ATOM      5  C   UNL     1       9.431  -0.377  22.111  0.00  0.00    +0.135 A 
ATOM      6  C   UNL     1      10.025   0.824  22.484  0.00  0.00    +0.092 A 
ATOM      7  C   UNL     1      10.082   1.178  23.831  0.00  0.00    +0.127 A 
ATOM      8  C   UNL     1       8.245  -2.485  22.713  0.00  0.00    +0.238 A 
ATOM      9  O   UNL     1       8.232  -2.827  21.528  0.00  0.00    -0.283 OA
ATOM     10  C   UNL     1       9.529   0.322  24.794  0.00  0.00    +0.092 A 
ATOM     11  C   UNL     1       7.614  -3.323  23.781  0.00  0.00    +0.214 A 
ENDROOT
BRANCH   1  15
ATOM     12  C   UNL     1       5.859  -5.042  28.243  0.00  0.00    +0.162 A 
ATOM     13  C   UNL     1       7.058  -5.490  27.680  0.00  0.00    +0.050 A 
ATOM     14  C   UNL     1       7.739  -4.719  26.728  0.00  0.00    +0.015 A 
ATOM     15  C   UNL     1       7.232  -3.479  26.317  0.00  0.00    +0.025 A 
ATOM     16  C   UNL     1       6.086  -2.984  26.960  0.00  0.00    +0.061 A 
ATOM     17  C   UNL     1       5.417  -3.748  27.939  0.00  0.00    +0.162 A 
BRANCH  12  19
ATOM     18  C   UNL     1       4.321  -6.839  28.483  0.00  0.00    +0.277 C 
ATOM     19  O   UNL     1       5.253  -5.940  29.084  0.00  0.00    -0.491 OA
ENDBRANCH  12  19
BRANCH  17  20
ATOM     20  O   UNL     1       4.277  -3.280  28.539  0.00  0.00    -0.491 OA
ATOM     21  C   UNL     1       3.408  -2.571  27.659  0.00  0.00    +0.277 C 
ENDBRANCH  17  20
ENDBRANCH   1  15
BRANCH   5  22
ATOM     22  O   UNL     1       9.419  -0.659  20.771  0.00  0.00    -0.506 OA
ATOM     23  H   UNL     1       9.701  -1.595  20.655  0.00  0.00    +0.292 HD
ENDBRANCH   5  22
BRANCH   7  24
ATOM     24  O   UNL     1      10.648   2.329  24.319  0.00  0.00    -0.495 OA
ATOM     25  C   UNL     1      10.957   3.337  23.367  0.00  0.00    +0.277 C 
ENDBRANCH   7  24
BRANCH  11  26
ATOM     26  O   UNL     1       7.006  -4.411  23.232  0.00  0.00    -0.453 OA
BRANCH  26  27
ATOM     27  C   UNL     1       5.858  -4.431  22.410  0.00  0.00    +0.339 C 
ATOM     28  O   UNL     1       4.865  -3.507  22.869  0.00  0.00    -0.337 OA
ATOM     29  C   UNL     1       4.365  -3.805  24.177  0.00  0.00    +0.198 C 
ATOM     30  C   UNL     1       3.707  -5.182  24.226  0.00  0.00    +0.171 C 
ATOM     31  C   UNL     1       4.755  -6.230  23.833  0.00  0.00    +0.180 C 
ATOM     32  C   UNL     1       5.306  -5.888  22.435  0.00  0.00    +0.214 C 
BRANCH  30  33
ATOM     33  O   UNL     1       3.156  -5.418  25.520  0.00  0.00    -0.387 OA
ATOM     34  H   UNL     1       2.624  -4.642  25.776  0.00  0.00    +0.210 HD
ENDBRANCH  30  33
BRANCH  31  35
ATOM     35  O   UNL     1       4.190  -7.547  23.874  0.00  0.00    -0.386 OA
ATOM     36  H   UNL     1       3.279  -7.507  23.532  0.00  0.00    +0.210 HD
ENDBRANCH  31  35
BRANCH  32  37
ATOM     37  O   UNL     1       6.299  -6.842  22.028  0.00  0.00    -0.383 OA
ATOM     38  H   UNL     1       6.054  -7.168  21.142  0.00  0.00    +0.210 HD
ENDBRANCH  32  37
ENDBRANCH  26  27
ENDBRANCH  11  26
TORSDOF 10
ENDMDL
MODEL 2
REMARK VINA RESULT:      -7.1      2.574      4.034
REMARK  Name = 
REMARK  13 active torsions:
REMARK  status: ('A' for Active; 'I' for Inactive)
REMARK    1  A    between atoms: C_1  and  O_2
REMARK    2  A    between atoms: O_2  and  C_3
REMARK    3  A    between atoms: C_4  and  O_35
REMARK    4  A    between atoms: C_6  and  C_9
REMARK    5  A    between atoms: C_10  and  O_23
REMARK    6  A    between atoms: C_14  and  O_22
REMARK    7  A    between atoms: C_16  and  O_20
REMARK    8  A    between atoms: O_20  and  C_21
REMARK    9  A    between atoms: O_23  and  C_24
REMARK   10  A    between atoms: C_26  and  O_34
REMARK   11  A    between atoms: C_27  and  O_33
REMARK   12  A    between atoms: C_28  and  O_32
REMARK   13  A    between atoms: O_35  and  C_36
REMARK                            x       y       z     vdW  Elec       q    Type
REMARK                         _______ _______ _______ _____ _____    ______ ____
ROOT
ATOM      1  C   UNL     1       6.980   0.280  25.985  0.00  0.00    +0.181 A 
ATOM      2  O   UNL     1       6.958   1.667  25.780  0.00  0.00    -0.451 OA
ATOM      3  C   UNL     1       7.982   2.288  25.115  0.00  0.00    +0.147 A 
ATOM      4  C   UNL     1       9.093   1.600  24.667  0.00  0.00    +0.109 A 
ATOM      5  C   UNL     1      10.117   2.277  23.997  0.00  0.00    +0.135 A 
ATOM      6  C   UNL     1      10.025   3.645  23.763  0.00  0.00    +0.092 A 
ATOM      7  C   UNL     1       8.911   4.350  24.215  0.00  0.00    +0.127 A 
ATOM      8  C   UNL     1       9.161   0.169  24.921  0.00  0.00    +0.238 A 
ATOM      9  O   UNL     1      10.165  -0.453  24.565  0.00  0.00    -0.283 OA
ATOM     10  C   UNL     1       7.890   3.668  24.891  0.00  0.00    +0.092 A 
ATOM     11  C   UNL     1       8.007  -0.513  25.589  0.00  0.00    +0.214 A 
ENDROOT
BRANCH   1  15
ATOM     12  C   UNL     1       3.688  -1.437  28.127  0.00  0.00    +0.162 A 
ATOM     13  C   UNL     1       4.637  -0.648  28.784  0.00  0.00    +0.050 A 
ATOM     14  C   UNL     1       5.640   0.018  28.067  0.00  0.00    +0.015 A 
ATOM     15  C   UNL     1       5.716  -0.093  26.672  0.00  0.00    +0.025 A 
ATOM     16  C   UNL     1       4.700  -0.798  26.006  0.00  0.00    +0.061 A 
ATOM     17  C   UNL     1       3.673  -1.444  26.726  0.00  0.00    +0.162 A 
BRANCH  12  19
ATOM     18  C   UNL     1       3.341  -3.285  29.582  0.00  0.00    +0.277 C 
ATOM     19  O   UNL     1       2.828  -2.106  28.960  0.00  0.00    -0.491 OA
ENDBRANCH  12  19
BRANCH  17  20
ATOM     20  O   UNL     1       2.704  -2.164  26.078  0.00  0.00    -0.491 OA
ATOM     21  C   UNL     1       3.130  -3.455  25.650  0.00  0.00    +0.277 C 
ENDBRANCH  17  20
ENDBRANCH   1  15
BRANCH   5  22
ATOM     22  O   UNL     1      11.243   1.655  23.529  0.00  0.00    -0.506 OA
ATOM     23  H   UNL     1      11.903   1.630  24.260  0.00  0.00    +0.292 HD
ENDBRANCH   5  22
BRANCH   7  24
ATOM     24  O   UNL     1       8.714   5.698  24.052  0.00  0.00    -0.495 OA
ATOM     25  C   UNL     1       9.871   6.520  24.102  0.00  0.00    +0.277 C 
ENDBRANCH   7  24
BRANCH  11  26
ATOM     26  O   UNL     1       8.227  -1.855  25.657  0.00  0.00    -0.453 OA
BRANCH  26  27
ATOM     27  C   UNL     1       7.730  -2.853  24.790  0.00  0.00    +0.339 C 
ATOM     28  O   UNL     1       6.553  -3.473  25.321  0.00  0.00    -0.337 OA
ATOM     29  C   UNL     1       6.775  -4.161  26.557  0.00  0.00    +0.198 C 
ATOM     30  C   UNL     1       7.801  -5.280  26.400  0.00  0.00    +0.171 C 
ATOM     31  C   UNL     1       9.119  -4.661  25.921  0.00  0.00    +0.180 C 
ATOM     32  C   UNL     1       8.867  -3.901  24.604  0.00  0.00    +0.214 C 
BRANCH  30  33
ATOM     33  O   UNL     1       7.945  -5.992  27.627  0.00  0.00    -0.387 OA
ATOM     34  H   UNL     1       7.359  -5.584  28.292  0.00  0.00    +0.210 HD
ENDBRANCH  30  33
BRANCH  31  35
ATOM     35  O   UNL     1      10.125  -5.671  25.768  0.00  0.00    -0.386 OA
ATOM     36  H   UNL     1      10.979  -5.310  26.064  0.00  0.00    +0.210 HD
ENDBRANCH  31  35
BRANCH  32  37
ATOM     37  O   UNL     1      10.078  -3.297  24.122  0.00  0.00    -0.383 OA
ATOM     38  H   UNL     1       9.829  -2.543  23.556  0.00  0.00    +0.210 HD
ENDBRANCH  32  37
ENDBRANCH  26  27
ENDBRANCH  11  26
TORSDOF 10
ENDMDL
MODEL 3
REMARK VINA RESULT:      -7.1      2.596      5.372
REMARK  Name = 
REMARK  13 active torsions:
REMARK  status: ('A' for Active; 'I' for Inactive)
REMARK    1  A    between atoms: C_1  and  O_2
REMARK    2  A    between atoms: O_2  and  C_3
REMARK    3  A    between atoms: C_4  and  O_35
REMARK    4  A    between atoms: C_6  and  C_9
REMARK    5  A    between atoms: C_10  and  O_23
REMARK    6  A    between atoms: C_14  and  O_22
REMARK    7  A    between atoms: C_16  and  O_20
REMARK    8  A    between atoms: O_20  and  C_21
REMARK    9  A    between atoms: O_23  and  C_24
REMARK   10  A    between atoms: C_26  and  O_34
REMARK   11  A    between atoms: C_27  and  O_33
REMARK   12  A    between atoms: C_28  and  O_32
REMARK   13  A    between atoms: O_35  and  C_36
REMARK                            x       y       z     vdW  Elec       q    Type
REMARK                         _______ _______ _______ _____ _____    ______ ____
ROOT
ATOM      1  C   UNL     1       8.262   0.027  24.130  0.00  0.00    +0.181 A 
ATOM      2  O   UNL     1       9.329   0.726  23.546  0.00  0.00    -0.451 OA
ATOM      3  C   UNL     1       9.525   2.053  23.822  0.00  0.00    +0.147 A 
ATOM      4  C   UNL     1       8.667   2.771  24.632  0.00  0.00    +0.109 A 
ATOM      5  C   UNL     1       8.904   4.126  24.883  0.00  0.00    +0.135 A 
ATOM      6  C   UNL     1      10.009   4.765  24.329  0.00  0.00    +0.092 A 
ATOM      7  C   UNL     1      10.879   4.051  23.506  0.00  0.00    +0.127 A 
ATOM      8  C   UNL     1       7.522   2.077  25.202  0.00  0.00    +0.238 A 
ATOM      9  O   UNL     1       6.723   2.713  25.893  0.00  0.00    -0.283 OA
ATOM     10  C   UNL     1      10.634   2.694  23.254  0.00  0.00    +0.092 A 
ATOM     11  C   UNL     1       7.353   0.611  24.950  0.00  0.00    +0.214 A 
ENDROOT
BRANCH   1  15
ATOM     12  C   UNL     1       7.970  -4.175  23.334  0.00  0.00    +0.162 A 
ATOM     13  C   UNL     1       7.246  -3.249  22.576  0.00  0.00    +0.050 A 
ATOM     14  C   UNL     1       7.437  -1.872  22.748  0.00  0.00    +0.015 A 
ATOM     15  C   UNL     1       8.357  -1.389  23.688  0.00  0.00    +0.025 A 
ATOM     16  C   UNL     1       9.158  -2.319  24.372  0.00  0.00    +0.061 A 
ATOM     17  C   UNL     1       8.987  -3.705  24.176  0.00  0.00    +0.162 A 
BRANCH  12  19
ATOM     18  C   UNL     1       7.133  -5.810  21.825  0.00  0.00    +0.277 C 
ATOM     19  O   UNL     1       7.613  -5.483  23.130  0.00  0.00    -0.491 OA
ENDBRANCH  12  19
BRANCH  17  20
ATOM     20  O   UNL     1       9.742  -4.612  24.872  0.00  0.00    -0.491 OA
ATOM     21  C   UNL     1       9.285  -4.848  26.202  0.00  0.00    +0.277 C 
ENDBRANCH  17  20
ENDBRANCH   1  15
BRANCH   5  22
ATOM     22  O   UNL     1       8.093   4.894  25.674  0.00  0.00    -0.506 OA
ATOM     23  H   UNL     1       7.305   5.151  25.143  0.00  0.00    +0.292 HD
ENDBRANCH   5  22
BRANCH   7  24
ATOM     24  O   UNL     1      11.993   4.574  22.899  0.00  0.00    -0.495 OA
ATOM     25  C   UNL     1      12.607   5.681  23.542  0.00  0.00    +0.277 C 
ENDBRANCH   7  24
BRANCH  11  26
ATOM     26  O   UNL     1       6.277   0.135  25.634  0.00  0.00    -0.453 OA
BRANCH  26  27
ATOM     27  C   UNL     1       6.280  -0.750  26.735  0.00  0.00    +0.339 C 
ATOM     28  O   UNL     1       6.124  -2.111  26.317  0.00  0.00    -0.337 OA
ATOM     29  C   UNL     1       4.878  -2.371  25.662  0.00  0.00    +0.198 C 
ATOM     30  C   UNL     1       3.691  -2.077  26.577  0.00  0.00    +0.171 C 
ATOM     31  C   UNL     1       3.752  -0.600  26.984  0.00  0.00    +0.180 C 
ATOM     32  C   UNL     1       5.105  -0.323  27.665  0.00  0.00    +0.214 C 
BRANCH  30  33
ATOM     33  O   UNL     1       2.470  -2.415  25.923  0.00  0.00    -0.387 OA
ATOM     34  H   UNL     1       2.392  -1.875  25.115  0.00  0.00    +0.210 HD
ENDBRANCH  30  33
BRANCH  31  35
ATOM     35  O   UNL     1       2.649  -0.268  27.838  0.00  0.00    -0.386 OA
ATOM     36  H   UNL     1       2.539  -0.976  28.497  0.00  0.00    +0.210 HD
ENDBRANCH  31  35
BRANCH  32  37
ATOM     37  O   UNL     1       5.209   1.055  28.058  0.00  0.00    -0.383 OA
ATOM     38  H   UNL     1       5.325   1.588  27.250  0.00  0.00    +0.210 HD
ENDBRANCH  32  37
ENDBRANCH  26  27
ENDBRANCH  11  26
TORSDOF 10
ENDMDL
MODEL 4
REMARK VINA RESULT:      -7.0      2.792      7.410
REMARK  Name = 
REMARK  13 active torsions:
REMARK  status: ('A' for Active; 'I' for Inactive)
REMARK    1  A    between atoms: C_1  and  O_2
REMARK    2  A    between atoms: O_2  and  C_3
REMARK    3  A    between atoms: C_4  and  O_35
REMARK    4  A    between atoms: C_6  and  C_9
REMARK    5  A    between atoms: C_10  and  O_23
REMARK    6  A    between atoms: C_14  and  O_22
REMARK    7  A    between atoms: C_16  and  O_20
REMARK    8  A    between atoms: O_20  and  C_21
REMARK    9  A    between atoms: O_23  and  C_24
REMARK   10  A    between atoms: C_26  and  O_34
REMARK   11  A    between atoms: C_27  and  O_33
REMARK   12  A    between atoms: C_28  and  O_32
REMARK   13  A    between atoms: O_35  and  C_36
REMARK                            x       y       z     vdW  Elec       q    Type
REMARK                         _______ _______ _______ _____ _____    ______ ____
ROOT
ATOM      1  C   UNL     1       5.809  -1.069  24.621  0.00  0.00    +0.181 A 
ATOM      2  O   UNL     1       4.798  -1.974  24.978  0.00  0.00    -0.451 OA
ATOM      3  C   UNL     1       4.673  -3.170  24.324  0.00  0.00    +0.147 A 
ATOM      4  C   UNL     1       5.487  -3.518  23.263  0.00  0.00    +0.109 A 
ATOM      5  C   UNL     1       5.320  -4.749  22.621  0.00  0.00    +0.135 A 
ATOM      6  C   UNL     1       4.342  -5.642  23.048  0.00  0.00    +0.092 A 
ATOM      7  C   UNL     1       3.512  -5.299  24.114  0.00  0.00    +0.127 A 
ATOM      8  C   UNL     1       6.504  -2.567  22.841  0.00  0.00    +0.238 A 
ATOM      9  O   UNL     1       7.212  -2.844  21.869  0.00  0.00    -0.283 OA
ATOM     10  C   UNL     1       3.680  -4.062  24.751  0.00  0.00    +0.092 A 
ATOM     11  C   UNL     1       6.679  -1.292  23.604  0.00  0.00    +0.214 A 
ENDROOT
BRANCH   1  15
ATOM     12  C   UNL     1       6.233   2.455  27.024  0.00  0.00    +0.162 A 
ATOM     13  C   UNL     1       5.630   2.515  25.763  0.00  0.00    +0.050 A 
ATOM     14  C   UNL     1       5.375   1.348  25.032  0.00  0.00    +0.015 A 
ATOM     15  C   UNL     1       5.721   0.091  25.547  0.00  0.00    +0.025 A 
ATOM     16  C   UNL     1       6.228   0.026  26.855  0.00  0.00    +0.061 A 
ATOM     17  C   UNL     1       6.458   1.200  27.603  0.00  0.00    +0.162 A 
BRANCH  12  19
ATOM     18  C   UNL     1       7.286   4.574  26.783  0.00  0.00    +0.277 C 
ATOM     19  O   UNL     1       6.511   3.678  27.581  0.00  0.00    -0.491 OA
ENDBRANCH  12  19
BRANCH  17  20
ATOM     20  O   UNL     1       6.989   1.138  28.864  0.00  0.00    -0.491 OA
ATOM     21  C   UNL     1       6.012   1.090  29.902  0.00  0.00    +0.277 C 
ENDBRANCH  17  20
ENDBRANCH   1  15
BRANCH   5  22
ATOM     22  O   UNL     1       6.091  -5.153  21.565  0.00  0.00    -0.506 OA
ATOM     23  H   UNL     1       5.992  -4.489  20.845  0.00  0.00    +0.292 HD
ENDBRANCH   5  22
BRANCH   7  24
ATOM     24  O   UNL     1       2.510  -6.091  24.617  0.00  0.00    -0.495 OA
ATOM     25  C   UNL     1       2.571  -7.474  24.296  0.00  0.00    +0.277 C 
ENDBRANCH   7  24
BRANCH  11  26
ATOM     26  O   UNL     1       7.730  -0.583  23.108  0.00  0.00    -0.453 OA
BRANCH  26  27
ATOM     27  C   UNL     1       9.089  -0.689  23.477  0.00  0.00    +0.339 C 
ATOM     28  O   UNL     1       9.332  -0.106  24.763  0.00  0.00    -0.337 OA
ATOM     29  C   UNL     1       9.063   1.299  24.816  0.00  0.00    +0.198 C 
ATOM     30  C   UNL     1       9.937   2.075  23.834  0.00  0.00    +0.171 C 
ATOM     31  C   UNL     1       9.650   1.557  22.420  0.00  0.00    +0.180 C 
ATOM     32  C   UNL     1       9.918   0.040  22.378  0.00  0.00    +0.214 C 
BRANCH  30  33
ATOM     33  O   UNL     1       9.699   3.475  23.962  0.00  0.00    -0.387 OA
ATOM     34  H   UNL     1      10.522   3.950  23.746  0.00  0.00    +0.210 HD
ENDBRANCH  30  33
BRANCH  31  35
ATOM     35  O   UNL     1      10.439   2.263  21.454  0.00  0.00    -0.386 OA
ATOM     36  H   UNL     1      10.594   3.168  21.778  0.00  0.00    +0.210 HD
ENDBRANCH  31  35
BRANCH  32  37
ATOM     37  O   UNL     1       9.653  -0.491  21.069  0.00  0.00    -0.383 OA
ATOM     38  H   UNL     1       8.771  -0.906  21.089  0.00  0.00    +0.210 HD
ENDBRANCH  32  37
ENDBRANCH  26  27
ENDBRANCH  11  26
TORSDOF 10
ENDMDL
MODEL 5
REMARK VINA RESULT:      -7.0      2.563      6.958
REMARK  Name = 
REMARK  13 active torsions:
REMARK  status: ('A' for Active; 'I' for Inactive)
REMARK    1  A    between atoms: C_1  and  O_2
REMARK    2  A    between atoms: O_2  and  C_3
REMARK    3  A    between atoms: C_4  and  O_35
REMARK    4  A    between atoms: C_6  and  C_9
REMARK    5  A    between atoms: C_10  and  O_23
REMARK    6  A    between atoms: C_14  and  O_22
REMARK    7  A    between atoms: C_16  and  O_20
REMARK    8  A    between atoms: O_20  and  C_21
REMARK    9  A    between atoms: O_23  and  C_24
REMARK   10  A    between atoms: C_26  and  O_34
REMARK   11  A    between atoms: C_27  and  O_33
REMARK   12  A    between atoms: C_28  and  O_32
REMARK   13  A    between atoms: O_35  and  C_36
REMARK                            x       y       z     vdW  Elec       q    Type
REMARK                         _______ _______ _______ _____ _____    ______ ____
ROOT
ATOM      1  C   UNL     1       6.199  -1.892  24.820  0.00  0.00    +0.181 A 
ATOM      2  O   UNL     1       5.407  -3.019  25.086  0.00  0.00    -0.451 OA
ATOM      3  C   UNL     1       5.541  -4.155  24.335  0.00  0.00    +0.147 A 
ATOM      4  C   UNL     1       6.409  -4.232  23.263  0.00  0.00    +0.109 A 
ATOM      5  C   UNL     1       6.508  -5.413  22.520  0.00  0.00    +0.135 A 
ATOM      6  C   UNL     1       5.746  -6.527  22.857  0.00  0.00    +0.092 A 
ATOM      7  C   UNL     1       4.863  -6.459  23.934  0.00  0.00    +0.127 A 
ATOM      8  C   UNL     1       7.198  -3.054  22.935  0.00  0.00    +0.238 A 
ATOM      9  O   UNL     1       7.946  -3.092  21.956  0.00  0.00    -0.283 OA
ATOM     10  C   UNL     1       4.763  -5.271  24.672  0.00  0.00    +0.092 A 
ATOM     11  C   UNL     1       7.095  -1.838  23.802  0.00  0.00    +0.214 A 
ENDROOT
BRANCH   1  15
ATOM     12  C   UNL     1       4.535   0.836  27.676  0.00  0.00    +0.162 A 
ATOM     13  C   UNL     1       5.032  -0.407  28.078  0.00  0.00    +0.050 A 
ATOM     14  C   UNL     1       5.691  -1.246  27.170  0.00  0.00    +0.015 A 
ATOM     15  C   UNL     1       5.866  -0.858  25.834  0.00  0.00    +0.025 A 
ATOM     16  C   UNL     1       5.461   0.433  25.460  0.00  0.00    +0.061 A 
ATOM     17  C   UNL     1       4.824   1.289  26.382  0.00  0.00    +0.162 A 
BRANCH  12  19
ATOM     18  C   UNL     1       3.906   0.973  29.965  0.00  0.00    +0.277 C 
ATOM     19  O   UNL     1       3.829   1.507  28.642  0.00  0.00    -0.491 OA
ENDBRANCH  12  19
BRANCH  17  20
ATOM     20  O   UNL     1       4.394   2.535  26.006  0.00  0.00    -0.491 OA
ATOM     21  C   UNL     1       4.350   2.731  24.595  0.00  0.00    +0.277 C 
ENDBRANCH  17  20
ENDBRANCH   1  15
BRANCH   5  22
ATOM     22  O   UNL     1       7.347  -5.554  21.447  0.00  0.00    -0.506 OA
ATOM     23  H   UNL     1       7.519  -4.659  21.077  0.00  0.00    +0.292 HD
ENDBRANCH   5  22
BRANCH   7  24
ATOM     24  O   UNL     1       4.055  -7.486  24.355  0.00  0.00    -0.495 OA
ATOM     25  C   UNL     1       3.224  -7.222  25.476  0.00  0.00    +0.277 C 
ENDBRANCH   7  24
BRANCH  11  26
ATOM     26  O   UNL     1       7.969  -0.883  23.382  0.00  0.00    -0.453 OA
BRANCH  26  27
ATOM     27  C   UNL     1       9.344  -0.780  23.690  0.00  0.00    +0.339 C 
ATOM     28  O   UNL     1       9.556  -0.085  24.924  0.00  0.00    -0.337 OA
ATOM     29  C   UNL     1       9.098   1.271  24.905  0.00  0.00    +0.198 C 
ATOM     30  C   UNL     1       9.817   2.092  23.837  0.00  0.00    +0.171 C 
ATOM     31  C   UNL     1       9.547   1.446  22.473  0.00  0.00    +0.180 C 
ATOM     32  C   UNL     1      10.019  -0.020  22.509  0.00  0.00    +0.214 C 
BRANCH  30  33
ATOM     33  O   UNL     1       9.393   3.452  23.892  0.00  0.00    -0.387 OA
ATOM     34  H   UNL     1       9.229   3.687  24.824  0.00  0.00    +0.210 HD
ENDBRANCH  30  33
BRANCH  31  35
ATOM     35  O   UNL     1      10.192   2.187  21.428  0.00  0.00    -0.386 OA
ATOM     36  H   UNL     1       9.745   3.047  21.333  0.00  0.00    +0.210 HD
ENDBRANCH  31  35
BRANCH  32  37
ATOM     37  O   UNL     1       9.778  -0.668  21.250  0.00  0.00    -0.383 OA
ATOM     38  H   UNL     1       9.697  -1.625  21.417  0.00  0.00    +0.210 HD
ENDBRANCH  32  37
ENDBRANCH  26  27
ENDBRANCH  11  26
TORSDOF 10
ENDMDL
MODEL 6
REMARK VINA RESULT:      -6.8      3.008      4.053
REMARK  Name = 
REMARK  13 active torsions:
REMARK  status: ('A' for Active; 'I' for Inactive)
REMARK    1  A    between atoms: C_1  and  O_2
REMARK    2  A    between atoms: O_2  and  C_3
REMARK    3  A    between atoms: C_4  and  O_35
REMARK    4  A    between atoms: C_6  and  C_9
REMARK    5  A    between atoms: C_10  and  O_23
REMARK    6  A    between atoms: C_14  and  O_22
REMARK    7  A    between atoms: C_16  and  O_20
REMARK    8  A    between atoms: O_20  and  C_21
REMARK    9  A    between atoms: O_23  and  C_24
REMARK   10  A    between atoms: C_26  and  O_34
REMARK   11  A    between atoms: C_27  and  O_33
REMARK   12  A    between atoms: C_28  and  O_32
REMARK   13  A    between atoms: O_35  and  C_36
REMARK                            x       y       z     vdW  Elec       q    Type
REMARK                         _______ _______ _______ _____ _____    ______ ____
ROOT
ATOM      1  C   UNL     1       5.832  -0.605  25.221  0.00  0.00    +0.181 A 
ATOM      2  O   UNL     1       5.273   0.636  24.880  0.00  0.00    -0.451 OA
ATOM      3  C   UNL     1       5.906   1.464  23.993  0.00  0.00    +0.147 A 
ATOM      4  C   UNL     1       7.132   1.149  23.437  0.00  0.00    +0.109 A 
ATOM      5  C   UNL     1       7.744   2.028  22.538  0.00  0.00    +0.135 A 
ATOM      6  C   UNL     1       7.125   3.222  22.184  0.00  0.00    +0.092 A 
ATOM      7  C   UNL     1       5.890   3.553  22.742  0.00  0.00    +0.127 A 
ATOM      8  C   UNL     1       7.755  -0.108  23.822  0.00  0.00    +0.238 A 
ATOM      9  O   UNL     1       8.867  -0.385  23.368  0.00  0.00    -0.283 OA
ATOM     10  C   UNL     1       5.283   2.671  23.647  0.00  0.00    +0.092 A 
ATOM     11  C   UNL     1       7.025  -1.038  24.740  0.00  0.00    +0.214 A 
ENDROOT
BRANCH   1  15
ATOM     12  C   UNL     1       3.630  -3.104  27.919  0.00  0.00    +0.162 A 
ATOM     13  C   UNL     1       4.494  -2.114  28.400  0.00  0.00    +0.050 A 
ATOM     14  C   UNL     1       5.115  -1.214  27.525  0.00  0.00    +0.015 A 
ATOM     15  C   UNL     1       4.887  -1.285  26.144  0.00  0.00    +0.025 A 
ATOM     16  C   UNL     1       3.939  -2.209  25.675  0.00  0.00    +0.061 A 
ATOM     17  C   UNL     1       3.292  -3.097  26.560  0.00  0.00    +0.162 A 
BRANCH  12  19
ATOM     18  C   UNL     1       3.873  -3.973  30.118  0.00  0.00    +0.277 C 
ATOM     19  O   UNL     1       3.171  -3.974  28.875  0.00  0.00    -0.491 OA
ENDBRANCH  12  19
BRANCH  17  20
ATOM     20  O   UNL     1       2.396  -4.024  26.096  0.00  0.00    -0.491 OA
ATOM     21  C   UNL     1       3.002  -5.160  25.485  0.00  0.00    +0.277 C 
ENDBRANCH  17  20
ENDBRANCH   1  15
BRANCH   5  22
ATOM     22  O   UNL     1       8.956   1.777  21.954  0.00  0.00    -0.506 OA
ATOM     23  H   UNL     1       9.035   0.805  21.823  0.00  0.00    +0.292 HD
ENDBRANCH   5  22
BRANCH   7  24
ATOM     24  O   UNL     1       5.189   4.702  22.476  0.00  0.00    -0.495 OA
ATOM     25  C   UNL     1       3.777   4.630  22.608  0.00  0.00    +0.277 C 
ENDBRANCH   7  24
BRANCH  11  26
ATOM     26  O   UNL     1       7.732  -2.188  24.909  0.00  0.00    -0.453 OA
BRANCH  26  27
ATOM     27  C   UNL     1       7.609  -3.389  24.175  0.00  0.00    +0.339 C 
ATOM     28  O   UNL     1       6.516  -4.185  24.648  0.00  0.00    -0.337 OA
ATOM     29  C   UNL     1       6.665  -4.616  26.004  0.00  0.00    +0.198 C 
ATOM     30  C   UNL     1       7.914  -5.475  26.186  0.00  0.00    +0.171 C 
ATOM     31  C   UNL     1       9.135  -4.639  25.783  0.00  0.00    +0.180 C 
ATOM     32  C   UNL     1       8.955  -4.157  24.331  0.00  0.00    +0.214 C 
BRANCH  30  33
ATOM     33  O   UNL     1       7.994  -5.949  27.528  0.00  0.00    -0.387 OA
ATOM     34  H   UNL     1       7.342  -5.465  28.067  0.00  0.00    +0.210 HD
ENDBRANCH  30  33
BRANCH  31  35
ATOM     35  O   UNL     1      10.340  -5.398  25.947  0.00  0.00    -0.386 OA
ATOM     36  H   UNL     1      10.115  -6.265  26.327  0.00  0.00    +0.210 HD
ENDBRANCH  31  35
BRANCH  32  37
ATOM     37  O   UNL     1      10.076  -3.362  23.913  0.00  0.00    -0.383 OA
ATOM     38  H   UNL     1       9.737  -2.492  23.634  0.00  0.00    +0.210 HD
ENDBRANCH  32  37
ENDBRANCH  26  27
ENDBRANCH  11  26
TORSDOF 10
ENDMDL
MODEL 7
REMARK VINA RESULT:      -6.8      2.819      4.415
REMARK  Name = 
REMARK  13 active torsions:
REMARK  status: ('A' for Active; 'I' for Inactive)
REMARK    1  A    between atoms: C_1  and  O_2
REMARK    2  A    between atoms: O_2  and  C_3
REMARK    3  A    between atoms: C_4  and  O_35
REMARK    4  A    between atoms: C_6  and  C_9
REMARK    5  A    between atoms: C_10  and  O_23
REMARK    6  A    between atoms: C_14  and  O_22
REMARK    7  A    between atoms: C_16  and  O_20
REMARK    8  A    between atoms: O_20  and  C_21
REMARK    9  A    between atoms: O_23  and  C_24
REMARK   10  A    between atoms: C_26  and  O_34
REMARK   11  A    between atoms: C_27  and  O_33
REMARK   12  A    between atoms: C_28  and  O_32
REMARK   13  A    between atoms: O_35  and  C_36
REMARK                            x       y       z     vdW  Elec       q    Type
REMARK                         _______ _______ _______ _____ _____    ______ ____
ROOT
ATOM      1  C   UNL     1       7.106   0.287  26.264  0.00  0.00    +0.181 A 
ATOM      2  O   UNL     1       7.048   1.680  26.110  0.00  0.00    -0.451 OA
ATOM      3  C   UNL     1       7.970   2.333  25.337  0.00  0.00    +0.147 A 
ATOM      4  C   UNL     1       9.017   1.673  24.724  0.00  0.00    +0.109 A 
ATOM      5  C   UNL     1       9.939   2.383  23.948  0.00  0.00    +0.135 A 
ATOM      6  C   UNL     1       9.808   3.757  23.774  0.00  0.00    +0.092 A 
ATOM      7  C   UNL     1       8.758   4.434  24.392  0.00  0.00    +0.127 A 
ATOM      8  C   UNL     1       9.128   0.236  24.919  0.00  0.00    +0.238 A 
ATOM      9  O   UNL     1      10.080  -0.363  24.414  0.00  0.00    -0.283 OA
ATOM     10  C   UNL     1       7.840   3.719  25.174  0.00  0.00    +0.092 A 
ATOM     11  C   UNL     1       8.078  -0.481  25.710  0.00  0.00    +0.214 A 
ENDROOT
BRANCH   1  15
ATOM     12  C   UNL     1       3.438  -0.266  28.412  0.00  0.00    +0.162 A 
ATOM     13  C   UNL     1       3.609  -0.806  27.133  0.00  0.00    +0.050 A 
ATOM     14  C   UNL     1       4.848  -0.737  26.482  0.00  0.00    +0.015 A 
ATOM     15  C   UNL     1       5.946  -0.122  27.099  0.00  0.00    +0.025 A 
ATOM     16  C   UNL     1       5.801   0.324  28.423  0.00  0.00    +0.061 A 
ATOM     17  C   UNL     1       4.561   0.228  29.088  0.00  0.00    +0.162 A 
BRANCH  12  19
ATOM     18  C   UNL     1       1.380  -1.454  28.492  0.00  0.00    +0.277 C 
ATOM     19  O   UNL     1       2.152  -0.319  28.886  0.00  0.00    -0.491 OA
ENDBRANCH  12  19
BRANCH  17  20
ATOM     20  O   UNL     1       4.410   0.698  30.367  0.00  0.00    -0.491 OA
ATOM     21  C   UNL     1       4.325   2.118  30.455  0.00  0.00    +0.277 C 
ENDBRANCH  17  20
ENDBRANCH   1  15
BRANCH   5  22
ATOM     22  O   UNL     1      10.998   1.790  23.315  0.00  0.00    -0.506 OA
ATOM     23  H   UNL     1      11.100   2.212  22.432  0.00  0.00    +0.292 HD
ENDBRANCH   5  22
BRANCH   7  24
ATOM     24  O   UNL     1       8.531   5.785  24.301  0.00  0.00    -0.495 OA
ATOM     25  C   UNL     1       9.675   6.625  24.348  0.00  0.00    +0.277 C 
ENDBRANCH   7  24
BRANCH  11  26
ATOM     26  O   UNL     1       8.314  -1.821  25.704  0.00  0.00    -0.453 OA
BRANCH  26  27
ATOM     27  C   UNL     1       7.768  -2.787  24.830  0.00  0.00    +0.339 C 
ATOM     28  O   UNL     1       6.583  -3.380  25.374  0.00  0.00    -0.337 OA
ATOM     29  C   UNL     1       6.808  -4.097  26.592  0.00  0.00    +0.198 C 
ATOM     30  C   UNL     1       7.795  -5.245  26.393  0.00  0.00    +0.171 C 
ATOM     31  C   UNL     1       9.122  -4.658  25.898  0.00  0.00    +0.180 C 
ATOM     32  C   UNL     1       8.867  -3.867  24.601  0.00  0.00    +0.214 C 
BRANCH  30  33
ATOM     33  O   UNL     1       7.942  -5.984  27.604  0.00  0.00    -0.387 OA
ATOM     34  H   UNL     1       8.525  -6.746  27.433  0.00  0.00    +0.210 HD
ENDBRANCH  30  33
BRANCH  31  35
ATOM     35  O   UNL     1      10.092  -5.696  25.705  0.00  0.00    -0.386 OA
ATOM     36  H   UNL     1      10.134  -5.912  24.757  0.00  0.00    +0.210 HD
ENDBRANCH  31  35
BRANCH  32  37
ATOM     37  O   UNL     1      10.086  -3.291  24.103  0.00  0.00    -0.383 OA
ATOM     38  H   UNL     1      10.609  -4.006  23.696  0.00  0.00    +0.210 HD
ENDBRANCH  32  37
ENDBRANCH  26  27
ENDBRANCH  11  26
TORSDOF 10
ENDMDL
MODEL 8
REMARK VINA RESULT:      -6.8      1.841      2.592
REMARK  Name = 
REMARK  13 active torsions:
REMARK  status: ('A' for Active; 'I' for Inactive)
REMARK    1  A    between atoms: C_1  and  O_2
REMARK    2  A    between atoms: O_2  and  C_3
REMARK    3  A    between atoms: C_4  and  O_35
REMARK    4  A    between atoms: C_6  and  C_9
REMARK    5  A    between atoms: C_10  and  O_23
REMARK    6  A    between atoms: C_14  and  O_22
REMARK    7  A    between atoms: C_16  and  O_20
REMARK    8  A    between atoms: O_20  and  C_21
REMARK    9  A    between atoms: O_23  and  C_24
REMARK   10  A    between atoms: C_26  and  O_34
REMARK   11  A    between atoms: C_27  and  O_33
REMARK   12  A    between atoms: C_28  and  O_32
REMARK   13  A    between atoms: O_35  and  C_36
REMARK                            x       y       z     vdW  Elec       q    Type
REMARK                         _______ _______ _______ _____ _____    ______ ____
ROOT
ATOM      1  C   UNL     1       6.811  -1.079  25.257  0.00  0.00    +0.181 A 
ATOM      2  O   UNL     1       7.562   0.103  25.336  0.00  0.00    -0.451 OA
ATOM      3  C   UNL     1       8.422   0.449  24.328  0.00  0.00    +0.147 A 
ATOM      4  C   UNL     1       8.629  -0.360  23.227  0.00  0.00    +0.109 A 
ATOM      5  C   UNL     1       9.522   0.032  22.224  0.00  0.00    +0.135 A 
ATOM      6  C   UNL     1      10.202   1.242  22.315  0.00  0.00    +0.092 A 
ATOM      7  C   UNL     1      10.004   2.064  23.424  0.00  0.00    +0.127 A 
ATOM      8  C   UNL     1       7.902  -1.617  23.155  0.00  0.00    +0.238 A 
ATOM      9  O   UNL     1       8.107  -2.371  22.200  0.00  0.00    -0.283 OA
ATOM     10  C   UNL     1       9.112   1.664  24.430  0.00  0.00    +0.092 A 
ATOM     11  C   UNL     1       6.914  -1.956  24.227  0.00  0.00    +0.214 A 
ENDROOT
BRANCH   1  15
ATOM     12  C   UNL     1       3.783  -1.539  28.256  0.00  0.00    +0.162 A 
ATOM     13  C   UNL     1       4.708  -2.558  28.009  0.00  0.00    +0.050 A 
ATOM     14  C   UNL     1       5.775  -2.362  27.122  0.00  0.00    +0.015 A 
ATOM     15  C   UNL     1       5.938  -1.138  26.458  0.00  0.00    +0.025 A 
ATOM     16  C   UNL     1       5.071  -0.083  26.788  0.00  0.00    +0.061 A 
ATOM     17  C   UNL     1       4.015  -0.272  27.704  0.00  0.00    +0.162 A 
BRANCH  12  19
ATOM     18  C   UNL     1       1.749  -2.748  28.484  0.00  0.00    +0.277 C 
ATOM     19  O   UNL     1       2.739  -1.901  29.069  0.00  0.00    -0.491 OA
ENDBRANCH  12  19
BRANCH  17  20
ATOM     20  O   UNL     1       3.146   0.746  27.996  0.00  0.00    -0.491 OA
ATOM     21  C   UNL     1       3.556   1.562  29.090  0.00  0.00    +0.277 C 
ENDBRANCH  17  20
ENDBRANCH   1  15
BRANCH   5  22
ATOM     22  O   UNL     1       9.773  -0.722  21.110  0.00  0.00    -0.506 OA
ATOM     23  H   UNL     1      10.560  -0.342  20.657  0.00  0.00    +0.292 HD
ENDBRANCH   5  22
BRANCH   7  24
ATOM     24  O   UNL     1      10.622   3.272  23.629  0.00  0.00    -0.495 OA
ATOM     25  C   UNL     1       9.777   4.409  23.735  0.00  0.00    +0.277 C 
ENDBRANCH   7  24
BRANCH  11  26
ATOM     26  O   UNL     1       6.281  -3.125  23.935  0.00  0.00    -0.453 OA
BRANCH  26  27
ATOM     27  C   UNL     1       4.934  -3.301  23.547  0.00  0.00    +0.339 C 
ATOM     28  O   UNL     1       4.175  -3.962  24.565  0.00  0.00    -0.337 OA
ATOM     29  C   UNL     1       4.632  -5.288  24.852  0.00  0.00    +0.198 C 
ATOM     30  C   UNL     1       4.552  -6.188  23.621  0.00  0.00    +0.171 C 
ATOM     31  C   UNL     1       5.426  -5.577  22.520  0.00  0.00    +0.180 C 
ATOM     32  C   UNL     1       4.944  -4.142  22.235  0.00  0.00    +0.214 C 
BRANCH  30  33
ATOM     33  O   UNL     1       4.944  -7.517  23.957  0.00  0.00    -0.387 OA
ATOM     34  H   UNL     1       5.802  -7.479  24.418  0.00  0.00    +0.210 HD
ENDBRANCH  30  33
BRANCH  31  35
ATOM     35  O   UNL     1       5.395  -6.392  21.342  0.00  0.00    -0.386 OA
ATOM     36  H   UNL     1       6.310  -6.596  21.078  0.00  0.00    +0.210 HD
ENDBRANCH  31  35
BRANCH  32  37
ATOM     37  O   UNL     1       5.742  -3.526  21.212  0.00  0.00    -0.383 OA
ATOM     38  H   UNL     1       6.423  -4.168  20.938  0.00  0.00    +0.210 HD
ENDBRANCH  32  37
ENDBRANCH  26  27
ENDBRANCH  11  26
TORSDOF 10
ENDMDL
MODEL 9
REMARK VINA RESULT:      -6.7      4.055      8.837
REMARK  Name = 
REMARK  13 active torsions:
REMARK  status: ('A' for Active; 'I' for Inactive)
REMARK    1  A    between atoms: C_1  and  O_2
REMARK    2  A    between atoms: O_2  and  C_3
REMARK    3  A    between atoms: C_4  and  O_35
REMARK    4  A    between atoms: C_6  and  C_9
REMARK    5  A    between atoms: C_10  and  O_23
REMARK    6  A    between atoms: C_14  and  O_22
REMARK    7  A    between atoms: C_16  and  O_20
REMARK    8  A    between atoms: O_20  and  C_21
REMARK    9  A    between atoms: O_23  and  C_24
REMARK   10  A    between atoms: C_26  and  O_34
REMARK   11  A    between atoms: C_27  and  O_33
REMARK   12  A    between atoms: C_28  and  O_32
REMARK   13  A    between atoms: O_35  and  C_36
REMARK                            x       y       z     vdW  Elec       q    Type
REMARK                         _______ _______ _______ _____ _____    ______ ____
ROOT
ATOM      1  C   UNL     1       8.395   1.705  24.025  0.00  0.00    +0.181 A 
ATOM      2  O   UNL     1       9.206   0.562  24.083  0.00  0.00    -0.451 OA
ATOM      3  C   UNL     1       8.656  -0.669  24.322  0.00  0.00    +0.147 A 
ATOM      4  C   UNL     1       7.307  -0.838  24.567  0.00  0.00    +0.109 A 
ATOM      5  C   UNL     1       6.790  -2.114  24.812  0.00  0.00    +0.135 A 
ATOM      6  C   UNL     1       7.623  -3.228  24.801  0.00  0.00    +0.092 A 
ATOM      7  C   UNL     1       8.987  -3.069  24.560  0.00  0.00    +0.127 A 
ATOM      8  C   UNL     1       6.458   0.344  24.568  0.00  0.00    +0.238 A 
ATOM      9  O   UNL     1       5.259   0.216  24.826  0.00  0.00    -0.283 OA
ATOM     10  C   UNL     1       9.501  -1.787  24.321  0.00  0.00    +0.092 A 
ATOM     11  C   UNL     1       7.055   1.676  24.239  0.00  0.00    +0.214 A 
ENDROOT
BRANCH   1  15
ATOM     12  C   UNL     1      11.275   4.863  23.698  0.00  0.00    +0.162 A 
ATOM     13  C   UNL     1      11.515   3.611  23.123  0.00  0.00    +0.050 A 
ATOM     14  C   UNL     1      10.525   2.620  23.118  0.00  0.00    +0.015 A 
ATOM     15  C   UNL     1       9.269   2.860  23.691  0.00  0.00    +0.025 A 
ATOM     16  C   UNL     1       8.995   4.151  24.172  0.00  0.00    +0.061 A 
ATOM     17  C   UNL     1       9.982   5.158  24.151  0.00  0.00    +0.162 A 
BRANCH  12  19
ATOM     18  C   UNL     1      13.225   5.639  22.582  0.00  0.00    +0.277 C 
ATOM     19  O   UNL     1      12.363   5.699  23.719  0.00  0.00    -0.491 OA
ENDBRANCH  12  19
BRANCH  17  20
ATOM     20  O   UNL     1       9.726   6.406  24.655  0.00  0.00    -0.491 OA
ATOM     21  C   UNL     1       9.087   6.396  25.929  0.00  0.00    +0.277 C 
ENDBRANCH  17  20
ENDBRANCH   1  15
BRANCH   5  22
ATOM     22  O   UNL     1       5.465  -2.350  25.062  0.00  0.00    -0.506 OA
ATOM     23  H   UNL     1       4.964  -2.184  24.231  0.00  0.00    +0.292 HD
ENDBRANCH   5  22
BRANCH   7  24
ATOM     24  O   UNL     1       9.905  -4.089  24.533  0.00  0.00    -0.495 OA
ATOM     25  C   UNL     1       9.709  -5.145  25.462  0.00  0.00    +0.277 C 
ENDBRANCH   7  24
BRANCH  11  26
ATOM     26  O   UNL     1       6.088   2.634  24.209  0.00  0.00    -0.453 OA
BRANCH  26  27
ATOM     27  C   UNL     1       5.251   2.977  23.125  0.00  0.00    +0.339 C 
ATOM     28  O   UNL     1       5.806   4.044  22.348  0.00  0.00    -0.337 OA
ATOM     29  C   UNL     1       5.954   5.267  23.077  0.00  0.00    +0.198 C 
ATOM     30  C   UNL     1       4.611   5.781  23.590  0.00  0.00    +0.171 C 
ATOM     31  C   UNL     1       4.008   4.713  24.510  0.00  0.00    +0.180 C 
ATOM     32  C   UNL     1       3.875   3.393  23.726  0.00  0.00    +0.214 C 
BRANCH  30  33
ATOM     33  O   UNL     1       4.782   7.035  24.247  0.00  0.00    -0.387 OA
ATOM     34  H   UNL     1       4.223   7.697  23.800  0.00  0.00    +0.210 HD
ENDBRANCH  30  33
BRANCH  31  35
ATOM     35  O   UNL     1       2.746   5.151  25.031  0.00  0.00    -0.386 OA
ATOM     36  H   UNL     1       2.838   5.298  25.989  0.00  0.00    +0.210 HD
ENDBRANCH  31  35
BRANCH  32  37
ATOM     37  O   UNL     1       3.319   2.359  24.553  0.00  0.00    -0.383 OA
ATOM     38  H   UNL     1       3.586   1.500  24.177  0.00  0.00    +0.210 HD
ENDBRANCH  32  37
ENDBRANCH  26  27
ENDBRANCH  11  26
TORSDOF 10
ENDMDL
