MODEL 1
REMARK VINA RESULT:      -7.4      0.000      0.000
REMARK  Name = 
REMARK  14 active torsions:
REMARK  status: ('A' for Active; 'I' for Inactive)
REMARK    1  A    between atoms: C_1  and  C_2
REMARK    2  A    between atoms: C_2  and  O_4
REMARK    3  A    between atoms: O_4  and  C_5
REMARK    4  A    between atoms: C_5  and  C_6
REMARK    5  A    between atoms: C_7  and  O_36
REMARK    6  A    between atoms: C_8  and  O_35
REMARK    7  A    between atoms: C_9  and  O_34
REMARK    8  A    between atoms: C_10  and  O_12
REMARK    9  A    between atoms: O_12  and  C_13
REMARK   10  A    between atoms: C_14  and  C_26
REMARK   11  A    between atoms: C_18  and  O_25
REMARK   12  A    between atoms: C_20  and  O_24
REMARK   13  A    between atoms: C_28  and  O_33
REMARK   14  A    between atoms: C_29  and  O_32
REMARK                            x       y       z     vdW  Elec       q    Type
REMARK                         _______ _______ _______ _____ _____    ______ ____
ROOT
ATOM      1  C   UNL     1       8.028  -2.639  25.107  0.00  0.00    +0.214 A 
ATOM      2  C   UNL     1       8.867  -1.431  25.425  0.00  0.00    +0.238 A 
ATOM      3  O   UNL     1       9.302  -1.222  26.553  0.00  0.00    -0.283 OA
ATOM      4  C   UNL     1       9.108  -0.455  24.359  0.00  0.00    +0.109 A 
ATOM      5  C   UNL     1       8.367  -0.584  23.192  0.00  0.00    +0.147 A 
ATOM      6  C   UNL     1       8.487   0.372  22.179  0.00  0.00    +0.092 A 
ATOM      7  C   UNL     1       9.359   1.442  22.349  0.00  0.00    +0.124 A 
ATOM      8  C   UNL     1      10.126   1.569  23.502  0.00  0.00    +0.091 A 
ATOM      9  O   UNL     1       7.487  -1.614  22.981  0.00  0.00    -0.451 OA
ATOM     10  C   UNL     1      10.005   0.614  24.506  0.00  0.00    +0.135 A 
ATOM     11  C   UNL     1       7.376  -2.640  23.922  0.00  0.00    +0.181 A 
ENDROOT
BRANCH  11  12
ATOM     12  C   UNL     1       6.406  -3.702  23.490  0.00  0.00    +0.025 A 
ATOM     13  C   UNL     1       5.022  -3.497  23.681  0.00  0.00    +0.015 A 
ATOM     14  C   UNL     1       4.074  -4.456  23.295  0.00  0.00    +0.050 A 
ATOM     15  C   UNL     1       4.500  -5.638  22.716  0.00  0.00    +0.158 A 
ATOM     16  C   UNL     1       5.853  -5.868  22.513  0.00  0.00    +0.159 A 
ATOM     17  C   UNL     1       6.802  -4.910  22.881  0.00  0.00    +0.060 A 
BRANCH  15  18
ATOM     18  O   UNL     1       3.583  -6.579  22.349  0.00  0.00    -0.503 OA
ATOM     19  H   UNL     1       4.049  -7.136  21.692  0.00  0.00    +0.292 HD
ENDBRANCH  15  18
BRANCH  16  20
ATOM     20  O   UNL     1       6.214  -7.060  21.948  0.00  0.00    -0.503 OA
ATOM     21  H   UNL     1       5.876  -7.082  21.035  0.00  0.00    +0.292 HD
ENDBRANCH  16  20
ENDBRANCH  11  12
BRANCH   7  22
ATOM     22  O   UNL     1       9.506   2.404  21.400  0.00  0.00    -0.507 OA
ATOM     23  H   UNL     1       9.025   2.150  20.603  0.00  0.00    +0.292 HD
ENDBRANCH   7  22
BRANCH  10  24
ATOM     24  O   UNL     1      10.789   0.732  25.618  0.00  0.00    -0.506 OA
ATOM     25  H   UNL     1      11.432   0.005  25.654  0.00  0.00    +0.292 HD
ENDBRANCH  10  24
BRANCH   1  26
ATOM     26  O   UNL     1       7.875  -3.683  26.021  0.00  0.00    -0.453 OA
BRANCH  26  29
ATOM     27  C   UNL     1       4.868  -3.618  28.113  0.00  0.00    +0.191 C 
ATOM     28  O   UNL     1       6.196  -3.311  27.619  0.00  0.00    -0.330 OA
ATOM     29  C   UNL     1       6.550  -4.054  26.433  0.00  0.00    +0.340 C 
ATOM     30  C   UNL     1       6.537  -5.568  26.764  0.00  0.00    +0.214 C 
ATOM     31  C   UNL     1       5.164  -5.977  27.288  0.00  0.00    +0.180 C 
ATOM     32  C   UNL     1       4.778  -5.105  28.493  0.00  0.00    +0.178 C 
BRANCH  30  33
ATOM     33  O   UNL     1       7.504  -5.893  27.795  0.00  0.00    -0.383 OA
ATOM     34  H   UNL     1       7.549  -5.118  28.390  0.00  0.00    +0.210 HD
ENDBRANCH  30  33
BRANCH  31  35
ATOM     35  O   UNL     1       5.162  -7.351  27.698  0.00  0.00    -0.386 OA
ATOM     36  H   UNL     1       5.615  -7.364  28.568  0.00  0.00    +0.210 HD
ENDBRANCH  31  35
BRANCH  32  37
ATOM     37  O   UNL     1       3.461  -5.424  28.947  0.00  0.00    -0.386 OA
ATOM     38  H   UNL     1       3.227  -6.291  28.562  0.00  0.00    +0.210 HD
ENDBRANCH  32  37
BRANCH  27  39
ATOM     39  C   UNL     1       3.721  -3.236  27.145  0.00  0.00    +0.266 C 
BRANCH  39  40
ATOM     40  O   UNL     1       3.184  -1.939  27.433  0.00  0.00    -0.462 OA
BRANCH  40  42
ATOM     41  C   UNL     1       4.134   0.099  28.077  0.00  0.00    +0.136 C 
ATOM     42  C   UNL     1       3.942  -0.902  26.984  0.00  0.00    +0.304 C 
ATOM     43  O   UNL     1       4.425  -0.805  25.865  0.00  0.00    -0.251 OA
ENDBRANCH  40  42
ENDBRANCH  39  40
ENDBRANCH  27  39
ENDBRANCH  26  29
ENDBRANCH   1  26
TORSDOF 13
ENDMDL
MODEL 2
REMARK VINA RESULT:      -7.2      2.803      8.324
REMARK  Name = 
REMARK  14 active torsions:
REMARK  status: ('A' for Active; 'I' for Inactive)
REMARK    1  A    between atoms: C_1  and  C_2
REMARK    2  A    between atoms: C_2  and  O_4
REMARK    3  A    between atoms: O_4  and  C_5
REMARK    4  A    between atoms: C_5  and  C_6
REMARK    5  A    between atoms: C_7  and  O_36
REMARK    6  A    between atoms: C_8  and  O_35
REMARK    7  A    between atoms: C_9  and  O_34
REMARK    8  A    between atoms: C_10  and  O_12
REMARK    9  A    between atoms: O_12  and  C_13
REMARK   10  A    between atoms: C_14  and  C_26
REMARK   11  A    between atoms: C_18  and  O_25
REMARK   12  A    between atoms: C_20  and  O_24
REMARK   13  A    between atoms: C_28  and  O_33
REMARK   14  A    between atoms: C_29  and  O_32
REMARK                            x       y       z     vdW  Elec       q    Type
REMARK                         _______ _______ _______ _____ _____    ______ ____
ROOT
ATOM      1  C   UNL     1       6.549  -0.129  24.847  0.00  0.00    +0.214 A 
ATOM      2  C   UNL     1       6.830  -1.304  23.949  0.00  0.00    +0.238 A 
ATOM      3  O   UNL     1       6.566  -1.282  22.751  0.00  0.00    -0.283 OA
ATOM      4  C   UNL     1       7.379  -2.521  24.553  0.00  0.00    +0.109 A 
ATOM      5  C   UNL     1       7.392  -2.600  25.939  0.00  0.00    +0.147 A 
ATOM      6  C   UNL     1       7.817  -3.774  26.568  0.00  0.00    +0.092 A 
ATOM      7  C   UNL     1       8.231  -4.852  25.793  0.00  0.00    +0.124 A 
ATOM      8  C   UNL     1       8.247  -4.778  24.405  0.00  0.00    +0.091 A 
ATOM      9  O   UNL     1       6.983  -1.569  26.746  0.00  0.00    -0.451 OA
ATOM     10  C   UNL     1       7.826  -3.607  23.784  0.00  0.00    +0.135 A 
ATOM     11  C   UNL     1       6.618  -0.345  26.181  0.00  0.00    +0.181 A 
ENDROOT
BRANCH  11  12
ATOM     12  C   UNL     1       6.257   0.674  27.223  0.00  0.00    +0.025 A 
ATOM     13  C   UNL     1       4.896   0.923  27.507  0.00  0.00    +0.015 A 
ATOM     14  C   UNL     1       4.503   1.863  28.471  0.00  0.00    +0.050 A 
ATOM     15  C   UNL     1       5.468   2.571  29.162  0.00  0.00    +0.158 A 
ATOM     16  C   UNL     1       6.814   2.347  28.908  0.00  0.00    +0.159 A 
ATOM     17  C   UNL     1       7.213   1.402  27.959  0.00  0.00    +0.060 A 
BRANCH  15  18
ATOM     18  O   UNL     1       5.092   3.494  30.093  0.00  0.00    -0.503 OA
ATOM     19  H   UNL     1       4.119   3.398  30.159  0.00  0.00    +0.292 HD
ENDBRANCH  15  18
BRANCH  16  20
ATOM     20  O   UNL     1       7.722   3.088  29.614  0.00  0.00    -0.503 OA
ATOM     21  H   UNL     1       7.245   3.800  30.076  0.00  0.00    +0.292 HD
ENDBRANCH  16  20
ENDBRANCH  11  12
BRANCH   7  22
ATOM     22  O   UNL     1       8.643  -6.020  26.354  0.00  0.00    -0.507 OA
ATOM     23  H   UNL     1       8.625  -6.723  25.692  0.00  0.00    +0.292 HD
ENDBRANCH   7  22
BRANCH  10  24
ATOM     24  O   UNL     1       7.879  -3.534  22.421  0.00  0.00    -0.506 OA
ATOM     25  H   UNL     1       7.472  -4.323  22.028  0.00  0.00    +0.292 HD
ENDBRANCH  10  24
BRANCH   1  26
ATOM     26  O   UNL     1       6.166   1.110  24.331  0.00  0.00    -0.453 OA
BRANCH  26  29
ATOM     27  C   UNL     1       9.053   3.362  24.235  0.00  0.00    +0.191 C 
ATOM     28  O   UNL     1       8.009   2.500  24.753  0.00  0.00    -0.330 OA
ATOM     29  C   UNL     1       7.162   1.946  23.724  0.00  0.00    +0.340 C 
ATOM     30  C   UNL     1       6.453   3.104  22.977  0.00  0.00    +0.214 C 
ATOM     31  C   UNL     1       7.489   4.060  22.392  0.00  0.00    +0.180 C 
ATOM     32  C   UNL     1       8.431   4.559  23.499  0.00  0.00    +0.178 C 
BRANCH  30  33
ATOM     33  O   UNL     1       5.615   3.877  23.873  0.00  0.00    -0.383 OA
ATOM     34  H   UNL     1       4.754   3.989  23.424  0.00  0.00    +0.210 HD
ENDBRANCH  30  33
BRANCH  31  35
ATOM     35  O   UNL     1       6.852   5.195  21.787  0.00  0.00    -0.386 OA
ATOM     36  H   UNL     1       6.012   4.853  21.413  0.00  0.00    +0.210 HD
ENDBRANCH  31  35
BRANCH  32  37
ATOM     37  O   UNL     1       9.453   5.395  22.953  0.00  0.00    -0.386 OA
ATOM     38  H   UNL     1       9.304   6.295  23.301  0.00  0.00    +0.210 HD
ENDBRANCH  32  37
BRANCH  27  39
ATOM     39  C   UNL     1      10.083   2.645  23.328  0.00  0.00    +0.266 C 
BRANCH  39  40
ATOM     40  O   UNL     1      10.864   1.687  24.053  0.00  0.00    -0.462 OA
BRANCH  40  42
ATOM     41  C   UNL     1      10.168   0.011  22.577  0.00  0.00    +0.136 C 
ATOM     42  C   UNL     1      10.387   0.414  24.000  0.00  0.00    +0.304 C 
ATOM     43  O   UNL     1      10.189  -0.314  24.963  0.00  0.00    -0.251 OA
ENDBRANCH  40  42
ENDBRANCH  39  40
ENDBRANCH  27  39
ENDBRANCH  26  29
ENDBRANCH   1  26
TORSDOF 13
ENDMDL
MODEL 3
REMARK VINA RESULT:      -7.2      1.732      4.775
REMARK  Name = 
REMARK  14 active torsions:
REMARK  status: ('A' for Active; 'I' for Inactive)
REMARK    1  A    between atoms: C_1  and  C_2
REMARK    2  A    between atoms: C_2  and  O_4
REMARK    3  A    between atoms: O_4  and  C_5
REMARK    4  A    between atoms: C_5  and  C_6
REMARK    5  A    between atoms: C_7  and  O_36
REMARK    6  A    between atoms: C_8  and  O_35
REMARK    7  A    between atoms: C_9  and  O_34
REMARK    8  A    between atoms: C_10  and  O_12
REMARK    9  A    between atoms: O_12  and  C_13
REMARK   10  A    between atoms: C_14  and  C_26
REMARK   11  A    between atoms: C_18  and  O_25
REMARK   12  A    between atoms: C_20  and  O_24
REMARK   13  A    between atoms: C_28  and  O_33
REMARK   14  A    between atoms: C_29  and  O_32
REMARK                            x       y       z     vdW  Elec       q    Type
REMARK                         _______ _______ _______ _____ _____    ______ ____
ROOT
ATOM      1  C   UNL     1       7.456  -1.951  25.831  0.00  0.00    +0.214 A 
ATOM      2  C   UNL     1       8.591  -2.108  24.855  0.00  0.00    +0.238 A 
ATOM      3  O   UNL     1       9.348  -3.073  24.890  0.00  0.00    -0.283 OA
ATOM      4  C   UNL     1       8.820  -1.037  23.880  0.00  0.00    +0.109 A 
ATOM      5  C   UNL     1       8.127   0.153  24.062  0.00  0.00    +0.147 A 
ATOM      6  C   UNL     1       8.376   1.241  23.219  0.00  0.00    +0.092 A 
ATOM      7  C   UNL     1       9.312   1.115  22.198  0.00  0.00    +0.124 A 
ATOM      8  C   UNL     1       9.993  -0.079  21.991  0.00  0.00    +0.091 A 
ATOM      9  O   UNL     1       7.203   0.331  25.059  0.00  0.00    -0.451 OA
ATOM     10  C   UNL     1       9.741  -1.159  22.830  0.00  0.00    +0.135 A 
ATOM     11  C   UNL     1       6.856  -0.739  25.887  0.00  0.00    +0.181 A 
ENDROOT
BRANCH  11  12
ATOM     12  C   UNL     1       5.791  -0.367  26.878  0.00  0.00    +0.025 A 
ATOM     13  C   UNL     1       6.150   0.329  28.053  0.00  0.00    +0.015 A 
ATOM     14  C   UNL     1       5.195   0.702  29.010  0.00  0.00    +0.050 A 
ATOM     15  C   UNL     1       3.867   0.378  28.807  0.00  0.00    +0.158 A 
ATOM     16  C   UNL     1       3.482  -0.303  27.660  0.00  0.00    +0.159 A 
ATOM     17  C   UNL     1       4.426  -0.665  26.695  0.00  0.00    +0.060 A 
BRANCH  15  18
ATOM     18  O   UNL     1       2.935   0.728  29.740  0.00  0.00    -0.503 OA
ATOM     19  H   UNL     1       3.078   1.686  29.885  0.00  0.00    +0.292 HD
ENDBRANCH  15  18
BRANCH  16  20
ATOM     20  O   UNL     1       2.156  -0.608  27.521  0.00  0.00    -0.503 OA
ATOM     21  H   UNL     1       1.990  -0.835  26.589  0.00  0.00    +0.292 HD
ENDBRANCH  16  20
ENDBRANCH  11  12
BRANCH   7  22
ATOM     22  O   UNL     1       9.599   2.144  21.359  0.00  0.00    -0.507 OA
ATOM     23  H   UNL     1       9.570   1.835  20.444  0.00  0.00    +0.292 HD
ENDBRANCH   7  22
BRANCH  10  24
ATOM     24  O   UNL     1      10.392  -2.337  22.593  0.00  0.00    -0.506 OA
ATOM     25  H   UNL     1      11.199  -2.176  22.078  0.00  0.00    +0.292 HD
ENDBRANCH  10  24
BRANCH   1  26
ATOM     26  O   UNL     1       7.083  -2.986  26.689  0.00  0.00    -0.453 OA
BRANCH  26  29
ATOM     27  C   UNL     1       4.556  -4.959  24.917  0.00  0.00    +0.191 C 
ATOM     28  O   UNL     1       5.233  -3.824  25.512  0.00  0.00    -0.330 OA
ATOM     29  C   UNL     1       6.490  -4.169  26.132  0.00  0.00    +0.340 C 
ATOM     30  C   UNL     1       6.227  -5.180  27.276  0.00  0.00    +0.214 C 
ATOM     31  C   UNL     1       5.518  -6.416  26.729  0.00  0.00    +0.180 C 
ATOM     32  C   UNL     1       4.232  -6.004  25.996  0.00  0.00    +0.178 C 
BRANCH  30  33
ATOM     33  O   UNL     1       5.369  -4.612  28.299  0.00  0.00    -0.383 OA
ATOM     34  H   UNL     1       5.914  -4.529  29.106  0.00  0.00    +0.210 HD
ENDBRANCH  30  33
BRANCH  31  35
ATOM     35  O   UNL     1       5.172  -7.318  27.790  0.00  0.00    -0.386 OA
ATOM     36  H   UNL     1       4.512  -6.838  28.334  0.00  0.00    +0.210 HD
ENDBRANCH  31  35
BRANCH  32  37
ATOM     37  O   UNL     1       3.597  -7.144  25.412  0.00  0.00    -0.386 OA
ATOM     38  H   UNL     1       2.965  -6.811  24.746  0.00  0.00    +0.210 HD
ENDBRANCH  32  37
BRANCH  27  39
ATOM     39  C   UNL     1       5.321  -5.615  23.741  0.00  0.00    +0.266 C 
BRANCH  39  40
ATOM     40  O   UNL     1       4.975  -5.029  22.480  0.00  0.00    -0.462 OA
BRANCH  40  42
ATOM     41  C   UNL     1       7.161  -4.240  22.221  0.00  0.00    +0.136 C 
ATOM     42  C   UNL     1       6.004  -4.947  21.594  0.00  0.00    +0.304 C 
ATOM     43  O   UNL     1       6.005  -5.405  20.460  0.00  0.00    -0.251 OA
ENDBRANCH  40  42
ENDBRANCH  39  40
ENDBRANCH  27  39
ENDBRANCH  26  29
ENDBRANCH   1  26
TORSDOF 13
ENDMDL
MODEL 4
REMARK VINA RESULT:      -7.1      1.755      4.348
REMARK  Name = 
REMARK  14 active torsions:
REMARK  status: ('A' for Active; 'I' for Inactive)
REMARK    1  A    between atoms: C_1  and  C_2
REMARK    2  A    between atoms: C_2  and  O_4
REMARK    3  A    between atoms: O_4  and  C_5
REMARK    4  A    between atoms: C_5  and  C_6
REMARK    5  A    between atoms: C_7  and  O_36
REMARK    6  A    between atoms: C_8  and  O_35
REMARK    7  A    between atoms: C_9  and  O_34
REMARK    8  A    between atoms: C_10  and  O_12
REMARK    9  A    between atoms: O_12  and  C_13
REMARK   10  A    between atoms: C_14  and  C_26
REMARK   11  A    between atoms: C_18  and  O_25
REMARK   12  A    between atoms: C_20  and  O_24
REMARK   13  A    between atoms: C_28  and  O_33
REMARK   14  A    between atoms: C_29  and  O_32
REMARK                            x       y       z     vdW  Elec       q    Type
REMARK                         _______ _______ _______ _____ _____    ______ ____
ROOT
ATOM      1  C   UNL     1       7.477  -2.574  24.999  0.00  0.00    +0.214 A 
ATOM      2  C   UNL     1       8.658  -2.368  24.090  0.00  0.00    +0.238 A 
ATOM      3  O   UNL     1       9.562  -3.194  24.004  0.00  0.00    -0.283 OA
ATOM      4  C   UNL     1       8.746  -1.112  23.341  0.00  0.00    +0.109 A 
ATOM      5  C   UNL     1       7.861  -0.098  23.684  0.00  0.00    +0.147 A 
ATOM      6  C   UNL     1       7.959   1.153  23.067  0.00  0.00    +0.092 A 
ATOM      7  C   UNL     1       8.942   1.366  22.106  0.00  0.00    +0.124 A 
ATOM      8  C   UNL     1       9.818   0.352  21.736  0.00  0.00    +0.091 A 
ATOM      9  O   UNL     1       6.882  -0.255  24.631  0.00  0.00    -0.451 OA
ATOM     10  C   UNL     1       9.714  -0.892  22.350  0.00  0.00    +0.135 A 
ATOM     11  C   UNL     1       6.685  -1.501  25.230  0.00  0.00    +0.181 A 
ENDROOT
BRANCH  11  12
ATOM     12  C   UNL     1       5.535  -1.490  26.196  0.00  0.00    +0.025 A 
ATOM     13  C   UNL     1       5.720  -0.946  27.486  0.00  0.00    +0.015 A 
ATOM     14  C   UNL     1       4.680  -0.910  28.427  0.00  0.00    +0.050 A 
ATOM     15  C   UNL     1       3.441  -1.422  28.091  0.00  0.00    +0.158 A 
ATOM     16  C   UNL     1       3.227  -1.960  26.829  0.00  0.00    +0.159 A 
ATOM     17  C   UNL     1       4.255  -1.986  25.882  0.00  0.00    +0.060 A 
BRANCH  15  18
ATOM     18  O   UNL     1       2.429  -1.399  29.005  0.00  0.00    -0.503 OA
ATOM     19  H   UNL     1       1.659  -1.047  28.514  0.00  0.00    +0.292 HD
ENDBRANCH  15  18
BRANCH  16  20
ATOM     20  O   UNL     1       1.984  -2.463  26.559  0.00  0.00    -0.503 OA
ATOM     21  H   UNL     1       1.970  -2.764  25.633  0.00  0.00    +0.292 HD
ENDBRANCH  16  20
ENDBRANCH  11  12
BRANCH   7  22
ATOM     22  O   UNL     1       9.088   2.565  21.485  0.00  0.00    -0.507 OA
ATOM     23  H   UNL     1       8.242   3.030  21.471  0.00  0.00    +0.292 HD
ENDBRANCH   7  22
BRANCH  10  24
ATOM     24  O   UNL     1      10.558  -1.890  21.952  0.00  0.00    -0.506 OA
ATOM     25  H   UNL     1      11.207  -1.547  21.317  0.00  0.00    +0.292 HD
ENDBRANCH  10  24
BRANCH   1  26
ATOM     26  O   UNL     1       7.246  -3.796  25.632  0.00  0.00    -0.453 OA
BRANCH  26  29
ATOM     27  C   UNL     1       4.943  -6.644  25.687  0.00  0.00    +0.191 C 
ATOM     28  O   UNL     1       6.094  -5.812  25.976  0.00  0.00    -0.330 OA
ATOM     29  C   UNL     1       6.072  -4.546  25.283  0.00  0.00    +0.340 C 
ATOM     30  C   UNL     1       6.084  -4.807  23.756  0.00  0.00    +0.214 C 
ATOM     31  C   UNL     1       4.892  -5.677  23.365  0.00  0.00    +0.180 C 
ATOM     32  C   UNL     1       4.895  -6.975  24.187  0.00  0.00    +0.178 C 
BRANCH  30  33
ATOM     33  O   UNL     1       7.283  -5.515  23.349  0.00  0.00    -0.383 OA
ATOM     34  H   UNL     1       7.281  -5.528  22.371  0.00  0.00    +0.210 HD
ENDBRANCH  30  33
BRANCH  31  35
ATOM     35  O   UNL     1       4.943  -6.017  21.972  0.00  0.00    -0.386 OA
ATOM     36  H   UNL     1       5.197  -5.190  21.511  0.00  0.00    +0.210 HD
ENDBRANCH  31  35
BRANCH  32  37
ATOM     37  O   UNL     1       3.743  -7.765  23.887  0.00  0.00    -0.386 OA
ATOM     38  H   UNL     1       4.023  -8.700  23.901  0.00  0.00    +0.210 HD
ENDBRANCH  32  37
BRANCH  27  39
ATOM     39  C   UNL     1       3.591  -6.050  26.154  0.00  0.00    +0.266 C 
BRANCH  39  40
ATOM     40  O   UNL     1       3.110  -6.680  27.348  0.00  0.00    -0.462 OA
BRANCH  40  42
ATOM     41  C   UNL     1       3.773  -5.010  28.845  0.00  0.00    +0.136 C 
ATOM     42  C   UNL     1       3.870  -6.449  28.453  0.00  0.00    +0.304 C 
ATOM     43  O   UNL     1       4.517  -7.289  29.060  0.00  0.00    -0.251 OA
ENDBRANCH  40  42
ENDBRANCH  39  40
ENDBRANCH  27  39
ENDBRANCH  26  29
ENDBRANCH   1  26
TORSDOF 13
ENDMDL
MODEL 5
REMARK VINA RESULT:      -7.0      2.017      3.990
REMARK  Name = 
REMARK  14 active torsions:
REMARK  status: ('A' for Active; 'I' for Inactive)
REMARK    1  A    between atoms: C_1  and  C_2
REMARK    2  A    between atoms: C_2  and  O_4
REMARK    3  A    between atoms: O_4  and  C_5
REMARK    4  A    between atoms: C_5  and  C_6
REMARK    5  A    between atoms: C_7  and  O_36
REMARK    6  A    between atoms: C_8  and  O_35
REMARK    7  A    between atoms: C_9  and  O_34
REMARK    8  A    between atoms: C_10  and  O_12
REMARK    9  A    between atoms: O_12  and  C_13
REMARK   10  A    between atoms: C_14  and  C_26
REMARK   11  A    between atoms: C_18  and  O_25
REMARK   12  A    between atoms: C_20  and  O_24
REMARK   13  A    between atoms: C_28  and  O_33
REMARK   14  A    between atoms: C_29  and  O_32
REMARK                            x       y       z     vdW  Elec       q    Type
REMARK                         _______ _______ _______ _____ _____    ______ ____
ROOT
ATOM      1  C   UNL     1       6.449   0.114  24.318  0.00  0.00    +0.214 A 
ATOM      2  C   UNL     1       6.605   1.603  24.470  0.00  0.00    +0.238 A 
ATOM      3  O   UNL     1       5.662   2.326  24.777  0.00  0.00    -0.283 OA
ATOM      4  C   UNL     1       7.913   2.196  24.180  0.00  0.00    +0.109 A 
ATOM      5  C   UNL     1       8.861   1.388  23.566  0.00  0.00    +0.147 A 
ATOM      6  C   UNL     1      10.093   1.926  23.180  0.00  0.00    +0.092 A 
ATOM      7  C   UNL     1      10.359   3.269  23.426  0.00  0.00    +0.124 A 
ATOM      8  C   UNL     1       9.429   4.082  24.062  0.00  0.00    +0.091 A 
ATOM      9  O   UNL     1       8.643   0.062  23.293  0.00  0.00    -0.451 OA
ATOM     10  C   UNL     1       8.206   3.542  24.446  0.00  0.00    +0.135 A 
ATOM     11  C   UNL     1       7.463  -0.552  23.719  0.00  0.00    +0.181 A 
ENDROOT
BRANCH  11  12
ATOM     12  C   UNL     1       7.430  -2.014  23.378  0.00  0.00    +0.025 A 
ATOM     13  C   UNL     1       6.550  -2.473  22.374  0.00  0.00    +0.015 A 
ATOM     14  C   UNL     1       6.481  -3.827  22.016  0.00  0.00    +0.050 A 
ATOM     15  C   UNL     1       7.289  -4.743  22.663  0.00  0.00    +0.158 A 
ATOM     16  C   UNL     1       8.167  -4.323  23.653  0.00  0.00    +0.159 A 
ATOM     17  C   UNL     1       8.252  -2.973  24.004  0.00  0.00    +0.060 A 
BRANCH  15  18
ATOM     18  O   UNL     1       7.218  -6.064  22.327  0.00  0.00    -0.503 OA
ATOM     19  H   UNL     1       6.380  -6.376  22.725  0.00  0.00    +0.292 HD
ENDBRANCH  15  18
BRANCH  16  20
ATOM     20  O   UNL     1       8.931  -5.277  24.266  0.00  0.00    -0.503 OA
ATOM     21  H   UNL     1       8.496  -5.530  25.099  0.00  0.00    +0.292 HD
ENDBRANCH  16  20
ENDBRANCH  11  12
BRANCH   7  22
ATOM     22  O   UNL     1      11.536   3.843  23.062  0.00  0.00    -0.507 OA
ATOM     23  H   UNL     1      11.856   4.408  23.776  0.00  0.00    +0.292 HD
ENDBRANCH   7  22
BRANCH  10  24
ATOM     24  O   UNL     1       7.314   4.344  25.102  0.00  0.00    -0.506 OA
ATOM     25  H   UNL     1       7.098   3.965  25.969  0.00  0.00    +0.292 HD
ENDBRANCH  10  24
BRANCH   1  26
ATOM     26  O   UNL     1       5.283  -0.542  24.714  0.00  0.00    -0.453 OA
BRANCH  26  29
ATOM     27  C   UNL     1       4.261  -3.033  27.199  0.00  0.00    +0.191 C 
ATOM     28  O   UNL     1       4.360  -2.317  25.941  0.00  0.00    -0.330 OA
ATOM     29  C   UNL     1       5.251  -1.182  25.999  0.00  0.00    +0.340 C 
ATOM     30  C   UNL     1       4.713  -0.173  27.045  0.00  0.00    +0.214 C 
ATOM     31  C   UNL     1       4.585  -0.849  28.406  0.00  0.00    +0.180 C 
ATOM     32  C   UNL     1       3.706  -2.105  28.291  0.00  0.00    +0.178 C 
BRANCH  30  33
ATOM     33  O   UNL     1       3.396   0.314  26.682  0.00  0.00    -0.383 OA
ATOM     34  H   UNL     1       2.818  -0.471  26.608  0.00  0.00    +0.210 HD
ENDBRANCH  30  33
BRANCH  31  35
ATOM     35  O   UNL     1       3.990   0.038  29.364  0.00  0.00    -0.386 OA
ATOM     36  H   UNL     1       4.294   0.936  29.110  0.00  0.00    +0.210 HD
ENDBRANCH  31  35
BRANCH  32  37
ATOM     37  O   UNL     1       3.640  -2.792  29.542  0.00  0.00    -0.386 OA
ATOM     38  H   UNL     1       3.876  -3.724  29.372  0.00  0.00    +0.210 HD
ENDBRANCH  32  37
BRANCH  27  39
ATOM     39  C   UNL     1       5.584  -3.689  27.667  0.00  0.00    +0.266 C 
BRANCH  39  40
ATOM     40  O   UNL     1       5.509  -5.120  27.651  0.00  0.00    -0.462 OA
BRANCH  40  42
ATOM     41  C   UNL     1       5.398  -6.086  25.524  0.00  0.00    +0.136 C 
ATOM     42  C   UNL     1       6.262  -5.714  26.686  0.00  0.00    +0.304 C 
ATOM     43  O   UNL     1       7.470  -5.897  26.736  0.00  0.00    -0.251 OA
ENDBRANCH  40  42
ENDBRANCH  39  40
ENDBRANCH  27  39
ENDBRANCH  26  29
ENDBRANCH   1  26
TORSDOF 13
ENDMDL
MODEL 6
REMARK VINA RESULT:      -6.9      2.716      6.868
REMARK  Name = 
REMARK  14 active torsions:
REMARK  status: ('A' for Active; 'I' for Inactive)
REMARK    1  A    between atoms: C_1  and  C_2
REMARK    2  A    between atoms: C_2  and  O_4
REMARK    3  A    between atoms: O_4  and  C_5
REMARK    4  A    between atoms: C_5  and  C_6
REMARK    5  A    between atoms: C_7  and  O_36
REMARK    6  A    between atoms: C_8  and  O_35
REMARK    7  A    between atoms: C_9  and  O_34
REMARK    8  A    between atoms: C_10  and  O_12
REMARK    9  A    between atoms: O_12  and  C_13
REMARK   10  A    between atoms: C_14  and  C_26
REMARK   11  A    between atoms: C_18  and  O_25
REMARK   12  A    between atoms: C_20  and  O_24
REMARK   13  A    between atoms: C_28  and  O_33
REMARK   14  A    between atoms: C_29  and  O_32
REMARK                            x       y       z     vdW  Elec       q    Type
REMARK                         _______ _______ _______ _____ _____    ______ ____
ROOT
ATOM      1  C   UNL     1       7.929  -1.578  25.499  0.00  0.00    +0.214 A 
ATOM      2  C   UNL     1       7.340  -2.949  25.693  0.00  0.00    +0.238 A 
ATOM      3  O   UNL     1       7.215  -3.449  26.807  0.00  0.00    -0.283 OA
ATOM      4  C   UNL     1       6.969  -3.719  24.503  0.00  0.00    +0.109 A 
ATOM      5  C   UNL     1       7.390  -3.237  23.271  0.00  0.00    +0.147 A 
ATOM      6  C   UNL     1       7.146  -3.978  22.110  0.00  0.00    +0.092 A 
ATOM      7  C   UNL     1       6.473  -5.192  22.204  0.00  0.00    +0.124 A 
ATOM      8  C   UNL     1       6.024  -5.674  23.428  0.00  0.00    +0.091 A 
ATOM      9  O   UNL     1       8.065  -2.053  23.127  0.00  0.00    -0.451 OA
ATOM     10  C   UNL     1       6.267  -4.932  24.579  0.00  0.00    +0.135 A 
ATOM     11  C   UNL     1       8.275  -1.231  24.237  0.00  0.00    +0.181 A 
ENDROOT
BRANCH  11  12
ATOM     12  C   UNL     1       8.980   0.044  23.873  0.00  0.00    +0.025 A 
ATOM     13  C   UNL     1      10.288   0.274  24.353  0.00  0.00    +0.015 A 
ATOM     14  C   UNL     1      10.991   1.447  24.042  0.00  0.00    +0.050 A 
ATOM     15  C   UNL     1      10.393   2.409  23.250  0.00  0.00    +0.158 A 
ATOM     16  C   UNL     1       9.110   2.210  22.760  0.00  0.00    +0.159 A 
ATOM     17  C   UNL     1       8.408   1.038  23.054  0.00  0.00    +0.060 A 
BRANCH  15  18
ATOM     18  O   UNL     1      11.069   3.557  22.953  0.00  0.00    -0.503 OA
ATOM     19  H   UNL     1      10.426   4.101  22.454  0.00  0.00    +0.292 HD
ENDBRANCH  15  18
BRANCH  16  20
ATOM     20  O   UNL     1       8.565   3.203  21.993  0.00  0.00    -0.503 OA
ATOM     21  H   UNL     1       9.254   3.540  21.393  0.00  0.00    +0.292 HD
ENDBRANCH  16  20
ENDBRANCH  11  12
BRANCH   7  22
ATOM     22  O   UNL     1       6.219  -5.956  21.109  0.00  0.00    -0.507 OA
ATOM     23  H   UNL     1       5.548  -5.529  20.563  0.00  0.00    +0.292 HD
ENDBRANCH   7  22
BRANCH  10  24
ATOM     24  O   UNL     1       5.790  -5.399  25.771  0.00  0.00    -0.506 OA
ATOM     25  H   UNL     1       5.198  -4.745  26.175  0.00  0.00    +0.292 HD
ENDBRANCH  10  24
BRANCH   1  26
ATOM     26  O   UNL     1       8.171  -0.727  26.577  0.00  0.00    -0.453 OA
BRANCH  26  29
ATOM     27  C   UNL     1       6.868   2.697  26.572  0.00  0.00    +0.191 C 
ATOM     28  O   UNL     1       7.750   1.570  26.339  0.00  0.00    -0.330 OA
ATOM     29  C   UNL     1       7.234   0.324  26.855  0.00  0.00    +0.340 C 
ATOM     30  C   UNL     1       7.063   0.447  28.391  0.00  0.00    +0.214 C 
ATOM     31  C   UNL     1       6.138   1.613  28.723  0.00  0.00    +0.180 C 
ATOM     32  C   UNL     1       6.667   2.906  28.082  0.00  0.00    +0.178 C 
BRANCH  30  33
ATOM     33  O   UNL     1       8.332   0.706  29.045  0.00  0.00    -0.383 OA
ATOM     34  H   UNL     1       8.137   1.275  29.816  0.00  0.00    +0.210 HD
ENDBRANCH  30  33
BRANCH  31  35
ATOM     35  O   UNL     1       6.051   1.809  30.141  0.00  0.00    -0.386 OA
ATOM     36  H   UNL     1       6.309   2.743  30.292  0.00  0.00    +0.210 HD
ENDBRANCH  31  35
BRANCH  32  37
ATOM     37  O   UNL     1       5.770   3.992  28.320  0.00  0.00    -0.386 OA
ATOM     38  H   UNL     1       4.885   3.705  28.022  0.00  0.00    +0.210 HD
ENDBRANCH  32  37
BRANCH  27  39
ATOM     39  C   UNL     1       5.500   2.597  25.853  0.00  0.00    +0.266 C 
BRANCH  39  40
ATOM     40  O   UNL     1       5.156   3.815  25.180  0.00  0.00    -0.462 OA
BRANCH  40  42
ATOM     41  C   UNL     1       5.152   3.043  22.972  0.00  0.00    +0.136 C 
ATOM     42  C   UNL     1       5.755   3.979  23.970  0.00  0.00    +0.304 C 
ATOM     43  O   UNL     1       6.637   4.787  23.715  0.00  0.00    -0.251 OA
ENDBRANCH  40  42
ENDBRANCH  39  40
ENDBRANCH  27  39
ENDBRANCH  26  29
ENDBRANCH   1  26
TORSDOF 13
ENDMDL
MODEL 7
REMARK VINA RESULT:      -6.8      2.009      6.165
REMARK  Name = 
REMARK  14 active torsions:
REMARK  status: ('A' for Active; 'I' for Inactive)
REMARK    1  A    between atoms: C_1  and  C_2
REMARK    2  A    between atoms: C_2  and  O_4
REMARK    3  A    between atoms: O_4  and  C_5
REMARK    4  A    between atoms: C_5  and  C_6
REMARK    5  A    between atoms: C_7  and  O_36
REMARK    6  A    between atoms: C_8  and  O_35
REMARK    7  A    between atoms: C_9  and  O_34
REMARK    8  A    between atoms: C_10  and  O_12
REMARK    9  A    between atoms: O_12  and  C_13
REMARK   10  A    between atoms: C_14  and  C_26
REMARK   11  A    between atoms: C_18  and  O_25
REMARK   12  A    between atoms: C_20  and  O_24
REMARK   13  A    between atoms: C_28  and  O_33
REMARK   14  A    between atoms: C_29  and  O_32
REMARK                            x       y       z     vdW  Elec       q    Type
REMARK                         _______ _______ _______ _____ _____    ______ ____
ROOT
ATOM      1  C   UNL     1       7.363  -1.585  24.973  0.00  0.00    +0.214 A 
ATOM      2  C   UNL     1       7.171  -3.056  25.229  0.00  0.00    +0.238 A 
ATOM      3  O   UNL     1       7.487  -3.575  26.295  0.00  0.00    -0.283 OA
ATOM      4  C   UNL     1       6.649  -3.887  24.141  0.00  0.00    +0.109 A 
ATOM      5  C   UNL     1       6.578  -3.316  22.877  0.00  0.00    +0.147 A 
ATOM      6  C   UNL     1       6.175  -4.090  21.784  0.00  0.00    +0.092 A 
ATOM      7  C   UNL     1       5.841  -5.426  21.978  0.00  0.00    +0.124 A 
ATOM      8  C   UNL     1       5.884  -6.002  23.242  0.00  0.00    +0.091 A 
ATOM      9  O   UNL     1       6.906  -2.008  22.632  0.00  0.00    -0.451 OA
ATOM     10  C   UNL     1       6.282  -5.228  24.327  0.00  0.00    +0.135 A 
ATOM     11  C   UNL     1       7.243  -1.164  23.693  0.00  0.00    +0.181 A 
ENDROOT
BRANCH  11  12
ATOM     12  C   UNL     1       7.515   0.240  23.235  0.00  0.00    +0.025 A 
ATOM     13  C   UNL     1       6.545   1.242  23.456  0.00  0.00    +0.015 A 
ATOM     14  C   UNL     1       6.749   2.569  23.049  0.00  0.00    +0.050 A 
ATOM     15  C   UNL     1       7.926   2.911  22.411  0.00  0.00    +0.158 A 
ATOM     16  C   UNL     1       8.900   1.949  22.182  0.00  0.00    +0.159 A 
ATOM     17  C   UNL     1       8.710   0.628  22.597  0.00  0.00    +0.060 A 
BRANCH  15  18
ATOM     18  O   UNL     1       8.125   4.198  22.004  0.00  0.00    -0.503 OA
ATOM     19  H   UNL     1       8.860   4.523  22.563  0.00  0.00    +0.292 HD
ENDBRANCH  15  18
BRANCH  16  20
ATOM     20  O   UNL     1      10.038   2.345  21.534  0.00  0.00    -0.503 OA
ATOM     21  H   UNL     1      10.433   1.566  21.104  0.00  0.00    +0.292 HD
ENDBRANCH  16  20
ENDBRANCH  11  12
BRANCH   7  22
ATOM     22  O   UNL     1       5.455  -6.224  20.948  0.00  0.00    -0.507 OA
ATOM     23  H   UNL     1       4.491  -6.244  20.896  0.00  0.00    +0.292 HD
ENDBRANCH   7  22
BRANCH  10  24
ATOM     24  O   UNL     1       6.287  -5.797  25.569  0.00  0.00    -0.506 OA
ATOM     25  H   UNL     1       5.383  -5.843  25.920  0.00  0.00    +0.292 HD
ENDBRANCH  10  24
BRANCH   1  26
ATOM     26  O   UNL     1       7.716  -0.705  25.997  0.00  0.00    -0.453 OA
BRANCH  26  29
ATOM     27  C   UNL     1       4.477   0.019  27.548  0.00  0.00    +0.191 C 
ATOM     28  O   UNL     1       5.484  -0.213  26.531  0.00  0.00    -0.330 OA
ATOM     29  C   UNL     1       6.792  -0.490  27.074  0.00  0.00    +0.340 C 
ATOM     30  C   UNL     1       7.265   0.734  27.899  0.00  0.00    +0.214 C 
ATOM     31  C   UNL     1       6.257   1.043  29.002  0.00  0.00    +0.180 C 
ATOM     32  C   UNL     1       4.858   1.241  28.398  0.00  0.00    +0.178 C 
BRANCH  30  33
ATOM     33  O   UNL     1       7.371   1.921  27.071  0.00  0.00    -0.383 OA
ATOM     34  H   UNL     1       8.270   2.280  27.211  0.00  0.00    +0.210 HD
ENDBRANCH  30  33
BRANCH  31  35
ATOM     35  O   UNL     1       6.624   2.236  29.710  0.00  0.00    -0.386 OA
ATOM     36  H   UNL     1       7.602   2.214  29.768  0.00  0.00    +0.210 HD
ENDBRANCH  31  35
BRANCH  32  37
ATOM     37  O   UNL     1       3.890   1.455  29.427  0.00  0.00    -0.386 OA
ATOM     38  H   UNL     1       4.017   0.751  30.092  0.00  0.00    +0.210 HD
ENDBRANCH  32  37
BRANCH  27  39
ATOM     39  C   UNL     1       4.192  -1.203  28.455  0.00  0.00    +0.266 C 
BRANCH  39  40
ATOM     40  O   UNL     1       3.268  -2.117  27.851  0.00  0.00    -0.462 OA
BRANCH  40  42
ATOM     41  C   UNL     1       3.421  -3.085  25.727  0.00  0.00    +0.136 C 
ATOM     42  C   UNL     1       3.851  -3.133  27.158  0.00  0.00    +0.304 C 
ATOM     43  O   UNL     1       4.633  -3.952  27.618  0.00  0.00    -0.251 OA
ENDBRANCH  40  42
ENDBRANCH  39  40
ENDBRANCH  27  39
ENDBRANCH  26  29
ENDBRANCH   1  26
TORSDOF 13
ENDMDL
MODEL 8
REMARK VINA RESULT:      -6.8      2.025      5.397
REMARK  Name = 
REMARK  14 active torsions:
REMARK  status: ('A' for Active; 'I' for Inactive)
REMARK    1  A    between atoms: C_1  and  C_2
REMARK    2  A    between atoms: C_2  and  O_4
REMARK    3  A    between atoms: O_4  and  C_5
REMARK    4  A    between atoms: C_5  and  C_6
REMARK    5  A    between atoms: C_7  and  O_36
REMARK    6  A    between atoms: C_8  and  O_35
REMARK    7  A    between atoms: C_9  and  O_34
REMARK    8  A    between atoms: C_10  and  O_12
REMARK    9  A    between atoms: O_12  and  C_13
REMARK   10  A    between atoms: C_14  and  C_26
REMARK   11  A    between atoms: C_18  and  O_25
REMARK   12  A    between atoms: C_20  and  O_24
REMARK   13  A    between atoms: C_28  and  O_33
REMARK   14  A    between atoms: C_29  and  O_32
REMARK                            x       y       z     vdW  Elec       q    Type
REMARK                         _______ _______ _______ _____ _____    ______ ____
ROOT
ATOM      1  C   UNL     1       6.320  -0.498  24.478  0.00  0.00    +0.214 A 
ATOM      2  C   UNL     1       7.347  -0.644  23.388  0.00  0.00    +0.238 A 
ATOM      3  O   UNL     1       7.430  -1.662  22.708  0.00  0.00    -0.283 OA
ATOM      4  C   UNL     1       8.306   0.447  23.188  0.00  0.00    +0.109 A 
ATOM      5  C   UNL     1       8.356   1.440  24.156  0.00  0.00    +0.147 A 
ATOM      6  C   UNL     1       9.314   2.454  24.067  0.00  0.00    +0.092 A 
ATOM      7  C   UNL     1      10.205   2.460  22.998  0.00  0.00    +0.124 A 
ATOM      8  C   UNL     1      10.149   1.485  22.010  0.00  0.00    +0.091 A 
ATOM      9  O   UNL     1       7.508   1.473  25.233  0.00  0.00    -0.451 OA
ATOM     10  C   UNL     1       9.192   0.480  22.101  0.00  0.00    +0.135 A 
ATOM     11  C   UNL     1       6.481   0.532  25.341  0.00  0.00    +0.181 A 
ENDROOT
BRANCH  11  12
ATOM     12  C   UNL     1       5.625   0.763  26.553  0.00  0.00    +0.025 A 
ATOM     13  C   UNL     1       6.187   0.605  27.838  0.00  0.00    +0.015 A 
ATOM     14  C   UNL     1       5.433   0.810  29.003  0.00  0.00    +0.050 A 
ATOM     15  C   UNL     1       4.103   1.171  28.897  0.00  0.00    +0.158 A 
ATOM     16  C   UNL     1       3.522   1.337  27.647  0.00  0.00    +0.159 A 
ATOM     17  C   UNL     1       4.272   1.149  26.482  0.00  0.00    +0.060 A 
BRANCH  15  18
ATOM     18  O   UNL     1       3.361   1.360  30.026  0.00  0.00    -0.503 OA
ATOM     19  H   UNL     1       2.536   1.784  29.712  0.00  0.00    +0.292 HD
ENDBRANCH  15  18
BRANCH  16  20
ATOM     20  O   UNL     1       2.199   1.682  27.605  0.00  0.00    -0.503 OA
ATOM     21  H   UNL     1       2.049   2.400  28.245  0.00  0.00    +0.292 HD
ENDBRANCH  16  20
ENDBRANCH  11  12
BRANCH   7  22
ATOM     22  O   UNL     1      11.162   3.416  22.870  0.00  0.00    -0.507 OA
ATOM     23  H   UNL     1      11.917   3.058  22.386  0.00  0.00    +0.292 HD
ENDBRANCH   7  22
BRANCH  10  24
ATOM     24  O   UNL     1       9.125  -0.453  21.105  0.00  0.00    -0.506 OA
ATOM     25  H   UNL     1       8.199  -0.660  20.902  0.00  0.00    +0.292 HD
ENDBRANCH  10  24
BRANCH   1  26
ATOM     26  O   UNL     1       5.285  -1.421  24.635  0.00  0.00    -0.453 OA
BRANCH  26  29
ATOM     27  C   UNL     1       4.635  -5.020  24.832  0.00  0.00    +0.191 C 
ATOM     28  O   UNL     1       4.405  -3.596  24.692  0.00  0.00    -0.330 OA
ATOM     29  C   UNL     1       5.612  -2.810  24.786  0.00  0.00    +0.340 C 
ATOM     30  C   UNL     1       6.246  -3.024  26.184  0.00  0.00    +0.214 C 
ATOM     31  C   UNL     1       6.527  -4.507  26.409  0.00  0.00    +0.180 C 
ATOM     32  C   UNL     1       5.240  -5.324  26.212  0.00  0.00    +0.178 C 
BRANCH  30  33
ATOM     33  O   UNL     1       5.352  -2.592  27.242  0.00  0.00    -0.383 OA
ATOM     34  H   UNL     1       5.783  -2.830  28.086  0.00  0.00    +0.210 HD
ENDBRANCH  30  33
BRANCH  31  35
ATOM     35  O   UNL     1       7.016  -4.738  27.738  0.00  0.00    -0.386 OA
ATOM     36  H   UNL     1       7.707  -5.428  27.645  0.00  0.00    +0.210 HD
ENDBRANCH  31  35
BRANCH  32  37
ATOM     37  O   UNL     1       5.504  -6.722  26.344  0.00  0.00    -0.386 OA
ATOM     38  H   UNL     1       5.599  -6.908  27.298  0.00  0.00    +0.210 HD
ENDBRANCH  32  37
BRANCH  27  39
ATOM     39  C   UNL     1       5.505  -5.641  23.711  0.00  0.00    +0.266 C 
BRANCH  39  40
ATOM     40  O   UNL     1       4.985  -5.356  22.406  0.00  0.00    -0.462 OA
BRANCH  40  42
ATOM     41  C   UNL     1       7.135  -5.696  21.550  0.00  0.00    +0.136 C 
ATOM     42  C   UNL     1       5.898  -4.855  21.532  0.00  0.00    +0.304 C 
ATOM     43  O   UNL     1       5.735  -3.881  20.812  0.00  0.00    -0.251 OA
ENDBRANCH  40  42
ENDBRANCH  39  40
ENDBRANCH  27  39
ENDBRANCH  26  29
ENDBRANCH   1  26
TORSDOF 13
ENDMDL
MODEL 9
REMARK VINA RESULT:      -6.8      2.157      5.235
REMARK  Name = 
REMARK  14 active torsions:
REMARK  status: ('A' for Active; 'I' for Inactive)
REMARK    1  A    between atoms: C_1  and  C_2
REMARK    2  A    between atoms: C_2  and  O_4
REMARK    3  A    between atoms: O_4  and  C_5
REMARK    4  A    between atoms: C_5  and  C_6
REMARK    5  A    between atoms: C_7  and  O_36
REMARK    6  A    between atoms: C_8  and  O_35
REMARK    7  A    between atoms: C_9  and  O_34
REMARK    8  A    between atoms: C_10  and  O_12
REMARK    9  A    between atoms: O_12  and  C_13
REMARK   10  A    between atoms: C_14  and  C_26
REMARK   11  A    between atoms: C_18  and  O_25
REMARK   12  A    between atoms: C_20  and  O_24
REMARK   13  A    between atoms: C_28  and  O_33
REMARK   14  A    between atoms: C_29  and  O_32
REMARK                            x       y       z     vdW  Elec       q    Type
REMARK                         _______ _______ _______ _____ _____    ______ ____
ROOT
ATOM      1  C   UNL     1       6.365  -0.622  24.261  0.00  0.00    +0.214 A 
ATOM      2  C   UNL     1       7.450  -0.693  23.220  0.00  0.00    +0.238 A 
ATOM      3  O   UNL     1       7.619  -1.691  22.527  0.00  0.00    -0.283 OA
ATOM      4  C   UNL     1       8.359   0.449  23.089  0.00  0.00    +0.109 A 
ATOM      5  C   UNL     1       8.311   1.424  24.076  0.00  0.00    +0.147 A 
ATOM      6  C   UNL     1       9.219   2.487  24.053  0.00  0.00    +0.092 A 
ATOM      7  C   UNL     1      10.159   2.560  23.030  0.00  0.00    +0.124 A 
ATOM      8  C   UNL     1      10.202   1.604  22.022  0.00  0.00    +0.091 A 
ATOM      9  O   UNL     1       7.411   1.391  25.110  0.00  0.00    -0.451 OA
ATOM     10  C   UNL     1       9.295   0.550  22.048  0.00  0.00    +0.135 A 
ATOM     11  C   UNL     1       6.431   0.397  25.149  0.00  0.00    +0.181 A 
ENDROOT
BRANCH  11  12
ATOM     12  C   UNL     1       5.506   0.559  26.321  0.00  0.00    +0.025 A 
ATOM     13  C   UNL     1       5.841  -0.038  27.556  0.00  0.00    +0.015 A 
ATOM     14  C   UNL     1       5.014   0.083  28.683  0.00  0.00    +0.050 A 
ATOM     15  C   UNL     1       3.836   0.800  28.587  0.00  0.00    +0.158 A 
ATOM     16  C   UNL     1       3.480   1.400  27.387  0.00  0.00    +0.159 A 
ATOM     17  C   UNL     1       4.307   1.296  26.265  0.00  0.00    +0.060 A 
BRANCH  15  18
ATOM     18  O   UNL     1       3.022   0.912  29.676  0.00  0.00    -0.503 OA
ATOM     19  H   UNL     1       3.552   0.556  30.419  0.00  0.00    +0.292 HD
ENDBRANCH  15  18
BRANCH  16  20
ATOM     20  O   UNL     1       2.296   2.085  27.349  0.00  0.00    -0.503 OA
ATOM     21  H   UNL     1       1.597   1.473  27.060  0.00  0.00    +0.292 HD
ENDBRANCH  16  20
ENDBRANCH  11  12
BRANCH   7  22
ATOM     22  O   UNL     1      11.071   3.566  22.967  0.00  0.00    -0.507 OA
ATOM     23  H   UNL     1      10.725   4.284  22.422  0.00  0.00    +0.292 HD
ENDBRANCH   7  22
BRANCH  10  24
ATOM     24  O   UNL     1       9.325  -0.364  21.032  0.00  0.00    -0.506 OA
ATOM     25  H   UNL     1       8.651  -1.047  21.177  0.00  0.00    +0.292 HD
ENDBRANCH  10  24
BRANCH   1  26
ATOM     26  O   UNL     1       5.373  -1.599  24.350  0.00  0.00    -0.453 OA
BRANCH  26  29
ATOM     27  C   UNL     1       6.020  -5.192  24.654  0.00  0.00    +0.191 C 
ATOM     28  O   UNL     1       5.722  -3.902  24.062  0.00  0.00    -0.330 OA
ATOM     29  C   UNL     1       5.671  -2.830  25.027  0.00  0.00    +0.340 C 
ATOM     30  C   UNL     1       4.542  -3.123  26.047  0.00  0.00    +0.214 C 
ATOM     31  C   UNL     1       4.785  -4.469  26.723  0.00  0.00    +0.180 C 
ATOM     32  C   UNL     1       4.926  -5.573  25.664  0.00  0.00    +0.178 C 
BRANCH  30  33
ATOM     33  O   UNL     1       3.247  -3.197  25.397  0.00  0.00    -0.383 OA
ATOM     34  H   UNL     1       2.604  -3.461  26.084  0.00  0.00    +0.210 HD
ENDBRANCH  30  33
BRANCH  31  35
ATOM     35  O   UNL     1       3.696  -4.807  27.594  0.00  0.00    -0.386 OA
ATOM     36  H   UNL     1       3.469  -5.736  27.378  0.00  0.00    +0.210 HD
ENDBRANCH  31  35
BRANCH  32  37
ATOM     37  O   UNL     1       5.231  -6.827  26.280  0.00  0.00    -0.386 OA
ATOM     38  H   UNL     1       4.402  -7.164  26.671  0.00  0.00    +0.210 HD
ENDBRANCH  32  37
BRANCH  27  39
ATOM     39  C   UNL     1       7.419  -5.287  25.310  0.00  0.00    +0.266 C 
BRANCH  39  40
ATOM     40  O   UNL     1       8.467  -4.938  24.396  0.00  0.00    -0.462 OA
BRANCH  40  42
ATOM     41  C   UNL     1       8.954  -3.571  26.231  0.00  0.00    +0.136 C 
ATOM     42  C   UNL     1       9.248  -3.901  24.802  0.00  0.00    +0.304 C 
ATOM     43  O   UNL     1      10.089  -3.333  24.121  0.00  0.00    -0.251 OA
ENDBRANCH  40  42
ENDBRANCH  39  40
ENDBRANCH  27  39
ENDBRANCH  26  29
ENDBRANCH   1  26
TORSDOF 13
ENDMDL
