MODEL 1
REMARK VINA RESULT:      -7.4      0.000      0.000
REMARK  Name = 
REMARK  17 active torsions:
REMARK  status: ('A' for Active; 'I' for Inactive)
REMARK    1  A    between atoms: C_3  and  O_44
REMARK    2  A    between atoms: C_4  and  O_43
REMARK    3  A    between atoms: C_6  and  C_7
REMARK    4  A    between atoms: C_8  and  O_20
REMARK    5  A    between atoms: C_12  and  O_19
REMARK    6  A    between atoms: C_14  and  O_18
REMARK    7  A    between atoms: O_20  and  C_21
REMARK    8  A    between atoms: C_22  and  O_42
REMARK    9  A    between atoms: C_23  and  O_41
REMARK   10  A    between atoms: C_24  and  O_40
REMARK   11  A    between atoms: C_25  and  C_27
REMARK   12  A    between atoms: C_27  and  O_28
REMARK   13  A    between atoms: O_28  and  C_29
REMARK   14  A    between atoms: C_29  and  C_31
REMARK   15  A    between atoms: C_33  and  O_39
REMARK   16  A    between atoms: C_34  and  O_38
REMARK   17  A    between atoms: C_35  and  O_37
REMARK                            x       y       z     vdW  Elec       q    Type
REMARK                         _______ _______ _______ _____ _____    ______ ____
ROOT
ATOM      1  C   UNL     1       5.023  -2.871  27.522  0.00  0.00    +0.340 C 
ATOM      2  O   UNL     1       6.368  -3.345  27.342  0.00  0.00    -0.330 OA
ATOM      3  C   UNL     1       6.602  -4.520  26.534  0.00  0.00    +0.191 C 
ATOM      4  C   UNL     1       5.443  -5.545  26.381  0.00  0.00    +0.178 C 
ATOM      5  C   UNL     1       4.063  -5.021  26.784  0.00  0.00    +0.180 C 
ATOM      6  C   UNL     1       4.212  -4.092  27.990  0.00  0.00    +0.214 C 
ENDROOT
BRANCH   4   7
ATOM      7  O   UNL     1       5.693  -6.767  27.113  0.00  0.00    -0.386 OA
ATOM      8  H   UNL     1       4.863  -7.023  27.563  0.00  0.00    +0.210 HD
ENDBRANCH   4   7
BRANCH   5   9
ATOM      9  O   UNL     1       3.215  -6.136  27.098  0.00  0.00    -0.386 OA
ATOM     10  H   UNL     1       3.255  -6.750  26.342  0.00  0.00    +0.210 HD
ENDBRANCH   5   9
BRANCH   6  11
ATOM     11  O   UNL     1       2.966  -3.785  28.609  0.00  0.00    -0.383 OA
ATOM     12  H   UNL     1       2.656  -4.547  29.116  0.00  0.00    +0.210 HD
ENDBRANCH   6  11
BRANCH   1  13
ATOM     13  O   UNL     1       4.598  -2.222  26.306  0.00  0.00    -0.453 OA
BRANCH  13  24
ATOM     14  C   UNL     1       5.839  -1.763  24.231  0.00  0.00    +0.181 A 
ATOM     15  O   UNL     1       6.364  -0.797  23.358  0.00  0.00    -0.451 OA
ATOM     16  C   UNL     1       6.260   0.537  23.612  0.00  0.00    +0.147 A 
ATOM     17  C   UNL     1       5.915   1.007  24.860  0.00  0.00    +0.109 A 
ATOM     18  C   UNL     1       5.941   2.392  25.091  0.00  0.00    +0.135 A 
ATOM     19  C   UNL     1       6.283   3.289  24.073  0.00  0.00    +0.091 A 
ATOM     20  C   UNL     1       6.586   2.795  22.811  0.00  0.00    +0.124 A 
ATOM     21  C   UNL     1       5.526   0.014  25.876  0.00  0.00    +0.238 A 
ATOM     22  O   UNL     1       5.243   0.415  27.002  0.00  0.00    -0.283 OA
ATOM     23  C   UNL     1       6.572   1.424  22.572  0.00  0.00    +0.092 A 
ATOM     24  C   UNL     1       5.422  -1.452  25.493  0.00  0.00    +0.214 A 
BRANCH  14  26
ATOM     25  C   UNL     1       6.885  -3.485  22.717  0.00  0.00    +0.015 A 
ATOM     26  C   UNL     1       5.757  -3.072  23.483  0.00  0.00    +0.025 A 
ATOM     27  C   UNL     1       4.647  -3.919  23.439  0.00  0.00    +0.060 A 
ATOM     28  C   UNL     1       4.641  -5.050  22.620  0.00  0.00    +0.159 A 
ATOM     29  C   UNL     1       5.717  -5.355  21.797  0.00  0.00    +0.158 A 
ATOM     30  C   UNL     1       6.861  -4.591  21.860  0.00  0.00    +0.050 A 
BRANCH  28  31
ATOM     31  O   UNL     1       3.536  -5.855  22.610  0.00  0.00    -0.503 OA
ATOM     32  H   UNL     1       3.208  -5.838  23.531  0.00  0.00    +0.292 HD
ENDBRANCH  28  31
BRANCH  29  33
ATOM     33  O   UNL     1       5.587  -6.392  20.919  0.00  0.00    -0.503 OA
ATOM     34  H   UNL     1       4.636  -6.589  20.835  0.00  0.00    +0.292 HD
ENDBRANCH  29  33
ENDBRANCH  14  26
BRANCH  20  35
ATOM     35  O   UNL     1       6.919   3.627  21.783  0.00  0.00    -0.507 OA
ATOM     36  H   UNL     1       7.039   4.529  22.126  0.00  0.00    +0.292 HD
ENDBRANCH  20  35
BRANCH  18  37
ATOM     37  O   UNL     1       5.647   2.953  26.304  0.00  0.00    -0.506 OA
ATOM     38  H   UNL     1       6.238   2.550  26.977  0.00  0.00    +0.292 HD
ENDBRANCH  18  37
ENDBRANCH  13  24
ENDBRANCH   1  13
BRANCH   3  39
ATOM     39  C   UNL     1       7.847  -5.247  27.105  0.00  0.00    +0.266 C 
BRANCH  39  40
ATOM     40  O   UNL     1       9.060  -4.573  26.756  0.00  0.00    -0.458 OA
BRANCH  40  41
ATOM     41  C   UNL     1       9.350  -4.581  25.431  0.00  0.00    +0.340 C 
ATOM     42  O   UNL     1       9.443  -5.561  24.702  0.00  0.00    -0.245 OA
BRANCH  41  43
ATOM     43  C   UNL     1       9.509  -3.200  24.945  0.00  0.00    +0.066 A 
ATOM     44  C   UNL     1       9.190  -2.089  25.752  0.00  0.00    +0.064 A 
ATOM     45  C   UNL     1       9.353  -0.820  25.230  0.00  0.00    +0.163 A 
ATOM     46  C   UNL     1       9.806  -0.637  23.929  0.00  0.00    +0.201 A 
ATOM     47  C   UNL     1      10.111  -1.730  23.130  0.00  0.00    +0.163 A 
ATOM     48  C   UNL     1       9.960  -3.017  23.627  0.00  0.00    +0.064 A 
BRANCH  45  49
ATOM     49  O   UNL     1       9.067   0.258  26.014  0.00  0.00    -0.503 OA
ATOM     50  H   UNL     1       9.142  -0.093  26.922  0.00  0.00    +0.292 HD
ENDBRANCH  45  49
BRANCH  46  51
ATOM     51  O   UNL     1       9.964   0.637  23.455  0.00  0.00    -0.501 OA
ATOM     52  H   UNL     1      10.129   0.523  22.496  0.00  0.00    +0.292 HD
ENDBRANCH  46  51
BRANCH  47  53
ATOM     53  O   UNL     1      10.568  -1.494  21.863  0.00  0.00    -0.503 OA
ATOM     54  H   UNL     1      11.018  -0.630  21.856  0.00  0.00    +0.292 HD
ENDBRANCH  47  53
ENDBRANCH  41  43
ENDBRANCH  40  41
ENDBRANCH  39  40
ENDBRANCH   3  39
TORSDOF 17
ENDMDL
MODEL 2
REMARK VINA RESULT:      -7.1      2.001      4.990
REMARK  Name = 
REMARK  17 active torsions:
REMARK  status: ('A' for Active; 'I' for Inactive)
REMARK    1  A    between atoms: C_3  and  O_44
REMARK    2  A    between atoms: C_4  and  O_43
REMARK    3  A    between atoms: C_6  and  C_7
REMARK    4  A    between atoms: C_8  and  O_20
REMARK    5  A    between atoms: C_12  and  O_19
REMARK    6  A    between atoms: C_14  and  O_18
REMARK    7  A    between atoms: O_20  and  C_21
REMARK    8  A    between atoms: C_22  and  O_42
REMARK    9  A    between atoms: C_23  and  O_41
REMARK   10  A    between atoms: C_24  and  O_40
REMARK   11  A    between atoms: C_25  and  C_27
REMARK   12  A    between atoms: C_27  and  O_28
REMARK   13  A    between atoms: O_28  and  C_29
REMARK   14  A    between atoms: C_29  and  C_31
REMARK   15  A    between atoms: C_33  and  O_39
REMARK   16  A    between atoms: C_34  and  O_38
REMARK   17  A    between atoms: C_35  and  O_37
REMARK                            x       y       z     vdW  Elec       q    Type
REMARK                         _______ _______ _______ _____ _____    ______ ____
ROOT
ATOM      1  C   UNL     1       4.264  -1.929  26.935  0.00  0.00    +0.340 C 
ATOM      2  O   UNL     1       4.471  -0.766  26.116  0.00  0.00    -0.330 OA
ATOM      3  C   UNL     1       4.910   0.465  26.733  0.00  0.00    +0.191 C 
ATOM      4  C   UNL     1       4.589   0.683  28.238  0.00  0.00    +0.178 C 
ATOM      5  C   UNL     1       4.181  -0.581  28.999  0.00  0.00    +0.180 C 
ATOM      6  C   UNL     1       3.344  -1.472  28.081  0.00  0.00    +0.214 C 
ENDROOT
BRANCH   4   7
ATOM      7  O   UNL     1       3.562   1.681  28.440  0.00  0.00    -0.386 OA
ATOM      8  H   UNL     1       2.709   1.298  28.150  0.00  0.00    +0.210 HD
ENDBRANCH   4   7
BRANCH   5   9
ATOM      9  O   UNL     1       3.434  -0.201  30.166  0.00  0.00    -0.386 OA
ATOM     10  H   UNL     1       3.403   0.772  30.184  0.00  0.00    +0.210 HD
ENDBRANCH   5   9
BRANCH   6  11
ATOM     11  O   UNL     1       2.686  -2.524  28.779  0.00  0.00    -0.383 OA
ATOM     12  H   UNL     1       3.138  -2.694  29.616  0.00  0.00    +0.210 HD
ENDBRANCH   6  11
BRANCH   1  13
ATOM     13  O   UNL     1       5.551  -2.471  27.298  0.00  0.00    -0.453 OA
BRANCH  13  24
ATOM     14  C   UNL     1       6.526  -3.627  25.356  0.00  0.00    +0.181 A 
ATOM     15  O   UNL     1       7.451  -3.589  24.301  0.00  0.00    -0.451 OA
ATOM     16  C   UNL     1       8.290  -2.533  24.115  0.00  0.00    +0.147 A 
ATOM     17  C   UNL     1       8.496  -1.595  25.103  0.00  0.00    +0.109 A 
ATOM     18  C   UNL     1       9.461  -0.596  24.895  0.00  0.00    +0.135 A 
ATOM     19  C   UNL     1      10.188  -0.530  23.702  0.00  0.00    +0.091 A 
ATOM     20  C   UNL     1       9.934  -1.460  22.703  0.00  0.00    +0.124 A 
ATOM     21  C   UNL     1       7.670  -1.697  26.318  0.00  0.00    +0.238 A 
ATOM     22  O   UNL     1       7.860  -0.885  27.220  0.00  0.00    -0.283 OA
ATOM     23  C   UNL     1       8.986  -2.459  22.900  0.00  0.00    +0.092 A 
ATOM     24  C   UNL     1       6.574  -2.746  26.396  0.00  0.00    +0.214 A 
BRANCH  14  26
ATOM     25  C   UNL     1       5.433  -5.831  25.906  0.00  0.00    +0.015 A 
ATOM     26  C   UNL     1       5.508  -4.698  25.045  0.00  0.00    +0.025 A 
ATOM     27  C   UNL     1       4.637  -4.704  23.952  0.00  0.00    +0.060 A 
ATOM     28  C   UNL     1       3.815  -5.804  23.697  0.00  0.00    +0.159 A 
ATOM     29  C   UNL     1       3.857  -6.940  24.494  0.00  0.00    +0.158 A 
ATOM     30  C   UNL     1       4.646  -6.953  25.623  0.00  0.00    +0.050 A 
BRANCH  28  31
ATOM     31  O   UNL     1       2.974  -5.767  22.620  0.00  0.00    -0.503 OA
ATOM     32  H   UNL     1       3.135  -6.610  22.150  0.00  0.00    +0.292 HD
ENDBRANCH  28  31
BRANCH  29  33
ATOM     33  O   UNL     1       3.134  -8.031  24.105  0.00  0.00    -0.503 OA
ATOM     34  H   UNL     1       2.204  -7.751  24.018  0.00  0.00    +0.292 HD
ENDBRANCH  29  33
ENDBRANCH  14  26
BRANCH  20  35
ATOM     35  O   UNL     1      10.610  -1.435  21.519  0.00  0.00    -0.507 OA
ATOM     36  H   UNL     1      11.374  -2.035  21.573  0.00  0.00    +0.292 HD
ENDBRANCH  20  35
BRANCH  18  37
ATOM     37  O   UNL     1       9.761   0.359  25.828  0.00  0.00    -0.506 OA
ATOM     38  H   UNL     1       9.493   1.232  25.467  0.00  0.00    +0.292 HD
ENDBRANCH  18  37
ENDBRANCH  13  24
ENDBRANCH   1  13
BRANCH   3  39
ATOM     39  C   UNL     1       4.318   1.641  25.915  0.00  0.00    +0.266 C 
BRANCH  39  40
ATOM     40  O   UNL     1       5.344   2.422  25.293  0.00  0.00    -0.458 OA
BRANCH  40  41
ATOM     41  C   UNL     1       5.262   2.488  23.941  0.00  0.00    +0.340 C 
ATOM     42  O   UNL     1       4.243   2.571  23.266  0.00  0.00    -0.245 OA
BRANCH  41  43
ATOM     43  C   UNL     1       6.614   2.486  23.356  0.00  0.00    +0.066 A 
ATOM     44  C   UNL     1       6.942   1.676  22.250  0.00  0.00    +0.064 A 
ATOM     45  C   UNL     1       8.232   1.715  21.758  0.00  0.00    +0.163 A 
ATOM     46  C   UNL     1       9.197   2.522  22.348  0.00  0.00    +0.201 A 
ATOM     47  C   UNL     1       8.878   3.314  23.444  0.00  0.00    +0.163 A 
ATOM     48  C   UNL     1       7.589   3.298  23.959  0.00  0.00    +0.064 A 
BRANCH  45  49
ATOM     49  O   UNL     1       8.549   0.950  20.674  0.00  0.00    -0.503 OA
ATOM     50  H   UNL     1       9.295   1.430  20.265  0.00  0.00    +0.292 HD
ENDBRANCH  45  49
BRANCH  46  51
ATOM     51  O   UNL     1      10.460   2.540  21.822  0.00  0.00    -0.501 OA
ATOM     52  H   UNL     1      10.904   3.286  22.276  0.00  0.00    +0.292 HD
ENDBRANCH  46  51
BRANCH  47  53
ATOM     53  O   UNL     1       9.860   4.102  23.976  0.00  0.00    -0.503 OA
ATOM     54  H   UNL     1      10.307   3.601  24.681  0.00  0.00    +0.292 HD
ENDBRANCH  47  53
ENDBRANCH  41  43
ENDBRANCH  40  41
ENDBRANCH  39  40
ENDBRANCH   3  39
TORSDOF 17
ENDMDL
MODEL 3
REMARK VINA RESULT:      -7.0      2.421      7.211
REMARK  Name = 
REMARK  17 active torsions:
REMARK  status: ('A' for Active; 'I' for Inactive)
REMARK    1  A    between atoms: C_3  and  O_44
REMARK    2  A    between atoms: C_4  and  O_43
REMARK    3  A    between atoms: C_6  and  C_7
REMARK    4  A    between atoms: C_8  and  O_20
REMARK    5  A    between atoms: C_12  and  O_19
REMARK    6  A    between atoms: C_14  and  O_18
REMARK    7  A    between atoms: O_20  and  C_21
REMARK    8  A    between atoms: C_22  and  O_42
REMARK    9  A    between atoms: C_23  and  O_41
REMARK   10  A    between atoms: C_24  and  O_40
REMARK   11  A    between atoms: C_25  and  C_27
REMARK   12  A    between atoms: C_27  and  O_28
REMARK   13  A    between atoms: O_28  and  C_29
REMARK   14  A    between atoms: C_29  and  C_31
REMARK   15  A    between atoms: C_33  and  O_39
REMARK   16  A    between atoms: C_34  and  O_38
REMARK   17  A    between atoms: C_35  and  O_37
REMARK                            x       y       z     vdW  Elec       q    Type
REMARK                         _______ _______ _______ _____ _____    ______ ____
ROOT
ATOM      1  C   UNL     1       7.519   0.295  24.519  0.00  0.00    +0.340 C 
ATOM      2  O   UNL     1       8.402  -0.830  24.650  0.00  0.00    -0.330 OA
ATOM      3  C   UNL     1       9.674  -0.817  23.963  0.00  0.00    +0.191 C 
ATOM      4  C   UNL     1       9.809   0.070  22.693  0.00  0.00    +0.178 C 
ATOM      5  C   UNL     1       8.710   1.121  22.522  0.00  0.00    +0.180 C 
ATOM      6  C   UNL     1       7.381   0.541  23.006  0.00  0.00    +0.214 C 
ENDROOT
BRANCH   4   7
ATOM      7  O   UNL     1       9.873  -0.717  21.481  0.00  0.00    -0.386 OA
ATOM      8  H   UNL     1      10.120  -0.119  20.747  0.00  0.00    +0.210 HD
ENDBRANCH   4   7
BRANCH   5   9
ATOM      9  O   UNL     1       8.633   1.493  21.137  0.00  0.00    -0.386 OA
ATOM     10  H   UNL     1       9.172   2.296  21.024  0.00  0.00    +0.210 HD
ENDBRANCH   5   9
BRANCH   6  11
ATOM     11  O   UNL     1       6.260   1.333  22.626  0.00  0.00    -0.383 OA
ATOM     12  H   UNL     1       5.931   1.824  23.391  0.00  0.00    +0.210 HD
ENDBRANCH   6  11
BRANCH   1  13
ATOM     13  O   UNL     1       8.034   1.380  25.319  0.00  0.00    -0.453 OA
BRANCH  13  24
ATOM     14  C   UNL     1       6.708   3.375  25.883  0.00  0.00    +0.181 A 
ATOM     15  O   UNL     1       5.675   3.926  26.658  0.00  0.00    -0.451 OA
ATOM     16  C   UNL     1       4.998   3.192  27.584  0.00  0.00    +0.147 A 
ATOM     17  C   UNL     1       5.475   1.979  28.029  0.00  0.00    +0.109 A 
ATOM     18  C   UNL     1       4.794   1.326  29.069  0.00  0.00    +0.135 A 
ATOM     19  C   UNL     1       3.638   1.876  29.635  0.00  0.00    +0.091 A 
ATOM     20  C   UNL     1       3.152   3.080  29.141  0.00  0.00    +0.124 A 
ATOM     21  C   UNL     1       6.672   1.435  27.365  0.00  0.00    +0.238 A 
ATOM     22  O   UNL     1       7.126   0.367  27.769  0.00  0.00    -0.283 OA
ATOM     23  C   UNL     1       3.822   3.740  28.116  0.00  0.00    +0.092 A 
ATOM     24  C   UNL     1       7.267   2.164  26.174  0.00  0.00    +0.214 A 
BRANCH  14  26
ATOM     25  C   UNL     1       5.854   4.644  23.880  0.00  0.00    +0.015 A 
ATOM     26  C   UNL     1       6.956   4.296  24.713  0.00  0.00    +0.025 A 
ATOM     27  C   UNL     1       8.194   4.824  24.338  0.00  0.00    +0.060 A 
ATOM     28  C   UNL     1       8.328   5.574  23.167  0.00  0.00    +0.159 A 
ATOM     29  C   UNL     1       7.251   5.792  22.319  0.00  0.00    +0.158 A 
ATOM     30  C   UNL     1       5.997   5.354  22.683  0.00  0.00    +0.050 A 
BRANCH  28  31
ATOM     31  O   UNL     1       9.556   6.076  22.839  0.00  0.00    -0.503 OA
ATOM     32  H   UNL     1      10.054   5.309  22.492  0.00  0.00    +0.292 HD
ENDBRANCH  28  31
BRANCH  29  33
ATOM     33  O   UNL     1       7.482   6.409  21.123  0.00  0.00    -0.503 OA
ATOM     34  H   UNL     1       7.434   5.729  20.427  0.00  0.00    +0.292 HD
ENDBRANCH  29  33
ENDBRANCH  14  26
BRANCH  20  35
ATOM     35  O   UNL     1       2.026   3.655  29.652  0.00  0.00    -0.507 OA
ATOM     36  H   UNL     1       1.855   4.494  29.189  0.00  0.00    +0.292 HD
ENDBRANCH  20  35
BRANCH  18  37
ATOM     37  O   UNL     1       5.207   0.135  29.602  0.00  0.00    -0.506 OA
ATOM     38  H   UNL     1       5.383   0.274  30.558  0.00  0.00    +0.292 HD
ENDBRANCH  18  37
ENDBRANCH  13  24
ENDBRANCH   1  13
BRANCH   3  39
ATOM     39  C   UNL     1      10.030  -2.281  23.598  0.00  0.00    +0.266 C 
BRANCH  39  40
ATOM     40  O   UNL     1       8.858  -3.085  23.434  0.00  0.00    -0.458 OA
BRANCH  40  41
ATOM     41  C   UNL     1       8.848  -4.226  24.167  0.00  0.00    +0.340 C 
ATOM     42  O   UNL     1       9.743  -4.645  24.892  0.00  0.00    -0.245 OA
BRANCH  41  43
ATOM     43  C   UNL     1       7.556  -4.914  24.006  0.00  0.00    +0.066 A 
ATOM     44  C   UNL     1       6.714  -5.176  25.107  0.00  0.00    +0.064 A 
ATOM     45  C   UNL     1       5.520  -5.835  24.887  0.00  0.00    +0.163 A 
ATOM     46  C   UNL     1       5.157  -6.247  23.611  0.00  0.00    +0.201 A 
ATOM     47  C   UNL     1       5.989  -5.998  22.528  0.00  0.00    +0.163 A 
ATOM     48  C   UNL     1       7.194  -5.336  22.716  0.00  0.00    +0.064 A 
BRANCH  45  49
ATOM     49  O   UNL     1       4.692  -6.071  25.944  0.00  0.00    -0.503 OA
ATOM     50  H   UNL     1       3.803  -6.082  25.541  0.00  0.00    +0.292 HD
ENDBRANCH  45  49
BRANCH  46  51
ATOM     51  O   UNL     1       3.960  -6.887  23.435  0.00  0.00    -0.501 OA
ATOM     52  H   UNL     1       4.108  -7.787  23.791  0.00  0.00    +0.292 HD
ENDBRANCH  46  51
BRANCH  47  53
ATOM     53  O   UNL     1       5.577  -6.411  21.291  0.00  0.00    -0.503 OA
ATOM     54  H   UNL     1       4.671  -6.086  21.146  0.00  0.00    +0.292 HD
ENDBRANCH  47  53
ENDBRANCH  41  43
ENDBRANCH  40  41
ENDBRANCH  39  40
ENDBRANCH   3  39
TORSDOF 17
ENDMDL
MODEL 4
REMARK VINA RESULT:      -6.9      2.566      6.913
REMARK  Name = 
REMARK  17 active torsions:
REMARK  status: ('A' for Active; 'I' for Inactive)
REMARK    1  A    between atoms: C_3  and  O_44
REMARK    2  A    between atoms: C_4  and  O_43
REMARK    3  A    between atoms: C_6  and  C_7
REMARK    4  A    between atoms: C_8  and  O_20
REMARK    5  A    between atoms: C_12  and  O_19
REMARK    6  A    between atoms: C_14  and  O_18
REMARK    7  A    between atoms: O_20  and  C_21
REMARK    8  A    between atoms: C_22  and  O_42
REMARK    9  A    between atoms: C_23  and  O_41
REMARK   10  A    between atoms: C_24  and  O_40
REMARK   11  A    between atoms: C_25  and  C_27
REMARK   12  A    between atoms: C_27  and  O_28
REMARK   13  A    between atoms: O_28  and  C_29
REMARK   14  A    between atoms: C_29  and  C_31
REMARK   15  A    between atoms: C_33  and  O_39
REMARK   16  A    between atoms: C_34  and  O_38
REMARK   17  A    between atoms: C_35  and  O_37
REMARK                            x       y       z     vdW  Elec       q    Type
REMARK                         _______ _______ _______ _____ _____    ______ ____
ROOT
ATOM      1  C   UNL     1       5.196   0.707  26.196  0.00  0.00    +0.340 C 
ATOM      2  O   UNL     1       6.094   1.709  26.700  0.00  0.00    -0.330 OA
ATOM      3  C   UNL     1       6.577   1.609  28.058  0.00  0.00    +0.191 C 
ATOM      4  C   UNL     1       5.712   0.824  29.085  0.00  0.00    +0.178 C 
ATOM      5  C   UNL     1       4.639  -0.076  28.468  0.00  0.00    +0.180 C 
ATOM      6  C   UNL     1       4.061   0.609  27.230  0.00  0.00    +0.214 C 
ENDROOT
BRANCH   4   7
ATOM      7  O   UNL     1       5.071   1.699  30.042  0.00  0.00    -0.386 OA
ATOM      8  H   UNL     1       4.979   2.581  29.628  0.00  0.00    +0.210 HD
ENDBRANCH   4   7
BRANCH   5   9
ATOM      9  O   UNL     1       3.616  -0.317  29.446  0.00  0.00    -0.386 OA
ATOM     10  H   UNL     1       3.941   0.029  30.296  0.00  0.00    +0.210 HD
ENDBRANCH   5   9
BRANCH   6  11
ATOM     11  O   UNL     1       2.870  -0.014  26.757  0.00  0.00    -0.383 OA
ATOM     12  H   UNL     1       2.124   0.594  26.850  0.00  0.00    +0.210 HD
ENDBRANCH   6  11
BRANCH   1  13
ATOM     13  O   UNL     1       5.950  -0.493  25.928  0.00  0.00    -0.453 OA
BRANCH  13  24
ATOM     14  C   UNL     1       6.897  -1.173  23.760  0.00  0.00    +0.181 A 
ATOM     15  O   UNL     1       6.966  -2.152  22.757  0.00  0.00    -0.451 OA
ATOM     16  C   UNL     1       6.241  -3.303  22.821  0.00  0.00    +0.147 A 
ATOM     17  C   UNL     1       5.186  -3.441  23.696  0.00  0.00    +0.109 A 
ATOM     18  C   UNL     1       4.404  -4.605  23.632  0.00  0.00    +0.135 A 
ATOM     19  C   UNL     1       4.695  -5.624  22.719  0.00  0.00    +0.091 A 
ATOM     20  C   UNL     1       5.790  -5.482  21.875  0.00  0.00    +0.124 A 
ATOM     21  C   UNL     1       4.957  -2.351  24.659  0.00  0.00    +0.238 A 
ATOM     22  O   UNL     1       4.003  -2.446  25.428  0.00  0.00    -0.283 OA
ATOM     23  C   UNL     1       6.568  -4.330  21.923  0.00  0.00    +0.092 A 
ATOM     24  C   UNL     1       5.929  -1.186  24.722  0.00  0.00    +0.214 A 
BRANCH  14  26
ATOM     25  C   UNL     1       9.074  -0.245  24.625  0.00  0.00    +0.015 A 
ATOM     26  C   UNL     1       8.086  -0.256  23.600  0.00  0.00    +0.025 A 
ATOM     27  C   UNL     1       8.297   0.629  22.539  0.00  0.00    +0.060 A 
ATOM     28  C   UNL     1       9.376   1.516  22.551  0.00  0.00    +0.159 A 
ATOM     29  C   UNL     1      10.252   1.577  23.625  0.00  0.00    +0.158 A 
ATOM     30  C   UNL     1      10.127   0.677  24.660  0.00  0.00    +0.050 A 
BRANCH  28  31
ATOM     31  O   UNL     1       9.550   2.361  21.490  0.00  0.00    -0.503 OA
ATOM     32  H   UNL     1       8.643   2.597  21.209  0.00  0.00    +0.292 HD
ENDBRANCH  28  31
BRANCH  29  33
ATOM     33  O   UNL     1      11.197   2.563  23.635  0.00  0.00    -0.503 OA
ATOM     34  H   UNL     1      11.997   2.207  23.208  0.00  0.00    +0.292 HD
ENDBRANCH  29  33
ENDBRANCH  14  26
BRANCH  20  35
ATOM     35  O   UNL     1       6.121  -6.448  20.971  0.00  0.00    -0.507 OA
ATOM     36  H   UNL     1       6.625  -6.046  20.242  0.00  0.00    +0.292 HD
ENDBRANCH  20  35
BRANCH  18  37
ATOM     37  O   UNL     1       3.317  -4.820  24.435  0.00  0.00    -0.506 OA
ATOM     38  H   UNL     1       3.024  -5.749  24.309  0.00  0.00    +0.292 HD
ENDBRANCH  18  37
ENDBRANCH  13  24
ENDBRANCH   1  13
BRANCH   3  39
ATOM     39  C   UNL     1       6.807   3.048  28.587  0.00  0.00    +0.266 C 
BRANCH  39  40
ATOM     40  O   UNL     1       6.260   4.030  27.701  0.00  0.00    -0.458 OA
BRANCH  40  41
ATOM     41  C   UNL     1       7.157   4.938  27.242  0.00  0.00    +0.340 C 
ATOM     42  O   UNL     1       7.862   5.683  27.912  0.00  0.00    -0.245 OA
BRANCH  41  43
ATOM     43  C   UNL     1       7.208   4.891  25.770  0.00  0.00    +0.066 A 
ATOM     44  C   UNL     1       6.043   4.732  24.993  0.00  0.00    +0.064 A 
ATOM     45  C   UNL     1       6.163   4.685  23.618  0.00  0.00    +0.163 A 
ATOM     46  C   UNL     1       7.408   4.777  23.007  0.00  0.00    +0.201 A 
ATOM     47  C   UNL     1       8.557   4.925  23.772  0.00  0.00    +0.163 A 
ATOM     48  C   UNL     1       8.468   4.977  25.156  0.00  0.00    +0.064 A 
BRANCH  45  49
ATOM     49  O   UNL     1       5.037   4.553  22.860  0.00  0.00    -0.503 OA
ATOM     50  H   UNL     1       5.276   4.985  22.017  0.00  0.00    +0.292 HD
ENDBRANCH  45  49
BRANCH  46  51
ATOM     51  O   UNL     1       7.482   4.738  21.641  0.00  0.00    -0.501 OA
ATOM     52  H   UNL     1       7.184   3.836  21.405  0.00  0.00    +0.292 HD
ENDBRANCH  46  51
BRANCH  47  53
ATOM     53  O   UNL     1       9.755   5.027  23.120  0.00  0.00    -0.503 OA
ATOM     54  H   UNL     1      10.004   4.143  22.796  0.00  0.00    +0.292 HD
ENDBRANCH  47  53
ENDBRANCH  41  43
ENDBRANCH  40  41
ENDBRANCH  39  40
ENDBRANCH   3  39
TORSDOF 17
ENDMDL
MODEL 5
REMARK VINA RESULT:      -6.9      2.910      7.336
REMARK  Name = 
REMARK  17 active torsions:
REMARK  status: ('A' for Active; 'I' for Inactive)
REMARK    1  A    between atoms: C_3  and  O_44
REMARK    2  A    between atoms: C_4  and  O_43
REMARK    3  A    between atoms: C_6  and  C_7
REMARK    4  A    between atoms: C_8  and  O_20
REMARK    5  A    between atoms: C_12  and  O_19
REMARK    6  A    between atoms: C_14  and  O_18
REMARK    7  A    between atoms: O_20  and  C_21
REMARK    8  A    between atoms: C_22  and  O_42
REMARK    9  A    between atoms: C_23  and  O_41
REMARK   10  A    between atoms: C_24  and  O_40
REMARK   11  A    between atoms: C_25  and  C_27
REMARK   12  A    between atoms: C_27  and  O_28
REMARK   13  A    between atoms: O_28  and  C_29
REMARK   14  A    between atoms: C_29  and  C_31
REMARK   15  A    between atoms: C_33  and  O_39
REMARK   16  A    between atoms: C_34  and  O_38
REMARK   17  A    between atoms: C_35  and  O_37
REMARK                            x       y       z     vdW  Elec       q    Type
REMARK                         _______ _______ _______ _____ _____    ______ ____
ROOT
ATOM      1  C   UNL     1       7.475   0.580  24.243  0.00  0.00    +0.340 C 
ATOM      2  O   UNL     1       8.416  -0.463  24.542  0.00  0.00    -0.330 OA
ATOM      3  C   UNL     1       9.707  -0.460  23.891  0.00  0.00    +0.191 C 
ATOM      4  C   UNL     1       9.832   0.263  22.521  0.00  0.00    +0.178 C 
ATOM      5  C   UNL     1       8.681   1.215  22.187  0.00  0.00    +0.180 C 
ATOM      6  C   UNL     1       7.373   0.621  22.708  0.00  0.00    +0.214 C 
ENDROOT
BRANCH   4   7
ATOM      7  O   UNL     1       9.981  -0.667  21.423  0.00  0.00    -0.386 OA
ATOM      8  H   UNL     1       9.803  -1.567  21.765  0.00  0.00    +0.210 HD
ENDBRANCH   4   7
BRANCH   5   9
ATOM      9  O   UNL     1       8.629   1.401  20.764  0.00  0.00    -0.386 OA
ATOM     10  H   UNL     1       7.745   1.119  20.468  0.00  0.00    +0.210 HD
ENDBRANCH   5   9
BRANCH   6  11
ATOM     11  O   UNL     1       6.221   1.288  22.201  0.00  0.00    -0.383 OA
ATOM     12  H   UNL     1       6.047   0.999  21.295  0.00  0.00    +0.210 HD
ENDBRANCH   6  11
BRANCH   1  13
ATOM     13  O   UNL     1       7.901   1.788  24.909  0.00  0.00    -0.453 OA
BRANCH  13  24
ATOM     14  C   UNL     1       7.568   4.223  24.782  0.00  0.00    +0.181 A 
ATOM     15  O   UNL     1       6.676   5.283  24.555  0.00  0.00    -0.451 OA
ATOM     16  C   UNL     1       5.357   5.071  24.295  0.00  0.00    +0.147 A 
ATOM     17  C   UNL     1       4.762   3.852  24.535  0.00  0.00    +0.109 A 
ATOM     18  C   UNL     1       3.374   3.731  24.358  0.00  0.00    +0.135 A 
ATOM     19  C   UNL     1       2.603   4.814  23.923  0.00  0.00    +0.091 A 
ATOM     20  C   UNL     1       3.230   6.022  23.645  0.00  0.00    +0.124 A 
ATOM     21  C   UNL     1       5.635   2.742  24.953  0.00  0.00    +0.238 A 
ATOM     22  O   UNL     1       5.117   1.656  25.199  0.00  0.00    -0.283 OA
ATOM     23  C   UNL     1       4.603   6.157  23.824  0.00  0.00    +0.092 A 
ATOM     24  C   UNL     1       7.139   2.947  25.005  0.00  0.00    +0.214 A 
BRANCH  14  26
ATOM     25  C   UNL     1       9.352   5.892  25.402  0.00  0.00    +0.015 A 
ATOM     26  C   UNL     1       8.973   4.756  24.632  0.00  0.00    +0.025 A 
ATOM     27  C   UNL     1       9.948   4.254  23.765  0.00  0.00    +0.060 A 
ATOM     28  C   UNL     1      11.180   4.897  23.623  0.00  0.00    +0.159 A 
ATOM     29  C   UNL     1      11.467   6.072  24.305  0.00  0.00    +0.158 A 
ATOM     30  C   UNL     1      10.566   6.564  25.224  0.00  0.00    +0.050 A 
BRANCH  28  31
ATOM     31  O   UNL     1      12.108   4.370  22.769  0.00  0.00    -0.503 OA
ATOM     32  H   UNL     1      11.907   3.413  22.744  0.00  0.00    +0.292 HD
ENDBRANCH  28  31
BRANCH  29  33
ATOM     33  O   UNL     1      12.630   6.724  24.011  0.00  0.00    -0.503 OA
ATOM     34  H   UNL     1      13.235   6.600  24.765  0.00  0.00    +0.292 HD
ENDBRANCH  29  33
ENDBRANCH  14  26
BRANCH  20  35
ATOM     35  O   UNL     1       2.526   7.106  23.211  0.00  0.00    -0.507 OA
ATOM     36  H   UNL     1       1.660   7.124  23.654  0.00  0.00    +0.292 HD
ENDBRANCH  20  35
BRANCH  18  37
ATOM     37  O   UNL     1       2.688   2.573  24.603  0.00  0.00    -0.506 OA
ATOM     38  H   UNL     1       1.739   2.799  24.720  0.00  0.00    +0.292 HD
ENDBRANCH  18  37
ENDBRANCH  13  24
ENDBRANCH   1  13
BRANCH   3  39
ATOM     39  C   UNL     1      10.158  -1.935  23.728  0.00  0.00    +0.266 C 
BRANCH  39  40
ATOM     40  O   UNL     1       9.145  -2.732  23.106  0.00  0.00    -0.458 OA
BRANCH  40  41
ATOM     41  C   UNL     1       8.744  -3.804  23.833  0.00  0.00    +0.340 C 
ATOM     42  O   UNL     1       9.428  -4.478  24.593  0.00  0.00    -0.245 OA
BRANCH  41  43
ATOM     43  C   UNL     1       7.307  -4.048  23.616  0.00  0.00    +0.066 A 
ATOM     44  C   UNL     1       6.319  -3.342  24.333  0.00  0.00    +0.064 A 
ATOM     45  C   UNL     1       4.990  -3.627  24.087  0.00  0.00    +0.163 A 
ATOM     46  C   UNL     1       4.628  -4.601  23.165  0.00  0.00    +0.201 A 
ATOM     47  C   UNL     1       5.600  -5.303  22.465  0.00  0.00    +0.163 A 
ATOM     48  C   UNL     1       6.943  -5.038  22.688  0.00  0.00    +0.064 A 
BRANCH  45  49
ATOM     49  O   UNL     1       4.030  -2.932  24.762  0.00  0.00    -0.503 OA
ATOM     50  H   UNL     1       3.209  -3.145  24.277  0.00  0.00    +0.292 HD
ENDBRANCH  45  49
BRANCH  46  51
ATOM     51  O   UNL     1       3.299  -4.844  22.944  0.00  0.00    -0.501 OA
ATOM     52  H   UNL     1       2.889  -4.792  23.832  0.00  0.00    +0.292 HD
ENDBRANCH  46  51
BRANCH  47  53
ATOM     53  O   UNL     1       5.188  -6.240  21.557  0.00  0.00    -0.503 OA
ATOM     54  H   UNL     1       5.952  -6.797  21.324  0.00  0.00    +0.292 HD
ENDBRANCH  47  53
ENDBRANCH  41  43
ENDBRANCH  40  41
ENDBRANCH  39  40
ENDBRANCH   3  39
TORSDOF 17
ENDMDL
MODEL 6
REMARK VINA RESULT:      -6.8      1.858      4.382
REMARK  Name = 
REMARK  17 active torsions:
REMARK  status: ('A' for Active; 'I' for Inactive)
REMARK    1  A    between atoms: C_3  and  O_44
REMARK    2  A    between atoms: C_4  and  O_43
REMARK    3  A    between atoms: C_6  and  C_7
REMARK    4  A    between atoms: C_8  and  O_20
REMARK    5  A    between atoms: C_12  and  O_19
REMARK    6  A    between atoms: C_14  and  O_18
REMARK    7  A    between atoms: O_20  and  C_21
REMARK    8  A    between atoms: C_22  and  O_42
REMARK    9  A    between atoms: C_23  and  O_41
REMARK   10  A    between atoms: C_24  and  O_40
REMARK   11  A    between atoms: C_25  and  C_27
REMARK   12  A    between atoms: C_27  and  O_28
REMARK   13  A    between atoms: O_28  and  C_29
REMARK   14  A    between atoms: C_29  and  C_31
REMARK   15  A    between atoms: C_33  and  O_39
REMARK   16  A    between atoms: C_34  and  O_38
REMARK   17  A    between atoms: C_35  and  O_37
REMARK                            x       y       z     vdW  Elec       q    Type
REMARK                         _______ _______ _______ _____ _____    ______ ____
ROOT
ATOM      1  C   UNL     1       5.669  -0.998  27.709  0.00  0.00    +0.340 C 
ATOM      2  O   UNL     1       5.515  -2.410  27.487  0.00  0.00    -0.330 OA
ATOM      3  C   UNL     1       4.311  -2.900  26.856  0.00  0.00    +0.191 C 
ATOM      4  C   UNL     1       3.023  -2.038  26.971  0.00  0.00    +0.178 C 
ATOM      5  C   UNL     1       3.255  -0.589  27.408  0.00  0.00    +0.180 C 
ATOM      6  C   UNL     1       4.388  -0.550  28.434  0.00  0.00    +0.214 C 
ENDROOT
BRANCH   4   7
ATOM      7  O   UNL     1       2.047  -2.626  27.862  0.00  0.00    -0.386 OA
ATOM      8  H   UNL     1       1.885  -1.994  28.591  0.00  0.00    +0.210 HD
ENDBRANCH   4   7
BRANCH   5   9
ATOM      9  O   UNL     1       2.038  -0.072  27.968  0.00  0.00    -0.386 OA
ATOM     10  H   UNL     1       1.374  -0.784  27.925  0.00  0.00    +0.210 HD
ENDBRANCH   5   9
BRANCH   6  11
ATOM     11  O   UNL     1       4.484   0.702  29.105  0.00  0.00    -0.383 OA
ATOM     12  H   UNL     1       3.667   0.877  29.591  0.00  0.00    +0.210 HD
ENDBRANCH   6  11
BRANCH   1  13
ATOM     13  O   UNL     1       5.970  -0.365  26.448  0.00  0.00    -0.453 OA
BRANCH  13  24
ATOM     14  C   UNL     1       8.295  -0.181  25.661  0.00  0.00    +0.181 A 
ATOM     15  O   UNL     1       9.289   0.632  25.094  0.00  0.00    -0.451 OA
ATOM     16  C   UNL     1       9.065   1.941  24.794  0.00  0.00    +0.147 A 
ATOM     17  C   UNL     1       7.977   2.619  25.297  0.00  0.00    +0.109 A 
ATOM     18  C   UNL     1       7.865   3.997  25.049  0.00  0.00    +0.135 A 
ATOM     19  C   UNL     1       8.821   4.674  24.284  0.00  0.00    +0.091 A 
ATOM     20  C   UNL     1       9.887   3.962  23.750  0.00  0.00    +0.124 A 
ATOM     21  C   UNL     1       6.986   1.841  26.060  0.00  0.00    +0.238 A 
ATOM     22  O   UNL     1       6.024   2.436  26.540  0.00  0.00    -0.283 OA
ATOM     23  C   UNL     1      10.014   2.598  23.996  0.00  0.00    +0.092 A 
ATOM     24  C   UNL     1       7.141   0.335  26.176  0.00  0.00    +0.214 A 
BRANCH  14  26
ATOM     25  C   UNL     1       9.182  -2.041  24.210  0.00  0.00    +0.015 A 
ATOM     26  C   UNL     1       8.715  -1.621  25.488  0.00  0.00    +0.025 A 
ATOM     27  C   UNL     1       8.656  -2.612  26.472  0.00  0.00    +0.060 A 
ATOM     28  C   UNL     1       8.962  -3.941  26.169  0.00  0.00    +0.159 A 
ATOM     29  C   UNL     1       9.300  -4.331  24.881  0.00  0.00    +0.158 A 
ATOM     30  C   UNL     1       9.442  -3.380  23.895  0.00  0.00    +0.050 A 
BRANCH  28  31
ATOM     31  O   UNL     1       8.896  -4.878  27.162  0.00  0.00    -0.503 OA
ATOM     32  H   UNL     1       7.984  -4.812  27.507  0.00  0.00    +0.292 HD
ENDBRANCH  28  31
BRANCH  29  33
ATOM     33  O   UNL     1       9.447  -5.664  24.625  0.00  0.00    -0.503 OA
ATOM     34  H   UNL     1       8.669  -6.121  24.994  0.00  0.00    +0.292 HD
ENDBRANCH  29  33
ENDBRANCH  14  26
BRANCH  20  35
ATOM     35  O   UNL     1      10.843   4.572  22.992  0.00  0.00    -0.507 OA
ATOM     36  H   UNL     1      11.625   3.996  22.936  0.00  0.00    +0.292 HD
ENDBRANCH  20  35
BRANCH  18  37
ATOM     37  O   UNL     1       6.840   4.763  25.533  0.00  0.00    -0.506 OA
ATOM     38  H   UNL     1       6.757   4.587  26.496  0.00  0.00    +0.292 HD
ENDBRANCH  18  37
ENDBRANCH  13  24
ENDBRANCH   1  13
BRANCH   3  39
ATOM     39  C   UNL     1       4.023  -4.315  27.422  0.00  0.00    +0.266 C 
BRANCH  39  40
ATOM     40  O   UNL     1       4.142  -5.322  26.413  0.00  0.00    -0.458 OA
BRANCH  40  41
ATOM     41  C   UNL     1       5.404  -5.519  25.956  0.00  0.00    +0.340 C 
ATOM     42  O   UNL     1       6.336  -6.035  26.561  0.00  0.00    -0.245 OA
BRANCH  41  43
ATOM     43  C   UNL     1       5.512  -5.047  24.565  0.00  0.00    +0.066 A 
ATOM     44  C   UNL     1       5.713  -3.686  24.257  0.00  0.00    +0.064 A 
ATOM     45  C   UNL     1       5.794  -3.311  22.930  0.00  0.00    +0.163 A 
ATOM     46  C   UNL     1       5.665  -4.249  21.914  0.00  0.00    +0.201 A 
ATOM     47  C   UNL     1       5.457  -5.588  22.215  0.00  0.00    +0.163 A 
ATOM     48  C   UNL     1       5.374  -5.997  23.539  0.00  0.00    +0.064 A 
BRANCH  45  49
ATOM     49  O   UNL     1       6.011  -1.999  22.628  0.00  0.00    -0.503 OA
ATOM     50  H   UNL     1       6.755  -1.749  23.210  0.00  0.00    +0.292 HD
ENDBRANCH  45  49
BRANCH  46  51
ATOM     51  O   UNL     1       5.764  -3.836  20.613  0.00  0.00    -0.501 OA
ATOM     52  H   UNL     1       6.346  -4.500  20.189  0.00  0.00    +0.292 HD
ENDBRANCH  46  51
BRANCH  47  53
ATOM     53  O   UNL     1       5.354  -6.472  21.177  0.00  0.00    -0.503 OA
ATOM     54  H   UNL     1       4.921  -6.020  20.431  0.00  0.00    +0.292 HD
ENDBRANCH  47  53
ENDBRANCH  41  43
ENDBRANCH  40  41
ENDBRANCH  39  40
ENDBRANCH   3  39
TORSDOF 17
ENDMDL
MODEL 7
REMARK VINA RESULT:      -6.8      1.706      2.876
REMARK  Name = 
REMARK  17 active torsions:
REMARK  status: ('A' for Active; 'I' for Inactive)
REMARK    1  A    between atoms: C_3  and  O_44
REMARK    2  A    between atoms: C_4  and  O_43
REMARK    3  A    between atoms: C_6  and  C_7
REMARK    4  A    between atoms: C_8  and  O_20
REMARK    5  A    between atoms: C_12  and  O_19
REMARK    6  A    between atoms: C_14  and  O_18
REMARK    7  A    between atoms: O_20  and  C_21
REMARK    8  A    between atoms: C_22  and  O_42
REMARK    9  A    between atoms: C_23  and  O_41
REMARK   10  A    between atoms: C_24  and  O_40
REMARK   11  A    between atoms: C_25  and  C_27
REMARK   12  A    between atoms: C_27  and  O_28
REMARK   13  A    between atoms: O_28  and  C_29
REMARK   14  A    between atoms: C_29  and  C_31
REMARK   15  A    between atoms: C_33  and  O_39
REMARK   16  A    between atoms: C_34  and  O_38
REMARK   17  A    between atoms: C_35  and  O_37
REMARK                            x       y       z     vdW  Elec       q    Type
REMARK                         _______ _______ _______ _____ _____    ______ ____
ROOT
ATOM      1  C   UNL     1       4.098  -0.844  27.048  0.00  0.00    +0.340 C 
ATOM      2  O   UNL     1       4.756  -1.984  27.624  0.00  0.00    -0.330 OA
ATOM      3  C   UNL     1       4.221  -3.306  27.386  0.00  0.00    +0.191 C 
ATOM      4  C   UNL     1       2.709  -3.432  27.050  0.00  0.00    +0.178 C 
ATOM      5  C   UNL     1       2.030  -2.124  26.634  0.00  0.00    +0.180 C 
ATOM      6  C   UNL     1       2.618  -0.973  27.449  0.00  0.00    +0.214 C 
ENDROOT
BRANCH   4   7
ATOM      7  O   UNL     1       1.951  -4.005  28.141  0.00  0.00    -0.386 OA
ATOM      8  H   UNL     1       1.170  -3.437  28.296  0.00  0.00    +0.210 HD
ENDBRANCH   4   7
BRANCH   5   9
ATOM      9  O   UNL     1       0.617  -2.242  26.857  0.00  0.00    -0.386 OA
ATOM     10  H   UNL     1       0.365  -3.157  26.635  0.00  0.00    +0.210 HD
ENDBRANCH   5   9
BRANCH   6  11
ATOM     11  O   UNL     1       1.859   0.228  27.338  0.00  0.00    -0.383 OA
ATOM     12  H   UNL     1       0.915   0.020  27.344  0.00  0.00    +0.210 HD
ENDBRANCH   6  11
BRANCH   1  13
ATOM     13  O   UNL     1       4.398  -0.804  25.637  0.00  0.00    -0.453 OA
BRANCH  13  24
ATOM     14  C   UNL     1       6.294  -1.396  24.183  0.00  0.00    +0.181 A 
ATOM     15  O   UNL     1       7.403  -0.950  23.448  0.00  0.00    -0.451 OA
ATOM     16  C   UNL     1       7.769   0.361  23.420  0.00  0.00    +0.147 A 
ATOM     17  C   UNL     1       7.275   1.266  24.334  0.00  0.00    +0.109 A 
ATOM     18  C   UNL     1       7.780   2.576  24.328  0.00  0.00    +0.135 A 
ATOM     19  C   UNL     1       8.749   2.974  23.401  0.00  0.00    +0.091 A 
ATOM     20  C   UNL     1       9.201   2.057  22.461  0.00  0.00    +0.124 A 
ATOM     21  C   UNL     1       6.228   0.795  25.257  0.00  0.00    +0.238 A 
ATOM     22  O   UNL     1       5.796   1.582  26.096  0.00  0.00    -0.283 OA
ATOM     23  C   UNL     1       8.715   0.754  22.462  0.00  0.00    +0.092 A 
ATOM     24  C   UNL     1       5.669  -0.609  25.106  0.00  0.00    +0.214 A 
BRANCH  14  26
ATOM     25  C   UNL     1       6.628  -3.295  22.560  0.00  0.00    +0.015 A 
ATOM     26  C   UNL     1       5.930  -2.775  23.687  0.00  0.00    +0.025 A 
ATOM     27  C   UNL     1       4.928  -3.595  24.215  0.00  0.00    +0.060 A 
ATOM     28  C   UNL     1       4.597  -4.806  23.603  0.00  0.00    +0.159 A 
ATOM     29  C   UNL     1       5.222  -5.222  22.436  0.00  0.00    +0.158 A 
ATOM     30  C   UNL     1       6.264  -4.485  21.919  0.00  0.00    +0.050 A 
BRANCH  28  31
ATOM     31  O   UNL     1       3.615  -5.580  24.155  0.00  0.00    -0.503 OA
ATOM     32  H   UNL     1       2.950  -5.680  23.445  0.00  0.00    +0.292 HD
ENDBRANCH  28  31
BRANCH  29  33
ATOM     33  O   UNL     1       4.752  -6.343  21.814  0.00  0.00    -0.503 OA
ATOM     34  H   UNL     1       3.784  -6.355  21.922  0.00  0.00    +0.292 HD
ENDBRANCH  29  33
ENDBRANCH  14  26
BRANCH  20  35
ATOM     35  O   UNL     1      10.139   2.396  21.531  0.00  0.00    -0.507 OA
ATOM     36  H   UNL     1       9.889   3.239  21.115  0.00  0.00    +0.292 HD
ENDBRANCH  20  35
BRANCH  18  37
ATOM     37  O   UNL     1       7.377   3.536  25.216  0.00  0.00    -0.506 OA
ATOM     38  H   UNL     1       6.405   3.457  25.331  0.00  0.00    +0.292 HD
ENDBRANCH  18  37
ENDBRANCH  13  24
ENDBRANCH   1  13
BRANCH   3  39
ATOM     39  C   UNL     1       4.536  -4.175  28.631  0.00  0.00    +0.266 C 
BRANCH  39  40
ATOM     40  O   UNL     1       5.926  -4.506  28.706  0.00  0.00    -0.458 OA
BRANCH  40  41
ATOM     41  C   UNL     1       6.329  -5.458  27.828  0.00  0.00    +0.340 C 
ATOM     42  O   UNL     1       5.934  -6.616  27.762  0.00  0.00    -0.245 OA
BRANCH  41  43
ATOM     43  C   UNL     1       7.318  -4.892  26.894  0.00  0.00    +0.066 A 
ATOM     44  C   UNL     1       7.688  -3.533  26.942  0.00  0.00    +0.064 A 
ATOM     45  C   UNL     1       8.614  -3.065  26.029  0.00  0.00    +0.163 A 
ATOM     46  C   UNL     1       9.160  -3.909  25.071  0.00  0.00    +0.201 A 
ATOM     47  C   UNL     1       8.789  -5.246  25.016  0.00  0.00    +0.163 A 
ATOM     48  C   UNL     1       7.863  -5.746  25.921  0.00  0.00    +0.064 A 
BRANCH  45  49
ATOM     49  O   UNL     1       8.993  -1.756  26.085  0.00  0.00    -0.503 OA
ATOM     50  H   UNL     1       9.484  -1.696  26.928  0.00  0.00    +0.292 HD
ENDBRANCH  45  49
BRANCH  46  51
ATOM     51  O   UNL     1      10.083  -3.408  24.193  0.00  0.00    -0.501 OA
ATOM     52  H   UNL     1       9.914  -3.890  23.357  0.00  0.00    +0.292 HD
ENDBRANCH  46  51
BRANCH  47  53
ATOM     53  O   UNL     1       9.369  -6.037  24.064  0.00  0.00    -0.503 OA
ATOM     54  H   UNL     1       8.665  -6.408  23.503  0.00  0.00    +0.292 HD
ENDBRANCH  47  53
ENDBRANCH  41  43
ENDBRANCH  40  41
ENDBRANCH  39  40
ENDBRANCH   3  39
TORSDOF 17
ENDMDL
MODEL 8
REMARK VINA RESULT:      -6.8      2.325      4.909
REMARK  Name = 
REMARK  17 active torsions:
REMARK  status: ('A' for Active; 'I' for Inactive)
REMARK    1  A    between atoms: C_3  and  O_44
REMARK    2  A    between atoms: C_4  and  O_43
REMARK    3  A    between atoms: C_6  and  C_7
REMARK    4  A    between atoms: C_8  and  O_20
REMARK    5  A    between atoms: C_12  and  O_19
REMARK    6  A    between atoms: C_14  and  O_18
REMARK    7  A    between atoms: O_20  and  C_21
REMARK    8  A    between atoms: C_22  and  O_42
REMARK    9  A    between atoms: C_23  and  O_41
REMARK   10  A    between atoms: C_24  and  O_40
REMARK   11  A    between atoms: C_25  and  C_27
REMARK   12  A    between atoms: C_27  and  O_28
REMARK   13  A    between atoms: O_28  and  C_29
REMARK   14  A    between atoms: C_29  and  C_31
REMARK   15  A    between atoms: C_33  and  O_39
REMARK   16  A    between atoms: C_34  and  O_38
REMARK   17  A    between atoms: C_35  and  O_37
REMARK                            x       y       z     vdW  Elec       q    Type
REMARK                         _______ _______ _______ _____ _____    ______ ____
ROOT
ATOM      1  C   UNL     1       5.693   0.502  27.754  0.00  0.00    +0.340 C 
ATOM      2  O   UNL     1       6.181  -0.840  27.593  0.00  0.00    -0.330 OA
ATOM      3  C   UNL     1       5.392  -1.797  26.852  0.00  0.00    +0.191 C 
ATOM      4  C   UNL     1       3.857  -1.567  26.766  0.00  0.00    +0.178 C 
ATOM      5  C   UNL     1       3.395  -0.158  27.147  0.00  0.00    +0.180 C 
ATOM      6  C   UNL     1       4.260   0.360  28.296  0.00  0.00    +0.214 C 
ENDROOT
BRANCH   4   7
ATOM      7  O   UNL     1       3.115  -2.516  27.566  0.00  0.00    -0.386 OA
ATOM      8  H   UNL     1       3.398  -2.411  28.497  0.00  0.00    +0.210 HD
ENDBRANCH   4   7
BRANCH   5   9
ATOM      9  O   UNL     1       2.011  -0.210  27.530  0.00  0.00    -0.386 OA
ATOM     10  H   UNL     1       1.493  -0.352  26.717  0.00  0.00    +0.210 HD
ENDBRANCH   5   9
BRANCH   6  11
ATOM     11  O   UNL     1       3.729   1.533  28.904  0.00  0.00    -0.383 OA
ATOM     12  H   UNL     1       3.335   1.310  29.758  0.00  0.00    +0.210 HD
ENDBRANCH   6  11
BRANCH   1  13
ATOM     13  O   UNL     1       5.860   1.204  26.505  0.00  0.00    -0.453 OA
BRANCH  13  24
ATOM     14  C   UNL     1       7.828   1.131  25.029  0.00  0.00    +0.181 A 
ATOM     15  O   UNL     1       8.838   1.850  24.370  0.00  0.00    -0.451 OA
ATOM     16  C   UNL     1       8.964   3.199  24.501  0.00  0.00    +0.147 A 
ATOM     17  C   UNL     1       8.318   3.889  25.503  0.00  0.00    +0.109 A 
ATOM     18  C   UNL     1       8.581   5.260  25.657  0.00  0.00    +0.135 A 
ATOM     19  C   UNL     1       9.462   5.929  24.800  0.00  0.00    +0.091 A 
ATOM     20  C   UNL     1      10.069   5.222  23.770  0.00  0.00    +0.124 A 
ATOM     21  C   UNL     1       7.374   3.136  26.345  0.00  0.00    +0.238 A 
ATOM     22  O   UNL     1       6.810   3.730  27.261  0.00  0.00    -0.283 OA
ATOM     23  C   UNL     1       9.823   3.862  23.612  0.00  0.00    +0.092 A 
ATOM     24  C   UNL     1       7.074   1.682  26.024  0.00  0.00    +0.214 A 
BRANCH  14  26
ATOM     25  C   UNL     1       8.821  -1.115  24.463  0.00  0.00    +0.015 A 
ATOM     26  C   UNL     1       7.714  -0.223  24.370  0.00  0.00    +0.025 A 
ATOM     27  C   UNL     1       6.620  -0.683  23.632  0.00  0.00    +0.060 A 
ATOM     28  C   UNL     1       6.670  -1.911  22.968  0.00  0.00    +0.159 A 
ATOM     29  C   UNL     1       7.812  -2.699  22.986  0.00  0.00    +0.158 A 
ATOM     30  C   UNL     1       8.889  -2.322  23.758  0.00  0.00    +0.050 A 
BRANCH  28  31
ATOM     31  O   UNL     1       5.576  -2.326  22.262  0.00  0.00    -0.503 OA
ATOM     32  H   UNL     1       5.110  -2.941  22.863  0.00  0.00    +0.292 HD
ENDBRANCH  28  31
BRANCH  29  33
ATOM     33  O   UNL     1       7.842  -3.815  22.200  0.00  0.00    -0.503 OA
ATOM     34  H   UNL     1       7.723  -4.588  22.783  0.00  0.00    +0.292 HD
ENDBRANCH  29  33
ENDBRANCH  14  26
BRANCH  20  35
ATOM     35  O   UNL     1      10.930   5.828  22.903  0.00  0.00    -0.507 OA
ATOM     36  H   UNL     1      11.795   5.940  23.335  0.00  0.00    +0.292 HD
ENDBRANCH  20  35
BRANCH  18  37
ATOM     37  O   UNL     1       8.015   6.023  26.642  0.00  0.00    -0.506 OA
ATOM     38  H   UNL     1       7.054   5.821  26.670  0.00  0.00    +0.292 HD
ENDBRANCH  18  37
ENDBRANCH  13  24
ENDBRANCH   1  13
BRANCH   3  39
ATOM     39  C   UNL     1       5.659  -3.199  27.457  0.00  0.00    +0.266 C 
BRANCH  39  40
ATOM     40  O   UNL     1       6.807  -3.819  26.870  0.00  0.00    -0.458 OA
BRANCH  40  41
ATOM     41  C   UNL     1       6.800  -5.175  26.908  0.00  0.00    +0.340 C 
ATOM     42  O   UNL     1       7.445  -5.895  27.660  0.00  0.00    -0.245 OA
BRANCH  41  43
ATOM     43  C   UNL     1       5.847  -5.699  25.914  0.00  0.00    +0.066 A 
ATOM     44  C   UNL     1       4.956  -6.747  26.222  0.00  0.00    +0.064 A 
ATOM     45  C   UNL     1       4.096  -7.198  25.239  0.00  0.00    +0.163 A 
ATOM     46  C   UNL     1       4.116  -6.645  23.965  0.00  0.00    +0.201 A 
ATOM     47  C   UNL     1       5.001  -5.619  23.657  0.00  0.00    +0.163 A 
ATOM     48  C   UNL     1       5.875  -5.143  24.624  0.00  0.00    +0.064 A 
BRANCH  45  49
ATOM     49  O   UNL     1       3.217  -8.196  25.539  0.00  0.00    -0.503 OA
ATOM     50  H   UNL     1       3.756  -9.007  25.463  0.00  0.00    +0.292 HD
ENDBRANCH  45  49
BRANCH  46  51
ATOM     51  O   UNL     1       3.240  -7.113  23.024  0.00  0.00    -0.501 OA
ATOM     52  H   UNL     1       2.693  -6.335  22.789  0.00  0.00    +0.292 HD
ENDBRANCH  46  51
BRANCH  47  53
ATOM     53  O   UNL     1       4.968  -5.100  22.393  0.00  0.00    -0.503 OA
ATOM     54  H   UNL     1       5.873  -5.109  22.034  0.00  0.00    +0.292 HD
ENDBRANCH  47  53
ENDBRANCH  41  43
ENDBRANCH  40  41
ENDBRANCH  39  40
ENDBRANCH   3  39
TORSDOF 17
ENDMDL
MODEL 9
REMARK VINA RESULT:      -6.8      2.532      7.564
REMARK  Name = 
REMARK  17 active torsions:
REMARK  status: ('A' for Active; 'I' for Inactive)
REMARK    1  A    between atoms: C_3  and  O_44
REMARK    2  A    between atoms: C_4  and  O_43
REMARK    3  A    between atoms: C_6  and  C_7
REMARK    4  A    between atoms: C_8  and  O_20
REMARK    5  A    between atoms: C_12  and  O_19
REMARK    6  A    between atoms: C_14  and  O_18
REMARK    7  A    between atoms: O_20  and  C_21
REMARK    8  A    between atoms: C_22  and  O_42
REMARK    9  A    between atoms: C_23  and  O_41
REMARK   10  A    between atoms: C_24  and  O_40
REMARK   11  A    between atoms: C_25  and  C_27
REMARK   12  A    between atoms: C_27  and  O_28
REMARK   13  A    between atoms: O_28  and  C_29
REMARK   14  A    between atoms: C_29  and  C_31
REMARK   15  A    between atoms: C_33  and  O_39
REMARK   16  A    between atoms: C_34  and  O_38
REMARK   17  A    between atoms: C_35  and  O_37
REMARK                            x       y       z     vdW  Elec       q    Type
REMARK                         _______ _______ _______ _____ _____    ______ ____
ROOT
ATOM      1  C   UNL     1       5.650   1.732  23.428  0.00  0.00    +0.340 C 
ATOM      2  O   UNL     1       6.996   2.208  23.595  0.00  0.00    -0.330 OA
ATOM      3  C   UNL     1       7.284   3.165  24.639  0.00  0.00    +0.191 C 
ATOM      4  C   UNL     1       6.124   4.072  25.140  0.00  0.00    +0.178 C 
ATOM      5  C   UNL     1       4.722   3.598  24.748  0.00  0.00    +0.180 C 
ATOM      6  C   UNL     1       4.771   2.992  23.345  0.00  0.00    +0.214 C 
ENDROOT
BRANCH   4   7
ATOM      7  O   UNL     1       6.274   5.443  24.705  0.00  0.00    -0.386 OA
ATOM      8  H   UNL     1       5.677   5.584  23.943  0.00  0.00    +0.210 HD
ENDBRANCH   4   7
BRANCH   5   9
ATOM      9  O   UNL     1       3.824   4.718  24.791  0.00  0.00    -0.386 OA
ATOM     10  H   UNL     1       4.098   5.336  24.090  0.00  0.00    +0.210 HD
ENDBRANCH   5   9
BRANCH   6  11
ATOM     11  O   UNL     1       3.478   2.786  22.785  0.00  0.00    -0.383 OA
ATOM     12  H   UNL     1       2.804   2.885  23.472  0.00  0.00    +0.210 HD
ENDBRANCH   6  11
BRANCH   1  13
ATOM     13  O   UNL     1       5.360   0.793  24.485  0.00  0.00    -0.453 OA
BRANCH  13  24
ATOM     14  C   UNL     1       6.672  -0.244  26.291  0.00  0.00    +0.181 A 
ATOM     15  O   UNL     1       7.303  -1.399  26.778  0.00  0.00    -0.451 OA
ATOM     16  C   UNL     1       7.328  -2.561  26.069  0.00  0.00    +0.147 A 
ATOM     17  C   UNL     1       7.014  -2.592  24.728  0.00  0.00    +0.109 A 
ATOM     18  C   UNL     1       7.173  -3.797  24.025  0.00  0.00    +0.135 A 
ATOM     19  C   UNL     1       7.618  -4.957  24.668  0.00  0.00    +0.091 A 
ATOM     20  C   UNL     1       7.888  -4.913  26.030  0.00  0.00    +0.124 A 
ATOM     21  C   UNL     1       6.513  -1.348  24.119  0.00  0.00    +0.238 A 
ATOM     22  O   UNL     1       6.254  -1.352  22.918  0.00  0.00    -0.283 OA
ATOM     23  C   UNL     1       7.742  -3.723  26.736  0.00  0.00    +0.092 A 
ATOM     24  C   UNL     1       6.269  -0.130  24.992  0.00  0.00    +0.214 A 
BRANCH  14  26
ATOM     25  C   UNL     1       5.165   1.222  27.681  0.00  0.00    +0.015 A 
ATOM     26  C   UNL     1       6.471   0.702  27.450  0.00  0.00    +0.025 A 
ATOM     27  C   UNL     1       7.470   1.156  28.316  0.00  0.00    +0.060 A 
ATOM     28  C   UNL     1       7.193   2.123  29.285  0.00  0.00    +0.159 A 
ATOM     29  C   UNL     1       5.932   2.692  29.401  0.00  0.00    +0.158 A 
ATOM     30  C   UNL     1       4.899   2.226  28.619  0.00  0.00    +0.050 A 
BRANCH  28  31
ATOM     31  O   UNL     1       8.198   2.536  30.115  0.00  0.00    -0.503 OA
ATOM     32  H   UNL     1       7.768   3.160  30.734  0.00  0.00    +0.292 HD
ENDBRANCH  28  31
BRANCH  29  33
ATOM     33  O   UNL     1       5.768   3.731  30.271  0.00  0.00    -0.503 OA
ATOM     34  H   UNL     1       6.653   3.995  30.584  0.00  0.00    +0.292 HD
ENDBRANCH  29  33
ENDBRANCH  14  26
BRANCH  20  35
ATOM     35  O   UNL     1       8.318  -6.017  26.706  0.00  0.00    -0.507 OA
ATOM     36  H   UNL     1       9.278  -6.115  26.583  0.00  0.00    +0.292 HD
ENDBRANCH  20  35
BRANCH  18  37
ATOM     37  O   UNL     1       6.919  -3.920  22.686  0.00  0.00    -0.506 OA
ATOM     38  H   UNL     1       5.966  -3.732  22.538  0.00  0.00    +0.292 HD
ENDBRANCH  18  37
ENDBRANCH  13  24
ENDBRANCH   1  13
BRANCH   3  39
ATOM     39  C   UNL     1       8.450   4.062  24.151  0.00  0.00    +0.266 C 
BRANCH  39  40
ATOM     40  O   UNL     1       9.718   3.571  24.598  0.00  0.00    -0.458 OA
BRANCH  40  41
ATOM     41  C   UNL     1      10.561   3.195  23.604  0.00  0.00    +0.340 C 
ATOM     42  O   UNL     1      11.484   3.847  23.133  0.00  0.00    -0.245 OA
BRANCH  41  43
ATOM     43  C   UNL     1      10.239   1.825  23.166  0.00  0.00    +0.066 A 
ATOM     44  C   UNL     1       9.782   1.554  21.860  0.00  0.00    +0.064 A 
ATOM     45  C   UNL     1       9.489   0.248  21.518  0.00  0.00    +0.163 A 
ATOM     46  C   UNL     1       9.623  -0.780  22.443  0.00  0.00    +0.201 A 
ATOM     47  C   UNL     1      10.063  -0.512  23.733  0.00  0.00    +0.163 A 
ATOM     48  C   UNL     1      10.368   0.789  24.106  0.00  0.00    +0.064 A 
BRANCH  45  49
ATOM     49  O   UNL     1       9.068  -0.024  20.250  0.00  0.00    -0.503 OA
ATOM     50  H   UNL     1       9.168   0.831  19.787  0.00  0.00    +0.292 HD
ENDBRANCH  45  49
BRANCH  46  51
ATOM     51  O   UNL     1       9.332  -2.061  22.060  0.00  0.00    -0.501 OA
ATOM     52  H   UNL     1       8.363  -2.061  21.919  0.00  0.00    +0.292 HD
ENDBRANCH  46  51
BRANCH  47  53
ATOM     53  O   UNL     1      10.193  -1.562  24.599  0.00  0.00    -0.503 OA
ATOM     54  H   UNL     1       9.443  -2.168  24.461  0.00  0.00    +0.292 HD
ENDBRANCH  47  53
ENDBRANCH  41  43
ENDBRANCH  40  41
ENDBRANCH  39  40
ENDBRANCH   3  39
TORSDOF 17
ENDMDL
