MODEL 1
REMARK VINA RESULT:      -6.9      0.000      0.000
REMARK  Name = 
REMARK  22 active torsions:
REMARK  status: ('A' for Active; 'I' for Inactive)
REMARK    1  A    between atoms: C_1  and  C_2
REMARK    2  A    between atoms: C_3  and  O_61
REMARK    3  A    between atoms: C_5  and  O_60
REMARK    4  A    between atoms: C_7  and  O_59
REMARK    5  A    between atoms: C_8  and  O_11
REMARK    6  A    between atoms: O_11  and  C_12
REMARK    7  A    between atoms: C_12  and  C_13
REMARK    8  A    between atoms: C_14  and  O_58
REMARK    9  A    between atoms: C_16  and  O_57
REMARK   10  A    between atoms: C_17  and  O_56
REMARK   11  A    between atoms: C_18  and  O_21
REMARK   12  A    between atoms: O_21  and  C_22
REMARK   13  A    between atoms: C_23  and  C_48
REMARK   14  A    between atoms: C_27  and  O_34
REMARK   15  A    between atoms: C_29  and  O_33
REMARK   16  A    between atoms: O_34  and  C_35
REMARK   17  A    between atoms: C_37  and  O_47
REMARK   18  A    between atoms: C_38  and  O_46
REMARK   19  A    between atoms: C_40  and  O_45
REMARK   20  A    between atoms: C_42  and  C_44
REMARK   21  A    between atoms: C_50  and  O_55
REMARK   22  A    between atoms: C_51  and  O_54
REMARK                            x       y       z     vdW  Elec       q    Type
REMARK                         _______ _______ _______ _____ _____    ______ ____
ROOT
ATOM      1  C   UNL     1       5.624   2.714  25.983  0.00  0.00    +0.214 A 
ATOM      2  C   UNL     1       6.437   1.858  26.905  0.00  0.00    +0.238 A 
ATOM      3  O   UNL     1       7.256   2.336  27.662  0.00  0.00    -0.283 OA
ATOM      4  C   UNL     1       6.124   0.378  26.860  0.00  0.00    +0.109 A 
ATOM      5  C   UNL     1       4.840   0.033  26.465  0.00  0.00    +0.147 A 
ATOM      6  C   UNL     1       4.422  -1.305  26.314  0.00  0.00    +0.093 A 
ATOM      7  C   UNL     1       5.304  -2.358  26.554  0.00  0.00    +0.131 A 
ATOM      8  C   UNL     1       6.592  -2.017  27.001  0.00  0.00    +0.092 A 
ATOM      9  O   UNL     1       3.914   1.001  26.197  0.00  0.00    -0.451 OA
ATOM     10  C   UNL     1       6.985  -0.665  27.171  0.00  0.00    +0.135 A 
ATOM     11  C   UNL     1       4.401   2.199  25.681  0.00  0.00    +0.181 A 
ENDROOT
BRANCH  11  12
ATOM     12  C   UNL     1       3.481   2.636  24.610  0.00  0.00    +0.025 A 
ATOM     13  C   UNL     1       2.193   3.006  25.046  0.00  0.00    +0.015 A 
ATOM     14  C   UNL     1       1.279   3.584  24.173  0.00  0.00    +0.050 A 
ATOM     15  C   UNL     1       1.679   3.911  22.899  0.00  0.00    +0.158 A 
ATOM     16  C   UNL     1       2.988   3.683  22.479  0.00  0.00    +0.159 A 
ATOM     17  C   UNL     1       3.892   3.007  23.316  0.00  0.00    +0.060 A 
BRANCH  16  18
ATOM     18  O   UNL     1       3.392   4.243  21.297  0.00  0.00    -0.503 OA
ATOM     19  H   UNL     1       4.339   4.049  21.179  0.00  0.00    +0.292 HD
ENDBRANCH  16  18
BRANCH  15  20
ATOM     20  O   UNL     1       0.759   4.532  22.108  0.00  0.00    -0.503 OA
ATOM     21  H   UNL     1       0.693   5.433  22.465  0.00  0.00    +0.292 HD
ENDBRANCH  15  20
ENDBRANCH  11  12
BRANCH  10  22
ATOM     22  O   UNL     1       8.249  -0.405  27.616  0.00  0.00    -0.506 OA
ATOM     23  H   UNL     1       8.876  -0.936  27.095  0.00  0.00    +0.292 HD
ENDBRANCH  10  22
BRANCH   7  24
ATOM     24  O   UNL     1       5.029  -3.704  26.368  0.00  0.00    -0.461 OA
BRANCH  24  25
ATOM     25  C   UNL     1       6.059  -4.483  25.715  0.00  0.00    +0.339 C 
ATOM     26  O   UNL     1       6.278  -4.029  24.377  0.00  0.00    -0.334 OA
ATOM     27  C   UNL     1       5.155  -4.276  23.520  0.00  0.00    +0.150 C 
ATOM     28  C   UNL     1       5.433  -3.575  22.197  0.00  0.00    +0.041 C 
ATOM     29  C   UNL     1       4.931  -5.787  23.334  0.00  0.00    +0.174 C 
ATOM     30  C   UNL     1       4.739  -6.474  24.699  0.00  0.00    +0.180 C 
ATOM     31  C   UNL     1       5.806  -6.019  25.699  0.00  0.00    +0.214 C 
BRANCH  31  32
ATOM     32  O   UNL     1       5.599  -6.561  27.001  0.00  0.00    -0.383 OA
ATOM     33  H   UNL     1       5.910  -5.897  27.644  0.00  0.00    +0.210 HD
ENDBRANCH  31  32
BRANCH  30  34
ATOM     34  O   UNL     1       3.400  -6.260  25.185  0.00  0.00    -0.386 OA
ATOM     35  H   UNL     1       2.788  -6.809  24.677  0.00  0.00    +0.210 HD
ENDBRANCH  30  34
BRANCH  29  36
ATOM     36  O   UNL     1       3.810  -6.032  22.485  0.00  0.00    -0.387 OA
ATOM     37  H   UNL     1       3.664  -5.225  21.951  0.00  0.00    +0.210 HD
ENDBRANCH  29  36
ENDBRANCH  24  25
ENDBRANCH   7  24
BRANCH   1  38
ATOM     38  O   UNL     1       6.063   3.944  25.492  0.00  0.00    -0.453 OA
BRANCH  38  41
ATOM     39  C   UNL     1       9.612   4.754  24.290  0.00  0.00    +0.179 C 
ATOM     40  O   UNL     1       8.485   4.345  25.140  0.00  0.00    -0.331 OA
ATOM     41  C   UNL     1       7.169   4.230  24.569  0.00  0.00    +0.340 C 
ATOM     42  C   UNL     1       6.798   5.349  23.555  0.00  0.00    +0.214 C 
ATOM     43  C   UNL     1       7.935   5.451  22.524  0.00  0.00    +0.180 C 
ATOM     44  C   UNL     1       9.268   5.800  23.220  0.00  0.00    +0.177 C 
BRANCH  44  45
ATOM     45  O   UNL     1       9.191   7.105  23.806  0.00  0.00    -0.386 OA
ATOM     46  H   UNL     1      10.099   7.372  24.054  0.00  0.00    +0.210 HD
ENDBRANCH  44  45
BRANCH  43  47
ATOM     47  O   UNL     1       7.625   6.448  21.542  0.00  0.00    -0.386 OA
ATOM     48  H   UNL     1       8.456   6.955  21.414  0.00  0.00    +0.210 HD
ENDBRANCH  43  47
BRANCH  42  49
ATOM     49  O   UNL     1       6.596   6.638  24.158  0.00  0.00    -0.383 OA
ATOM     50  H   UNL     1       6.458   7.301  23.455  0.00  0.00    +0.210 HD
ENDBRANCH  42  49
BRANCH  39  51
ATOM     51  C   UNL     1      10.450   3.576  23.693  0.00  0.00    +0.197 C 
BRANCH  51  52
ATOM     52  O   UNL     1      10.186   2.241  24.208  0.00  0.00    -0.346 OA
BRANCH  52  56
ATOM     53  C   UNL     1       6.447   0.635  22.609  0.00  0.00    +0.041 C 
ATOM     54  C   UNL     1       7.402  -0.063  23.576  0.00  0.00    +0.149 C 
ATOM     55  O   UNL     1       8.286   0.892  24.181  0.00  0.00    -0.343 OA
ATOM     56  C   UNL     1       9.357   1.387  23.384  0.00  0.00    +0.282 C 
ATOM     57  C   UNL     1      10.197   0.175  22.845  0.00  0.00    +0.201 C 
ATOM     58  C   UNL     1       9.275  -0.757  22.025  0.00  0.00    +0.179 C 
ATOM     59  C   UNL     1       8.115  -1.248  22.898  0.00  0.00    +0.174 C 
BRANCH  59  60
ATOM     60  O   UNL     1       8.611  -2.179  23.870  0.00  0.00    -0.387 OA
ATOM     61  H   UNL     1       9.482  -2.499  23.540  0.00  0.00    +0.210 HD
ENDBRANCH  59  60
BRANCH  58  62
ATOM     62  O   UNL     1       9.986  -1.872  21.471  0.00  0.00    -0.386 OA
ATOM     63  H   UNL     1      10.919  -1.786  21.749  0.00  0.00    +0.210 HD
ENDBRANCH  58  62
BRANCH  57  64
ATOM     64  O   UNL     1      10.742  -0.576  23.952  0.00  0.00    -0.384 OA
ATOM     65  H   UNL     1      11.641  -0.834  23.678  0.00  0.00    +0.210 HD
ENDBRANCH  57  64
ENDBRANCH  52  56
ENDBRANCH  51  52
ENDBRANCH  39  51
ENDBRANCH  38  41
ENDBRANCH   1  38
TORSDOF 20
ENDMDL
MODEL 2
REMARK VINA RESULT:      -6.3      2.352      9.363
REMARK  Name = 
REMARK  22 active torsions:
REMARK  status: ('A' for Active; 'I' for Inactive)
REMARK    1  A    between atoms: C_1  and  C_2
REMARK    2  A    between atoms: C_3  and  O_61
REMARK    3  A    between atoms: C_5  and  O_60
REMARK    4  A    between atoms: C_7  and  O_59
REMARK    5  A    between atoms: C_8  and  O_11
REMARK    6  A    between atoms: O_11  and  C_12
REMARK    7  A    between atoms: C_12  and  C_13
REMARK    8  A    between atoms: C_14  and  O_58
REMARK    9  A    between atoms: C_16  and  O_57
REMARK   10  A    between atoms: C_17  and  O_56
REMARK   11  A    between atoms: C_18  and  O_21
REMARK   12  A    between atoms: O_21  and  C_22
REMARK   13  A    between atoms: C_23  and  C_48
REMARK   14  A    between atoms: C_27  and  O_34
REMARK   15  A    between atoms: C_29  and  O_33
REMARK   16  A    between atoms: O_34  and  C_35
REMARK   17  A    between atoms: C_37  and  O_47
REMARK   18  A    between atoms: C_38  and  O_46
REMARK   19  A    between atoms: C_40  and  O_45
REMARK   20  A    between atoms: C_42  and  C_44
REMARK   21  A    between atoms: C_50  and  O_55
REMARK   22  A    between atoms: C_51  and  O_54
REMARK                            x       y       z     vdW  Elec       q    Type
REMARK                         _______ _______ _______ _____ _____    ______ ____
ROOT
ATOM      1  C   UNL     1       5.383  -2.285  27.549  0.00  0.00    +0.214 A 
ATOM      2  C   UNL     1       4.497  -1.093  27.746  0.00  0.00    +0.238 A 
ATOM      3  O   UNL     1       3.612  -1.086  28.575  0.00  0.00    -0.283 OA
ATOM      4  C   UNL     1       4.820   0.105  26.880  0.00  0.00    +0.109 A 
ATOM      5  C   UNL     1       6.136   0.219  26.455  0.00  0.00    +0.147 A 
ATOM      6  C   UNL     1       6.574   1.245  25.592  0.00  0.00    +0.093 A 
ATOM      7  C   UNL     1       5.680   2.203  25.115  0.00  0.00    +0.131 A 
ATOM      8  C   UNL     1       4.356   2.122  25.579  0.00  0.00    +0.092 A 
ATOM      9  O   UNL     1       7.076  -0.684  26.864  0.00  0.00    -0.451 OA
ATOM     10  C   UNL     1       3.942   1.097  26.467  0.00  0.00    +0.135 A 
ATOM     11  C   UNL     1       6.630  -1.981  27.098  0.00  0.00    +0.181 A 
ENDROOT
BRANCH  11  12
ATOM     12  C   UNL     1       7.637  -2.912  26.547  0.00  0.00    +0.025 A 
ATOM     13  C   UNL     1       7.344  -4.279  26.724  0.00  0.00    +0.015 A 
ATOM     14  C   UNL     1       8.120  -5.263  26.122  0.00  0.00    +0.050 A 
ATOM     15  C   UNL     1       9.112  -4.894  25.245  0.00  0.00    +0.158 A 
ATOM     16  C   UNL     1       9.338  -3.552  24.942  0.00  0.00    +0.159 A 
ATOM     17  C   UNL     1       8.630  -2.546  25.620  0.00  0.00    +0.060 A 
BRANCH  16  18
ATOM     18  O   UNL     1      10.165  -3.260  23.892  0.00  0.00    -0.503 OA
ATOM     19  H   UNL     1      10.865  -3.938  23.860  0.00  0.00    +0.292 HD
ENDBRANCH  16  18
BRANCH  15  20
ATOM     20  O   UNL     1       9.798  -5.902  24.636  0.00  0.00    -0.503 OA
ATOM     21  H   UNL     1       9.413  -5.962  23.746  0.00  0.00    +0.292 HD
ENDBRANCH  15  20
ENDBRANCH  11  12
BRANCH  10  22
ATOM     22  O   UNL     1       2.642   1.082  26.885  0.00  0.00    -0.506 OA
ATOM     23  H   UNL     1       2.425   1.956  27.253  0.00  0.00    +0.292 HD
ENDBRANCH  10  22
BRANCH   7  24
ATOM     24  O   UNL     1       5.977   3.209  24.208  0.00  0.00    -0.461 OA
BRANCH  24  25
ATOM     25  C   UNL     1       6.290   4.505  24.770  0.00  0.00    +0.339 C 
ATOM     26  O   UNL     1       5.392   5.507  24.287  0.00  0.00    -0.334 OA
ATOM     27  C   UNL     1       5.553   5.763  22.885  0.00  0.00    +0.150 C 
ATOM     28  C   UNL     1       4.421   6.688  22.461  0.00  0.00    +0.041 C 
ATOM     29  C   UNL     1       6.935   6.378  22.599  0.00  0.00    +0.174 C 
ATOM     30  C   UNL     1       8.053   5.455  23.118  0.00  0.00    +0.180 C 
ATOM     31  C   UNL     1       7.755   4.980  24.543  0.00  0.00    +0.214 C 
BRANCH  31  32
ATOM     32  O   UNL     1       8.721   4.045  25.019  0.00  0.00    -0.383 OA
ATOM     33  H   UNL     1       8.544   3.902  25.967  0.00  0.00    +0.210 HD
ENDBRANCH  31  32
BRANCH  30  34
ATOM     34  O   UNL     1       8.267   4.363  22.205  0.00  0.00    -0.386 OA
ATOM     35  H   UNL     1       7.868   4.580  21.353  0.00  0.00    +0.210 HD
ENDBRANCH  30  34
BRANCH  29  36
ATOM     36  O   UNL     1       7.097   6.629  21.202  0.00  0.00    -0.387 OA
ATOM     37  H   UNL     1       6.369   6.172  20.735  0.00  0.00    +0.210 HD
ENDBRANCH  29  36
ENDBRANCH  24  25
ENDBRANCH   7  24
BRANCH   1  38
ATOM     38  O   UNL     1       4.981  -3.592  27.826  0.00  0.00    -0.453 OA
BRANCH  38  41
ATOM     39  C   UNL     1       1.824  -4.494  25.848  0.00  0.00    +0.179 C 
ATOM     40  O   UNL     1       2.924  -3.726  26.448  0.00  0.00    -0.331 OA
ATOM     41  C   UNL     1       3.980  -4.418  27.137  0.00  0.00    +0.340 C 
ATOM     42  C   UNL     1       3.513  -5.611  28.019  0.00  0.00    +0.214 C 
ATOM     43  C   UNL     1       2.614  -6.514  27.158  0.00  0.00    +0.180 C 
ATOM     44  C   UNL     1       1.386  -5.728  26.649  0.00  0.00    +0.177 C 
BRANCH  44  45
ATOM     45  O   UNL     1       0.558  -5.339  27.752  0.00  0.00    -0.386 OA
ATOM     46  H   UNL     1      -0.340  -5.690  27.585  0.00  0.00    +0.210 HD
ENDBRANCH  44  45
BRANCH  43  47
ATOM     47  O   UNL     1       2.182  -7.651  27.916  0.00  0.00    -0.386 OA
ATOM     48  H   UNL     1       1.364  -7.363  28.375  0.00  0.00    +0.210 HD
ENDBRANCH  43  47
BRANCH  42  49
ATOM     49  O   UNL     1       2.788  -5.216  29.196  0.00  0.00    -0.383 OA
ATOM     50  H   UNL     1       2.928  -5.881  29.895  0.00  0.00    +0.210 HD
ENDBRANCH  42  49
BRANCH  39  51
ATOM     51  C   UNL     1       2.003  -4.828  24.330  0.00  0.00    +0.197 C 
BRANCH  51  52
ATOM     52  O   UNL     1       3.121  -5.681  23.962  0.00  0.00    -0.346 OA
BRANCH  52  56
ATOM     53  C   UNL     1       5.836  -2.277  23.551  0.00  0.00    +0.041 C 
ATOM     54  C   UNL     1       5.312  -3.169  22.427  0.00  0.00    +0.149 C 
ATOM     55  O   UNL     1       4.161  -3.905  22.868  0.00  0.00    -0.343 OA
ATOM     56  C   UNL     1       4.387  -5.017  23.728  0.00  0.00    +0.282 C 
ATOM     57  C   UNL     1       5.395  -6.002  23.038  0.00  0.00    +0.201 C 
ATOM     58  C   UNL     1       6.713  -5.251  22.738  0.00  0.00    +0.179 C 
ATOM     59  C   UNL     1       6.436  -4.042  21.838  0.00  0.00    +0.174 C 
BRANCH  59  60
ATOM     60  O   UNL     1       6.101  -4.497  20.519  0.00  0.00    -0.387 OA
ATOM     61  H   UNL     1       6.314  -5.457  20.486  0.00  0.00    +0.210 HD
ENDBRANCH  59  60
BRANCH  58  62
ATOM     62  O   UNL     1       7.697  -6.103  22.134  0.00  0.00    -0.386 OA
ATOM     63  H   UNL     1       7.466  -6.183  21.189  0.00  0.00    +0.210 HD
ENDBRANCH  58  62
BRANCH  57  64
ATOM     64  O   UNL     1       4.842  -6.476  21.790  0.00  0.00    -0.384 OA
ATOM     65  H   UNL     1       5.586  -6.486  21.160  0.00  0.00    +0.210 HD
ENDBRANCH  57  64
ENDBRANCH  52  56
ENDBRANCH  51  52
ENDBRANCH  39  51
ENDBRANCH  38  41
ENDBRANCH   1  38
TORSDOF 20
ENDMDL
MODEL 3
REMARK VINA RESULT:      -6.3      2.258      5.795
REMARK  Name = 
REMARK  22 active torsions:
REMARK  status: ('A' for Active; 'I' for Inactive)
REMARK    1  A    between atoms: C_1  and  C_2
REMARK    2  A    between atoms: C_3  and  O_61
REMARK    3  A    between atoms: C_5  and  O_60
REMARK    4  A    between atoms: C_7  and  O_59
REMARK    5  A    between atoms: C_8  and  O_11
REMARK    6  A    between atoms: O_11  and  C_12
REMARK    7  A    between atoms: C_12  and  C_13
REMARK    8  A    between atoms: C_14  and  O_58
REMARK    9  A    between atoms: C_16  and  O_57
REMARK   10  A    between atoms: C_17  and  O_56
REMARK   11  A    between atoms: C_18  and  O_21
REMARK   12  A    between atoms: O_21  and  C_22
REMARK   13  A    between atoms: C_23  and  C_48
REMARK   14  A    between atoms: C_27  and  O_34
REMARK   15  A    between atoms: C_29  and  O_33
REMARK   16  A    between atoms: O_34  and  C_35
REMARK   17  A    between atoms: C_37  and  O_47
REMARK   18  A    between atoms: C_38  and  O_46
REMARK   19  A    between atoms: C_40  and  O_45
REMARK   20  A    between atoms: C_42  and  C_44
REMARK   21  A    between atoms: C_50  and  O_55
REMARK   22  A    between atoms: C_51  and  O_54
REMARK                            x       y       z     vdW  Elec       q    Type
REMARK                         _______ _______ _______ _____ _____    ______ ____
ROOT
ATOM      1  C   UNL     1       7.958  -0.979  25.869  0.00  0.00    +0.214 A 
ATOM      2  C   UNL     1       8.523  -2.238  25.283  0.00  0.00    +0.238 A 
ATOM      3  O   UNL     1       9.689  -2.323  24.961  0.00  0.00    -0.283 OA
ATOM      4  C   UNL     1       7.553  -3.395  25.176  0.00  0.00    +0.109 A 
ATOM      5  C   UNL     1       6.503  -3.403  26.083  0.00  0.00    +0.147 A 
ATOM      6  C   UNL     1       5.487  -4.380  26.065  0.00  0.00    +0.093 A 
ATOM      7  C   UNL     1       5.493  -5.395  25.110  0.00  0.00    +0.131 A 
ATOM      8  C   UNL     1       6.579  -5.421  24.218  0.00  0.00    +0.092 A 
ATOM      9  O   UNL     1       6.412  -2.438  27.046  0.00  0.00    -0.451 OA
ATOM     10  C   UNL     1       7.604  -4.443  24.269  0.00  0.00    +0.135 A 
ATOM     11  C   UNL     1       6.911  -1.182  26.714  0.00  0.00    +0.181 A 
ENDROOT
BRANCH  11  12
ATOM     12  C   UNL     1       5.967  -0.170  27.233  0.00  0.00    +0.025 A 
ATOM     13  C   UNL     1       6.501   0.698  28.207  0.00  0.00    +0.015 A 
ATOM     14  C   UNL     1       5.777   1.792  28.667  0.00  0.00    +0.050 A 
ATOM     15  C   UNL     1       4.576   2.101  28.075  0.00  0.00    +0.158 A 
ATOM     16  C   UNL     1       4.084   1.342  27.015  0.00  0.00    +0.159 A 
ATOM     17  C   UNL     1       4.754   0.176  26.609  0.00  0.00    +0.060 A 
BRANCH  16  18
ATOM     18  O   UNL     1       3.016   1.833  26.313  0.00  0.00    -0.503 OA
ATOM     19  H   UNL     1       2.215   1.372  26.622  0.00  0.00    +0.292 HD
ENDBRANCH  16  18
BRANCH  15  20
ATOM     20  O   UNL     1       3.941   3.221  28.523  0.00  0.00    -0.503 OA
ATOM     21  H   UNL     1       3.035   3.144  28.185  0.00  0.00    +0.292 HD
ENDBRANCH  15  20
ENDBRANCH  11  12
BRANCH  10  22
ATOM     22  O   UNL     1       8.635  -4.532  23.378  0.00  0.00    -0.506 OA
ATOM     23  H   UNL     1       8.267  -4.719  22.497  0.00  0.00    +0.292 HD
ENDBRANCH  10  22
BRANCH   7  24
ATOM     24  O   UNL     1       4.512  -6.363  24.948  0.00  0.00    -0.461 OA
BRANCH  24  25
ATOM     25  C   UNL     1       3.150  -5.885  24.857  0.00  0.00    +0.339 C 
ATOM     26  O   UNL     1       2.637  -5.543  26.148  0.00  0.00    -0.334 OA
ATOM     27  C   UNL     1       2.476  -6.686  26.998  0.00  0.00    +0.150 C 
ATOM     28  C   UNL     1       2.120  -6.171  28.386  0.00  0.00    +0.041 C 
ATOM     29  C   UNL     1       1.397  -7.632  26.442  0.00  0.00    +0.174 C 
ATOM     30  C   UNL     1       1.748  -8.065  25.006  0.00  0.00    +0.180 C 
ATOM     31  C   UNL     1       2.160  -6.859  24.156  0.00  0.00    +0.214 C 
BRANCH  31  32
ATOM     32  O   UNL     1       2.586  -7.236  22.848  0.00  0.00    -0.383 OA
ATOM     33  H   UNL     1       2.384  -8.184  22.739  0.00  0.00    +0.210 HD
ENDBRANCH  31  32
BRANCH  30  34
ATOM     34  O   UNL     1       2.751  -9.098  25.023  0.00  0.00    -0.386 OA
ATOM     35  H   UNL     1       2.500  -9.771  25.669  0.00  0.00    +0.210 HD
ENDBRANCH  30  34
BRANCH  29  36
ATOM     36  O   UNL     1       1.240  -8.773  27.287  0.00  0.00    -0.387 OA
ATOM     37  H   UNL     1       0.285  -8.976  27.333  0.00  0.00    +0.210 HD
ENDBRANCH  29  36
ENDBRANCH  24  25
ENDBRANCH   7  24
BRANCH   1  38
ATOM     38  O   UNL     1       8.470   0.290  25.596  0.00  0.00    -0.453 OA
BRANCH  38  41
ATOM     39  C   UNL     1       7.031   1.518  22.262  0.00  0.00    +0.179 C 
ATOM     40  O   UNL     1       7.182   0.812  23.542  0.00  0.00    -0.331 OA
ATOM     41  C   UNL     1       8.301   1.117  24.394  0.00  0.00    +0.340 C 
ATOM     42  C   UNL     1       9.649   1.332  23.650  0.00  0.00    +0.214 C 
ATOM     43  C   UNL     1       9.411   2.348  22.521  0.00  0.00    +0.180 C 
ATOM     44  C   UNL     1       8.348   1.822  21.533  0.00  0.00    +0.177 C 
BRANCH  44  45
ATOM     45  O   UNL     1       8.831   0.648  20.868  0.00  0.00    -0.386 OA
ATOM     46  H   UNL     1       8.449   0.640  19.967  0.00  0.00    +0.210 HD
ENDBRANCH  44  45
BRANCH  43  47
ATOM     47  O   UNL     1      10.635   2.609  21.822  0.00  0.00    -0.386 OA
ATOM     48  H   UNL     1      10.402   3.251  21.118  0.00  0.00    +0.210 HD
ENDBRANCH  43  47
BRANCH  42  49
ATOM     49  O   UNL     1      10.202   0.129  23.087  0.00  0.00    -0.383 OA
ATOM     50  H   UNL     1       9.531  -0.577  23.122  0.00  0.00    +0.210 HD
ENDBRANCH  42  49
BRANCH  39  51
ATOM     51  C   UNL     1       6.097   2.772  22.306  0.00  0.00    +0.197 C 
BRANCH  51  52
ATOM     52  O   UNL     1       4.894   2.679  23.118  0.00  0.00    -0.346 OA
BRANCH  52  56
ATOM     53  C   UNL     1       4.724   6.470  25.291  0.00  0.00    +0.041 C 
ATOM     54  C   UNL     1       3.929   5.203  25.600  0.00  0.00    +0.149 C 
ATOM     55  O   UNL     1       4.524   4.069  24.952  0.00  0.00    -0.343 OA
ATOM     56  C   UNL     1       4.312   3.933  23.551  0.00  0.00    +0.282 C 
ATOM     57  C   UNL     1       2.770   3.942  23.262  0.00  0.00    +0.201 C 
ATOM     58  C   UNL     1       2.161   5.261  23.793  0.00  0.00    +0.179 C 
ATOM     59  C   UNL     1       2.431   5.396  25.295  0.00  0.00    +0.174 C 
BRANCH  59  60
ATOM     60  O   UNL     1       1.630   4.445  26.011  0.00  0.00    -0.387 OA
ATOM     61  H   UNL     1       0.848   4.249  25.446  0.00  0.00    +0.210 HD
ENDBRANCH  59  60
BRANCH  58  62
ATOM     62  O   UNL     1       0.754   5.352  23.532  0.00  0.00    -0.386 OA
ATOM     63  H   UNL     1       0.652   5.672  22.615  0.00  0.00    +0.210 HD
ENDBRANCH  58  62
BRANCH  57  64
ATOM     64  O   UNL     1       2.136   2.837  23.943  0.00  0.00    -0.384 OA
ATOM     65  H   UNL     1       2.837   2.172  24.074  0.00  0.00    +0.210 HD
ENDBRANCH  57  64
ENDBRANCH  52  56
ENDBRANCH  51  52
ENDBRANCH  39  51
ENDBRANCH  38  41
ENDBRANCH   1  38
TORSDOF 20
ENDMDL
MODEL 4
REMARK VINA RESULT:      -6.2      2.434      6.019
REMARK  Name = 
REMARK  22 active torsions:
REMARK  status: ('A' for Active; 'I' for Inactive)
REMARK    1  A    between atoms: C_1  and  C_2
REMARK    2  A    between atoms: C_3  and  O_61
REMARK    3  A    between atoms: C_5  and  O_60
REMARK    4  A    between atoms: C_7  and  O_59
REMARK    5  A    between atoms: C_8  and  O_11
REMARK    6  A    between atoms: O_11  and  C_12
REMARK    7  A    between atoms: C_12  and  C_13
REMARK    8  A    between atoms: C_14  and  O_58
REMARK    9  A    between atoms: C_16  and  O_57
REMARK   10  A    between atoms: C_17  and  O_56
REMARK   11  A    between atoms: C_18  and  O_21
REMARK   12  A    between atoms: O_21  and  C_22
REMARK   13  A    between atoms: C_23  and  C_48
REMARK   14  A    between atoms: C_27  and  O_34
REMARK   15  A    between atoms: C_29  and  O_33
REMARK   16  A    between atoms: O_34  and  C_35
REMARK   17  A    between atoms: C_37  and  O_47
REMARK   18  A    between atoms: C_38  and  O_46
REMARK   19  A    between atoms: C_40  and  O_45
REMARK   20  A    between atoms: C_42  and  C_44
REMARK   21  A    between atoms: C_50  and  O_55
REMARK   22  A    between atoms: C_51  and  O_54
REMARK                            x       y       z     vdW  Elec       q    Type
REMARK                         _______ _______ _______ _____ _____    ______ ____
ROOT
ATOM      1  C   UNL     1       8.624  -1.781  25.364  0.00  0.00    +0.214 A 
ATOM      2  C   UNL     1       8.860  -3.109  24.711  0.00  0.00    +0.238 A 
ATOM      3  O   UNL     1       9.894  -3.356  24.126  0.00  0.00    -0.283 OA
ATOM      4  C   UNL     1       7.750  -4.122  24.881  0.00  0.00    +0.109 A 
ATOM      5  C   UNL     1       6.955  -3.981  26.009  0.00  0.00    +0.147 A 
ATOM      6  C   UNL     1       5.845  -4.809  26.270  0.00  0.00    +0.093 A 
ATOM      7  C   UNL     1       5.487  -5.821  25.380  0.00  0.00    +0.131 A 
ATOM      8  C   UNL     1       6.315  -6.001  24.258  0.00  0.00    +0.092 A 
ATOM      9  O   UNL     1       7.226  -3.008  26.929  0.00  0.00    -0.451 OA
ATOM     10  C   UNL     1       7.442  -5.173  24.028  0.00  0.00    +0.135 A 
ATOM     11  C   UNL     1       7.793  -1.833  26.440  0.00  0.00    +0.181 A 
ENDROOT
BRANCH  11  12
ATOM     12  C   UNL     1       7.143  -0.698  27.129  0.00  0.00    +0.025 A 
ATOM     13  C   UNL     1       5.746  -0.812  27.275  0.00  0.00    +0.015 A 
ATOM     14  C   UNL     1       5.027   0.102  28.037  0.00  0.00    +0.050 A 
ATOM     15  C   UNL     1       5.705   1.057  28.757  0.00  0.00    +0.158 A 
ATOM     16  C   UNL     1       7.098   1.111  28.743  0.00  0.00    +0.159 A 
ATOM     17  C   UNL     1       7.829   0.260  27.898  0.00  0.00    +0.060 A 
BRANCH  16  18
ATOM     18  O   UNL     1       7.720   1.917  29.657  0.00  0.00    -0.503 OA
ATOM     19  H   UNL     1       7.641   2.838  29.350  0.00  0.00    +0.292 HD
ENDBRANCH  16  18
BRANCH  15  20
ATOM     20  O   UNL     1       4.953   1.885  29.537  0.00  0.00    -0.503 OA
ATOM     21  H   UNL     1       4.133   2.021  29.035  0.00  0.00    +0.292 HD
ENDBRANCH  15  20
ENDBRANCH  11  12
BRANCH  10  22
ATOM     22  O   UNL     1       8.209  -5.408  22.922  0.00  0.00    -0.506 OA
ATOM     23  H   UNL     1       7.656  -5.286  22.131  0.00  0.00    +0.292 HD
ENDBRANCH  10  22
BRANCH   7  24
ATOM     24  O   UNL     1       4.377  -6.645  25.492  0.00  0.00    -0.461 OA
BRANCH  24  25
ATOM     25  C   UNL     1       3.100  -6.045  25.178  0.00  0.00    +0.339 C 
ATOM     26  O   UNL     1       2.383  -5.704  26.368  0.00  0.00    -0.334 OA
ATOM     27  C   UNL     1       1.973  -6.859  27.114  0.00  0.00    +0.150 C 
ATOM     28  C   UNL     1       1.407  -6.364  28.438  0.00  0.00    +0.041 C 
ATOM     29  C   UNL     1       0.945  -7.685  26.321  0.00  0.00    +0.174 C 
ATOM     30  C   UNL     1       1.522  -8.095  24.953  0.00  0.00    +0.180 C 
ATOM     31  C   UNL     1       2.183  -6.901  24.257  0.00  0.00    +0.214 C 
BRANCH  31  32
ATOM     32  O   UNL     1       2.814  -7.267  23.032  0.00  0.00    -0.383 OA
ATOM     33  H   UNL     1       3.563  -7.851  23.255  0.00  0.00    +0.210 HD
ENDBRANCH  31  32
BRANCH  30  34
ATOM     34  O   UNL     1       2.417  -9.213  25.101  0.00  0.00    -0.386 OA
ATOM     35  H   UNL     1       3.304  -8.947  24.823  0.00  0.00    +0.210 HD
ENDBRANCH  30  34
BRANCH  29  36
ATOM     36  O   UNL     1       0.541  -8.836  27.063  0.00  0.00    -0.387 OA
ATOM     37  H   UNL     1       1.224  -9.524  26.931  0.00  0.00    +0.210 HD
ENDBRANCH  29  36
ENDBRANCH  24  25
ENDBRANCH   7  24
BRANCH   1  38
ATOM     38  O   UNL     1       9.219  -0.596  24.930  0.00  0.00    -0.453 OA
BRANCH  38  41
ATOM     39  C   UNL     1       6.964   1.481  22.629  0.00  0.00    +0.179 C 
ATOM     40  O   UNL     1       7.543   0.348  23.366  0.00  0.00    -0.331 OA
ATOM     41  C   UNL     1       8.592   0.584  24.321  0.00  0.00    +0.340 C 
ATOM     42  C   UNL     1       9.650   1.636  23.882  0.00  0.00    +0.214 C 
ATOM     43  C   UNL     1       8.903   2.901  23.430  0.00  0.00    +0.180 C 
ATOM     44  C   UNL     1       7.964   2.581  22.247  0.00  0.00    +0.177 C 
BRANCH  44  45
ATOM     45  O   UNL     1       8.730   2.184  21.103  0.00  0.00    -0.386 OA
ATOM     46  H   UNL     1       8.216   1.502  20.626  0.00  0.00    +0.210 HD
ENDBRANCH  44  45
BRANCH  43  47
ATOM     47  O   UNL     1       9.838   3.918  23.046  0.00  0.00    -0.386 OA
ATOM     48  H   UNL     1      10.256   4.216  23.882  0.00  0.00    +0.210 HD
ENDBRANCH  43  47
BRANCH  42  49
ATOM     49  O   UNL     1      10.506   1.191  22.816  0.00  0.00    -0.383 OA
ATOM     50  H   UNL     1      10.402   0.228  22.704  0.00  0.00    +0.210 HD
ENDBRANCH  42  49
BRANCH  39  51
ATOM     51  C   UNL     1       5.662   2.079  23.255  0.00  0.00    +0.197 C 
BRANCH  51  52
ATOM     52  O   UNL     1       5.611   2.198  24.704  0.00  0.00    -0.346 OA
BRANCH  52  56
ATOM     53  C   UNL     1       8.090   5.470  26.212  0.00  0.00    +0.041 C 
ATOM     54  C   UNL     1       7.180   4.559  27.034  0.00  0.00    +0.149 C 
ATOM     55  O   UNL     1       6.849   3.378  26.287  0.00  0.00    -0.343 OA
ATOM     56  C   UNL     1       5.882   3.511  25.251  0.00  0.00    +0.282 C 
ATOM     57  C   UNL     1       4.569   4.128  25.852  0.00  0.00    +0.201 C 
ATOM     58  C   UNL     1       4.896   5.498  26.488  0.00  0.00    +0.179 C 
ATOM     59  C   UNL     1       5.962   5.329  27.577  0.00  0.00    +0.174 C 
BRANCH  59  60
ATOM     60  O   UNL     1       5.387   4.659  28.708  0.00  0.00    -0.387 OA
ATOM     61  H   UNL     1       5.571   5.220  29.495  0.00  0.00    +0.210 HD
ENDBRANCH  59  60
BRANCH  58  62
ATOM     62  O   UNL     1       3.732   6.136  27.030  0.00  0.00    -0.386 OA
ATOM     63  H   UNL     1       3.823   7.094  26.858  0.00  0.00    +0.210 HD
ENDBRANCH  58  62
BRANCH  57  64
ATOM     64  O   UNL     1       4.043   3.258  26.878  0.00  0.00    -0.384 OA
ATOM     65  H   UNL     1       3.580   2.542  26.404  0.00  0.00    +0.210 HD
ENDBRANCH  57  64
ENDBRANCH  52  56
ENDBRANCH  51  52
ENDBRANCH  39  51
ENDBRANCH  38  41
ENDBRANCH   1  38
TORSDOF 20
ENDMDL
MODEL 5
REMARK VINA RESULT:      -6.2      2.003      3.140
REMARK  Name = 
REMARK  22 active torsions:
REMARK  status: ('A' for Active; 'I' for Inactive)
REMARK    1  A    between atoms: C_1  and  C_2
REMARK    2  A    between atoms: C_3  and  O_61
REMARK    3  A    between atoms: C_5  and  O_60
REMARK    4  A    between atoms: C_7  and  O_59
REMARK    5  A    between atoms: C_8  and  O_11
REMARK    6  A    between atoms: O_11  and  C_12
REMARK    7  A    between atoms: C_12  and  C_13
REMARK    8  A    between atoms: C_14  and  O_58
REMARK    9  A    between atoms: C_16  and  O_57
REMARK   10  A    between atoms: C_17  and  O_56
REMARK   11  A    between atoms: C_18  and  O_21
REMARK   12  A    between atoms: O_21  and  C_22
REMARK   13  A    between atoms: C_23  and  C_48
REMARK   14  A    between atoms: C_27  and  O_34
REMARK   15  A    between atoms: C_29  and  O_33
REMARK   16  A    between atoms: O_34  and  C_35
REMARK   17  A    between atoms: C_37  and  O_47
REMARK   18  A    between atoms: C_38  and  O_46
REMARK   19  A    between atoms: C_40  and  O_45
REMARK   20  A    between atoms: C_42  and  C_44
REMARK   21  A    between atoms: C_50  and  O_55
REMARK   22  A    between atoms: C_51  and  O_54
REMARK                            x       y       z     vdW  Elec       q    Type
REMARK                         _______ _______ _______ _____ _____    ______ ____
ROOT
ATOM      1  C   UNL     1       7.030   0.403  27.143  0.00  0.00    +0.214 A 
ATOM      2  C   UNL     1       7.854  -0.844  27.036  0.00  0.00    +0.238 A 
ATOM      3  O   UNL     1       9.053  -0.834  27.221  0.00  0.00    -0.283 OA
ATOM      4  C   UNL     1       7.079  -2.108  26.736  0.00  0.00    +0.109 A 
ATOM      5  C   UNL     1       5.752  -2.127  27.141  0.00  0.00    +0.147 A 
ATOM      6  C   UNL     1       4.888  -3.209  26.875  0.00  0.00    +0.093 A 
ATOM      7  C   UNL     1       5.341  -4.325  26.173  0.00  0.00    +0.131 A 
ATOM      8  C   UNL     1       6.697  -4.334  25.801  0.00  0.00    +0.092 A 
ATOM      9  O   UNL     1       5.222  -1.070  27.824  0.00  0.00    -0.451 OA
ATOM     10  C   UNL     1       7.555  -3.246  26.101  0.00  0.00    +0.135 A 
ATOM     11  C   UNL     1       5.742   0.186  27.524  0.00  0.00    +0.181 A 
ENDROOT
BRANCH  11  12
ATOM     12  C   UNL     1       4.614   1.139  27.460  0.00  0.00    +0.025 A 
ATOM     13  C   UNL     1       4.567   2.077  28.511  0.00  0.00    +0.015 A 
ATOM     14  C   UNL     1       3.655   3.126  28.495  0.00  0.00    +0.050 A 
ATOM     15  C   UNL     1       2.874   3.322  27.381  0.00  0.00    +0.158 A 
ATOM     16  C   UNL     1       2.993   2.493  26.267  0.00  0.00    +0.159 A 
ATOM     17  C   UNL     1       3.836   1.369  26.310  0.00  0.00    +0.060 A 
BRANCH  16  18
ATOM     18  O   UNL     1       2.372   2.876  25.109  0.00  0.00    -0.503 OA
ATOM     19  H   UNL     1       2.375   2.115  24.500  0.00  0.00    +0.292 HD
ENDBRANCH  16  18
BRANCH  15  20
ATOM     20  O   UNL     1       2.044   4.404  27.396  0.00  0.00    -0.503 OA
ATOM     21  H   UNL     1       1.662   4.435  26.504  0.00  0.00    +0.292 HD
ENDBRANCH  15  20
ENDBRANCH  11  12
BRANCH  10  22
ATOM     22  O   UNL     1       8.863  -3.324  25.718  0.00  0.00    -0.506 OA
ATOM     23  H   UNL     1       9.202  -2.422  25.586  0.00  0.00    +0.292 HD
ENDBRANCH  10  22
BRANCH   7  24
ATOM     24  O   UNL     1       4.568  -5.411  25.790  0.00  0.00    -0.461 OA
BRANCH  24  25
ATOM     25  C   UNL     1       3.948  -5.327  24.485  0.00  0.00    +0.339 C 
ATOM     26  O   UNL     1       2.667  -4.696  24.563  0.00  0.00    -0.334 OA
ATOM     27  C   UNL     1       1.706  -5.484  25.279  0.00  0.00    +0.150 C 
ATOM     28  C   UNL     1       0.463  -4.624  25.462  0.00  0.00    +0.041 C 
ATOM     29  C   UNL     1       1.397  -6.788  24.523  0.00  0.00    +0.174 C 
ATOM     30  C   UNL     1       2.690  -7.590  24.282  0.00  0.00    +0.180 C 
ATOM     31  C   UNL     1       3.803  -6.686  23.741  0.00  0.00    +0.214 C 
BRANCH  31  32
ATOM     32  O   UNL     1       5.043  -7.376  23.599  0.00  0.00    -0.383 OA
ATOM     33  H   UNL     1       5.752  -6.707  23.631  0.00  0.00    +0.210 HD
ENDBRANCH  31  32
BRANCH  30  34
ATOM     34  O   UNL     1       3.079  -8.288  25.479  0.00  0.00    -0.386 OA
ATOM     35  H   UNL     1       3.587  -7.690  26.043  0.00  0.00    +0.210 HD
ENDBRANCH  30  34
BRANCH  29  36
ATOM     36  O   UNL     1       0.445  -7.574  25.239  0.00  0.00    -0.387 OA
ATOM     37  H   UNL     1       0.340  -8.419  24.758  0.00  0.00    +0.210 HD
ENDBRANCH  29  36
ENDBRANCH  24  25
ENDBRANCH   7  24
BRANCH   1  38
ATOM     38  O   UNL     1       7.537   1.680  26.900  0.00  0.00    -0.453 OA
BRANCH  38  41
ATOM     39  C   UNL     1       8.029   3.565  23.599  0.00  0.00    +0.179 C 
ATOM     40  O   UNL     1       8.186   2.589  24.686  0.00  0.00    -0.331 OA
ATOM     41  C   UNL     1       7.255   2.591  25.783  0.00  0.00    +0.340 C 
ATOM     42  C   UNL     1       6.838   4.003  26.282  0.00  0.00    +0.214 C 
ATOM     43  C   UNL     1       6.389   4.824  25.063  0.00  0.00    +0.180 C 
ATOM     44  C   UNL     1       7.540   4.952  24.042  0.00  0.00    +0.177 C 
BRANCH  44  45
ATOM     45  O   UNL     1       8.620   5.704  24.607  0.00  0.00    -0.386 OA
ATOM     46  H   UNL     1       8.331   6.637  24.668  0.00  0.00    +0.210 HD
ENDBRANCH  44  45
BRANCH  43  47
ATOM     47  O   UNL     1       5.960   6.129  25.474  0.00  0.00    -0.386 OA
ATOM     48  H   UNL     1       5.113   6.285  25.004  0.00  0.00    +0.210 HD
ENDBRANCH  43  47
BRANCH  42  49
ATOM     49  O   UNL     1       7.886   4.713  26.964  0.00  0.00    -0.383 OA
ATOM     50  H   UNL     1       8.679   4.735  26.396  0.00  0.00    +0.210 HD
ENDBRANCH  42  49
BRANCH  39  51
ATOM     51  C   UNL     1       7.235   3.046  22.355  0.00  0.00    +0.197 C 
BRANCH  51  52
ATOM     52  O   UNL     1       7.972   2.270  21.370  0.00  0.00    -0.346 OA
BRANCH  52  56
ATOM     53  C   UNL     1       6.535  -1.671  22.609  0.00  0.00    +0.041 C 
ATOM     54  C   UNL     1       7.542  -0.791  23.348  0.00  0.00    +0.149 C 
ATOM     55  O   UNL     1       7.467   0.562  22.873  0.00  0.00    -0.343 OA
ATOM     56  C   UNL     1       8.056   0.843  21.608  0.00  0.00    +0.282 C 
ATOM     57  C   UNL     1       9.558   0.387  21.629  0.00  0.00    +0.201 C 
ATOM     58  C   UNL     1       9.625  -1.124  21.952  0.00  0.00    +0.179 C 
ATOM     59  C   UNL     1       8.955  -1.402  23.303  0.00  0.00    +0.174 C 
BRANCH  59  60
ATOM     60  O   UNL     1       9.778  -0.884  24.358  0.00  0.00    -0.387 OA
ATOM     61  H   UNL     1       9.185  -0.380  24.960  0.00  0.00    +0.210 HD
ENDBRANCH  59  60
BRANCH  58  62
ATOM     62  O   UNL     1      10.970  -1.619  21.955  0.00  0.00    -0.386 OA
ATOM     63  H   UNL     1      11.447  -1.160  21.236  0.00  0.00    +0.210 HD
ENDBRANCH  58  62
BRANCH  57  64
ATOM     64  O   UNL     1      10.276   1.108  22.654  0.00  0.00    -0.384 OA
ATOM     65  H   UNL     1      10.889   1.699  22.179  0.00  0.00    +0.210 HD
ENDBRANCH  57  64
ENDBRANCH  52  56
ENDBRANCH  51  52
ENDBRANCH  39  51
ENDBRANCH  38  41
ENDBRANCH   1  38
TORSDOF 20
ENDMDL
MODEL 6
REMARK VINA RESULT:      -6.1      2.405      4.435
REMARK  Name = 
REMARK  22 active torsions:
REMARK  status: ('A' for Active; 'I' for Inactive)
REMARK    1  A    between atoms: C_1  and  C_2
REMARK    2  A    between atoms: C_3  and  O_61
REMARK    3  A    between atoms: C_5  and  O_60
REMARK    4  A    between atoms: C_7  and  O_59
REMARK    5  A    between atoms: C_8  and  O_11
REMARK    6  A    between atoms: O_11  and  C_12
REMARK    7  A    between atoms: C_12  and  C_13
REMARK    8  A    between atoms: C_14  and  O_58
REMARK    9  A    between atoms: C_16  and  O_57
REMARK   10  A    between atoms: C_17  and  O_56
REMARK   11  A    between atoms: C_18  and  O_21
REMARK   12  A    between atoms: O_21  and  C_22
REMARK   13  A    between atoms: C_23  and  C_48
REMARK   14  A    between atoms: C_27  and  O_34
REMARK   15  A    between atoms: C_29  and  O_33
REMARK   16  A    between atoms: O_34  and  C_35
REMARK   17  A    between atoms: C_37  and  O_47
REMARK   18  A    between atoms: C_38  and  O_46
REMARK   19  A    between atoms: C_40  and  O_45
REMARK   20  A    between atoms: C_42  and  C_44
REMARK   21  A    between atoms: C_50  and  O_55
REMARK   22  A    between atoms: C_51  and  O_54
REMARK                            x       y       z     vdW  Elec       q    Type
REMARK                         _______ _______ _______ _____ _____    ______ ____
ROOT
ATOM      1  C   UNL     1       6.883  -0.310  26.360  0.00  0.00    +0.214 A 
ATOM      2  C   UNL     1       7.581  -1.562  26.799  0.00  0.00    +0.238 A 
ATOM      3  O   UNL     1       8.785  -1.603  26.943  0.00  0.00    -0.283 OA
ATOM      4  C   UNL     1       6.677  -2.738  27.097  0.00  0.00    +0.109 A 
ATOM      5  C   UNL     1       5.381  -2.434  27.488  0.00  0.00    +0.147 A 
ATOM      6  C   UNL     1       4.407  -3.422  27.737  0.00  0.00    +0.093 A 
ATOM      7  C   UNL     1       4.712  -4.775  27.589  0.00  0.00    +0.131 A 
ATOM      8  C   UNL     1       6.036  -5.092  27.240  0.00  0.00    +0.092 A 
ATOM      9  O   UNL     1       4.992  -1.134  27.645  0.00  0.00    -0.451 OA
ATOM     10  C   UNL     1       7.007  -4.083  27.018  0.00  0.00    +0.135 A 
ATOM     11  C   UNL     1       5.606  -0.198  26.817  0.00  0.00    +0.181 A 
ENDROOT
BRANCH  11  12
ATOM     12  C   UNL     1       4.568   0.748  26.358  0.00  0.00    +0.025 A 
ATOM     13  C   UNL     1       3.376   0.734  27.110  0.00  0.00    +0.015 A 
ATOM     14  C   UNL     1       2.378   1.677  26.890  0.00  0.00    +0.050 A 
ATOM     15  C   UNL     1       2.610   2.710  26.013  0.00  0.00    +0.158 A 
ATOM     16  C   UNL     1       3.833   2.830  25.354  0.00  0.00    +0.159 A 
ATOM     17  C   UNL     1       4.809   1.829  25.489  0.00  0.00    +0.060 A 
BRANCH  16  18
ATOM     18  O   UNL     1       4.093   3.996  24.687  0.00  0.00    -0.503 OA
ATOM     19  H   UNL     1       3.294   4.552  24.728  0.00  0.00    +0.292 HD
ENDBRANCH  16  18
BRANCH  15  20
ATOM     20  O   UNL     1       1.621   3.640  25.885  0.00  0.00    -0.503 OA
ATOM     21  H   UNL     1       1.886   4.366  26.473  0.00  0.00    +0.292 HD
ENDBRANCH  15  20
ENDBRANCH  11  12
BRANCH  10  22
ATOM     22  O   UNL     1       8.277  -4.462  26.689  0.00  0.00    -0.506 OA
ATOM     23  H   UNL     1       8.855  -4.305  27.456  0.00  0.00    +0.292 HD
ENDBRANCH  10  22
BRANCH   7  24
ATOM     24  O   UNL     1       3.821  -5.828  27.734  0.00  0.00    -0.461 OA
BRANCH  24  25
ATOM     25  C   UNL     1       2.461  -5.578  27.306  0.00  0.00    +0.339 C 
ATOM     26  O   UNL     1       1.521  -6.176  28.203  0.00  0.00    -0.334 OA
ATOM     27  C   UNL     1       1.565  -7.610  28.173  0.00  0.00    +0.150 C 
ATOM     28  C   UNL     1       0.674  -8.113  29.300  0.00  0.00    +0.041 C 
ATOM     29  C   UNL     1       1.114  -8.141  26.802  0.00  0.00    +0.174 C 
ATOM     30  C   UNL     1       1.984  -7.545  25.679  0.00  0.00    +0.180 C 
ATOM     31  C   UNL     1       2.139  -6.031  25.852  0.00  0.00    +0.214 C 
BRANCH  31  32
ATOM     32  O   UNL     1       3.020  -5.460  24.886  0.00  0.00    -0.383 OA
ATOM     33  H   UNL     1       3.314  -6.182  24.300  0.00  0.00    +0.210 HD
ENDBRANCH  31  32
BRANCH  30  34
ATOM     34  O   UNL     1       3.250  -8.226  25.610  0.00  0.00    -0.386 OA
ATOM     35  H   UNL     1       3.603  -8.147  24.714  0.00  0.00    +0.210 HD
ENDBRANCH  30  34
BRANCH  29  36
ATOM     36  O   UNL     1       1.163  -9.568  26.771  0.00  0.00    -0.387 OA
ATOM     37  H   UNL     1       1.036  -9.886  27.687  0.00  0.00    +0.210 HD
ENDBRANCH  29  36
ENDBRANCH  24  25
ENDBRANCH   7  24
BRANCH   1  38
ATOM     38  O   UNL     1       7.489   0.670  25.574  0.00  0.00    -0.453 OA
BRANCH  38  41
ATOM     39  C   UNL     1      10.028  -0.002  22.782  0.00  0.00    +0.179 C 
ATOM     40  O   UNL     1       9.371   0.019  24.097  0.00  0.00    -0.331 OA
ATOM     41  C   UNL     1       8.043   0.557  24.218  0.00  0.00    +0.340 C 
ATOM     42  C   UNL     1       7.779   1.840  23.380  0.00  0.00    +0.214 C 
ATOM     43  C   UNL     1       8.226   1.563  21.935  0.00  0.00    +0.180 C 
ATOM     44  C   UNL     1       9.729   1.211  21.891  0.00  0.00    +0.177 C 
BRANCH  44  45
ATOM     45  O   UNL     1      10.512   2.338  22.302  0.00  0.00    -0.386 OA
ATOM     46  H   UNL     1      11.164   2.021  22.959  0.00  0.00    +0.210 HD
ENDBRANCH  44  45
BRANCH  43  47
ATOM     47  O   UNL     1       7.972   2.708  21.110  0.00  0.00    -0.386 OA
ATOM     48  H   UNL     1       7.520   2.358  20.312  0.00  0.00    +0.210 HD
ENDBRANCH  43  47
BRANCH  42  49
ATOM     49  O   UNL     1       8.467   3.006  23.867  0.00  0.00    -0.383 OA
ATOM     50  H   UNL     1       7.945   3.407  24.587  0.00  0.00    +0.210 HD
ENDBRANCH  42  49
BRANCH  39  51
ATOM     51  C   UNL     1       9.883  -1.345  21.993  0.00  0.00    +0.197 C 
BRANCH  51  52
ATOM     52  O   UNL     1       8.536  -1.791  21.677  0.00  0.00    -0.346 OA
BRANCH  52  56
ATOM     53  C   UNL     1       8.208  -5.637  23.734  0.00  0.00    +0.041 C 
ATOM     54  C   UNL     1       7.312  -5.123  22.607  0.00  0.00    +0.149 C 
ATOM     55  O   UNL     1       7.947  -4.033  21.922  0.00  0.00    -0.343 OA
ATOM     56  C   UNL     1       7.955  -2.768  22.575  0.00  0.00    +0.282 C 
ATOM     57  C   UNL     1       6.480  -2.366  22.931  0.00  0.00    +0.201 C 
ATOM     58  C   UNL     1       5.860  -3.456  23.835  0.00  0.00    +0.179 C 
ATOM     59  C   UNL     1       5.894  -4.811  23.120  0.00  0.00    +0.174 C 
BRANCH  59  60
ATOM     60  O   UNL     1       4.943  -4.807  22.046  0.00  0.00    -0.387 OA
ATOM     61  H   UNL     1       4.794  -3.865  21.801  0.00  0.00    +0.210 HD
ENDBRANCH  59  60
BRANCH  58  62
ATOM     62  O   UNL     1       4.519  -3.136  24.229  0.00  0.00    -0.386 OA
ATOM     63  H   UNL     1       4.468  -2.165  24.315  0.00  0.00    +0.210 HD
ENDBRANCH  58  62
BRANCH  57  64
ATOM     64  O   UNL     1       5.693  -2.267  21.724  0.00  0.00    -0.384 OA
ATOM     65  H   UNL     1       5.744  -3.145  21.304  0.00  0.00    +0.210 HD
ENDBRANCH  57  64
ENDBRANCH  52  56
ENDBRANCH  51  52
ENDBRANCH  39  51
ENDBRANCH  38  41
ENDBRANCH   1  38
TORSDOF 20
ENDMDL
MODEL 7
REMARK VINA RESULT:      -6.1      2.239      5.476
REMARK  Name = 
REMARK  22 active torsions:
REMARK  status: ('A' for Active; 'I' for Inactive)
REMARK    1  A    between atoms: C_1  and  C_2
REMARK    2  A    between atoms: C_3  and  O_61
REMARK    3  A    between atoms: C_5  and  O_60
REMARK    4  A    between atoms: C_7  and  O_59
REMARK    5  A    between atoms: C_8  and  O_11
REMARK    6  A    between atoms: O_11  and  C_12
REMARK    7  A    between atoms: C_12  and  C_13
REMARK    8  A    between atoms: C_14  and  O_58
REMARK    9  A    between atoms: C_16  and  O_57
REMARK   10  A    between atoms: C_17  and  O_56
REMARK   11  A    between atoms: C_18  and  O_21
REMARK   12  A    between atoms: O_21  and  C_22
REMARK   13  A    between atoms: C_23  and  C_48
REMARK   14  A    between atoms: C_27  and  O_34
REMARK   15  A    between atoms: C_29  and  O_33
REMARK   16  A    between atoms: O_34  and  C_35
REMARK   17  A    between atoms: C_37  and  O_47
REMARK   18  A    between atoms: C_38  and  O_46
REMARK   19  A    between atoms: C_40  and  O_45
REMARK   20  A    between atoms: C_42  and  C_44
REMARK   21  A    between atoms: C_50  and  O_55
REMARK   22  A    between atoms: C_51  and  O_54
REMARK                            x       y       z     vdW  Elec       q    Type
REMARK                         _______ _______ _______ _____ _____    ______ ____
ROOT
ATOM      1  C   UNL     1       5.982   0.505  26.024  0.00  0.00    +0.214 A 
ATOM      2  C   UNL     1       4.732   0.184  26.785  0.00  0.00    +0.238 A 
ATOM      3  O   UNL     1       4.152   1.022  27.441  0.00  0.00    -0.283 OA
ATOM      4  C   UNL     1       4.226  -1.234  26.630  0.00  0.00    +0.109 A 
ATOM      5  C   UNL     1       4.567  -1.885  25.453  0.00  0.00    +0.147 A 
ATOM      6  C   UNL     1       4.223  -3.227  25.195  0.00  0.00    +0.093 A 
ATOM      7  C   UNL     1       3.516  -3.974  26.137  0.00  0.00    +0.131 A 
ATOM      8  C   UNL     1       3.126  -3.308  27.311  0.00  0.00    +0.092 A 
ATOM      9  O   UNL     1       5.271  -1.232  24.481  0.00  0.00    -0.451 OA
ATOM     10  C   UNL     1       3.461  -1.949  27.540  0.00  0.00    +0.135 A 
ATOM     11  C   UNL     1       6.166  -0.256  24.912  0.00  0.00    +0.181 A 
ENDROOT
BRANCH  11  12
ATOM     12  C   UNL     1       7.399  -0.390  24.108  0.00  0.00    +0.025 A 
ATOM     13  C   UNL     1       7.991  -1.669  24.133  0.00  0.00    +0.015 A 
ATOM     14  C   UNL     1       9.062  -1.980  23.303  0.00  0.00    +0.050 A 
ATOM     15  C   UNL     1       9.469  -1.068  22.359  0.00  0.00    +0.158 A 
ATOM     16  C   UNL     1       8.815   0.155  22.215  0.00  0.00    +0.159 A 
ATOM     17  C   UNL     1       7.800   0.523  23.114  0.00  0.00    +0.060 A 
BRANCH  16  18
ATOM     18  O   UNL     1       9.103   0.914  21.114  0.00  0.00    -0.503 OA
ATOM     19  H   UNL     1       8.971   0.360  20.323  0.00  0.00    +0.292 HD
ENDBRANCH  16  18
BRANCH  15  20
ATOM     20  O   UNL     1      10.481  -1.452  21.531  0.00  0.00    -0.503 OA
ATOM     21  H   UNL     1      10.893  -2.209  21.978  0.00  0.00    +0.292 HD
ENDBRANCH  15  20
ENDBRANCH  11  12
BRANCH  10  22
ATOM     22  O   UNL     1       3.042  -1.361  28.700  0.00  0.00    -0.506 OA
ATOM     23  H   UNL     1       2.263  -1.843  29.028  0.00  0.00    +0.292 HD
ENDBRANCH  10  22
BRANCH   7  24
ATOM     24  O   UNL     1       3.188  -5.317  26.026  0.00  0.00    -0.461 OA
BRANCH  24  25
ATOM     25  C   UNL     1       1.919  -5.615  25.400  0.00  0.00    +0.339 C 
ATOM     26  O   UNL     1       1.119  -6.461  26.231  0.00  0.00    -0.334 OA
ATOM     27  C   UNL     1       1.676  -7.775  26.377  0.00  0.00    +0.150 C 
ATOM     28  C   UNL     1       0.850  -8.502  27.430  0.00  0.00    +0.041 C 
ATOM     29  C   UNL     1       1.675  -8.521  25.031  0.00  0.00    +0.174 C 
ATOM     30  C   UNL     1       2.446  -7.716  23.968  0.00  0.00    +0.180 C 
ATOM     31  C   UNL     1       2.022  -6.244  23.980  0.00  0.00    +0.214 C 
BRANCH  31  32
ATOM     32  O   UNL     1       2.787  -5.450  23.076  0.00  0.00    -0.383 OA
ATOM     33  H   UNL     1       2.159  -4.904  22.566  0.00  0.00    +0.210 HD
ENDBRANCH  31  32
BRANCH  30  34
ATOM     34  O   UNL     1       3.866  -7.883  24.145  0.00  0.00    -0.386 OA
ATOM     35  H   UNL     1       4.290  -7.917  23.278  0.00  0.00    +0.210 HD
ENDBRANCH  30  34
BRANCH  29  36
ATOM     36  O   UNL     1       2.233  -9.827  25.176  0.00  0.00    -0.387 OA
ATOM     37  H   UNL     1       2.144 -10.282  24.315  0.00  0.00    +0.210 HD
ENDBRANCH  29  36
ENDBRANCH  24  25
ENDBRANCH   7  24
BRANCH   1  38
ATOM     38  O   UNL     1       6.872   1.512  26.401  0.00  0.00    -0.453 OA
BRANCH  38  41
ATOM     39  C   UNL     1       7.931   4.939  25.047  0.00  0.00    +0.179 C 
ATOM     40  O   UNL     1       7.857   3.488  25.272  0.00  0.00    -0.331 OA
ATOM     41  C   UNL     1       6.818   2.950  26.109  0.00  0.00    +0.340 C 
ATOM     42  C   UNL     1       6.510   3.785  27.385  0.00  0.00    +0.214 C 
ATOM     43  C   UNL     1       6.293   5.245  26.956  0.00  0.00    +0.180 C 
ATOM     44  C   UNL     1       7.556   5.800  26.262  0.00  0.00    +0.177 C 
BRANCH  44  45
ATOM     45  O   UNL     1       8.645   5.854  27.191  0.00  0.00    -0.386 OA
ATOM     46  H   UNL     1       9.026   4.955  27.252  0.00  0.00    +0.210 HD
ENDBRANCH  44  45
BRANCH  43  47
ATOM     47  O   UNL     1       5.971   6.054  28.095  0.00  0.00    -0.386 OA
ATOM     48  H   UNL     1       5.948   5.435  28.856  0.00  0.00    +0.210 HD
ENDBRANCH  43  47
BRANCH  42  49
ATOM     49  O   UNL     1       7.551   3.739  28.376  0.00  0.00    -0.383 OA
ATOM     50  H   UNL     1       8.354   3.354  27.978  0.00  0.00    +0.210 HD
ENDBRANCH  42  49
BRANCH  39  51
ATOM     51  C   UNL     1       7.224   5.442  23.746  0.00  0.00    +0.197 C 
BRANCH  51  52
ATOM     52  O   UNL     1       6.449   4.471  22.989  0.00  0.00    -0.346 OA
BRANCH  52  56
ATOM     53  C   UNL     1       2.666   6.423  23.991  0.00  0.00    +0.041 C 
ATOM     54  C   UNL     1       3.152   5.062  24.487  0.00  0.00    +0.149 C 
ATOM     55  O   UNL     1       4.567   4.932  24.284  0.00  0.00    -0.343 OA
ATOM     56  C   UNL     1       5.016   4.678  22.957  0.00  0.00    +0.282 C 
ATOM     57  C   UNL     1       4.296   3.395  22.410  0.00  0.00    +0.201 C 
ATOM     58  C   UNL     1       2.767   3.614  22.449  0.00  0.00    +0.179 C 
ATOM     59  C   UNL     1       2.316   3.917  23.882  0.00  0.00    +0.174 C 
BRANCH  59  60
ATOM     60  O   UNL     1       2.418   2.726  24.676  0.00  0.00    -0.387 OA
ATOM     61  H   UNL     1       1.790   2.830  25.426  0.00  0.00    +0.210 HD
ENDBRANCH  59  60
BRANCH  58  62
ATOM     62  O   UNL     1       2.044   2.490  21.929  0.00  0.00    -0.386 OA
ATOM     63  H   UNL     1       2.415   1.690  22.350  0.00  0.00    +0.210 HD
ENDBRANCH  58  62
BRANCH  57  64
ATOM     64  O   UNL     1       4.619   2.258  23.242  0.00  0.00    -0.384 OA
ATOM     65  H   UNL     1       4.046   2.336  24.027  0.00  0.00    +0.210 HD
ENDBRANCH  57  64
ENDBRANCH  52  56
ENDBRANCH  51  52
ENDBRANCH  39  51
ENDBRANCH  38  41
ENDBRANCH   1  38
TORSDOF 20
ENDMDL
MODEL 8
REMARK VINA RESULT:      -6.1      2.351      8.833
REMARK  Name = 
REMARK  22 active torsions:
REMARK  status: ('A' for Active; 'I' for Inactive)
REMARK    1  A    between atoms: C_1  and  C_2
REMARK    2  A    between atoms: C_3  and  O_61
REMARK    3  A    between atoms: C_5  and  O_60
REMARK    4  A    between atoms: C_7  and  O_59
REMARK    5  A    between atoms: C_8  and  O_11
REMARK    6  A    between atoms: O_11  and  C_12
REMARK    7  A    between atoms: C_12  and  C_13
REMARK    8  A    between atoms: C_14  and  O_58
REMARK    9  A    between atoms: C_16  and  O_57
REMARK   10  A    between atoms: C_17  and  O_56
REMARK   11  A    between atoms: C_18  and  O_21
REMARK   12  A    between atoms: O_21  and  C_22
REMARK   13  A    between atoms: C_23  and  C_48
REMARK   14  A    between atoms: C_27  and  O_34
REMARK   15  A    between atoms: C_29  and  O_33
REMARK   16  A    between atoms: O_34  and  C_35
REMARK   17  A    between atoms: C_37  and  O_47
REMARK   18  A    between atoms: C_38  and  O_46
REMARK   19  A    between atoms: C_40  and  O_45
REMARK   20  A    between atoms: C_42  and  C_44
REMARK   21  A    between atoms: C_50  and  O_55
REMARK   22  A    between atoms: C_51  and  O_54
REMARK                            x       y       z     vdW  Elec       q    Type
REMARK                         _______ _______ _______ _____ _____    ______ ____
ROOT
ATOM      1  C   UNL     1       6.491  -1.983  26.150  0.00  0.00    +0.214 A 
ATOM      2  C   UNL     1       7.704  -1.992  25.270  0.00  0.00    +0.238 A 
ATOM      3  O   UNL     1       8.309  -3.015  25.027  0.00  0.00    -0.283 OA
ATOM      4  C   UNL     1       8.079  -0.654  24.671  0.00  0.00    +0.109 A 
ATOM      5  C   UNL     1       7.046   0.257  24.504  0.00  0.00    +0.147 A 
ATOM      6  C   UNL     1       7.252   1.565  24.019  0.00  0.00    +0.093 A 
ATOM      7  C   UNL     1       8.531   2.008  23.687  0.00  0.00    +0.131 A 
ATOM      8  C   UNL     1       9.577   1.075  23.809  0.00  0.00    +0.092 A 
ATOM      9  O   UNL     1       5.762  -0.089  24.816  0.00  0.00    -0.451 OA
ATOM     10  C   UNL     1       9.344  -0.243  24.275  0.00  0.00    +0.135 A 
ATOM     11  C   UNL     1       5.599  -0.999  25.856  0.00  0.00    +0.181 A 
ENDROOT
BRANCH  11  12
ATOM     12  C   UNL     1       4.461  -0.543  26.681  0.00  0.00    +0.025 A 
ATOM     13  C   UNL     1       4.524   0.804  27.090  0.00  0.00    +0.015 A 
ATOM     14  C   UNL     1       3.451   1.409  27.735  0.00  0.00    +0.050 A 
ATOM     15  C   UNL     1       2.269   0.720  27.865  0.00  0.00    +0.158 A 
ATOM     16  C   UNL     1       2.129  -0.568  27.349  0.00  0.00    +0.159 A 
ATOM     17  C   UNL     1       3.236  -1.228  26.787  0.00  0.00    +0.060 A 
BRANCH  16  18
ATOM     18  O   UNL     1       0.873  -1.107  27.294  0.00  0.00    -0.503 OA
ATOM     19  H   UNL     1       0.930  -1.958  26.822  0.00  0.00    +0.292 HD
ENDBRANCH  16  18
BRANCH  15  20
ATOM     20  O   UNL     1       1.232   1.385  28.448  0.00  0.00    -0.503 OA
ATOM     21  H   UNL     1       0.957   0.816  29.186  0.00  0.00    +0.292 HD
ENDBRANCH  15  20
ENDBRANCH  11  12
BRANCH  10  22
ATOM     22  O   UNL     1      10.404  -1.100  24.361  0.00  0.00    -0.506 OA
ATOM     23  H   UNL     1      10.199  -1.781  25.026  0.00  0.00    +0.292 HD
ENDBRANCH  10  22
BRANCH   7  24
ATOM     24  O   UNL     1       8.865   3.288  23.273  0.00  0.00    -0.461 OA
BRANCH  24  25
ATOM     25  C   UNL     1       9.168   4.241  24.319  0.00  0.00    +0.339 C 
ATOM     26  O   UNL     1       8.057   4.405  25.204  0.00  0.00    -0.334 OA
ATOM     27  C   UNL     1       6.935   5.034  24.569  0.00  0.00    +0.150 C 
ATOM     28  C   UNL     1       5.768   4.969  25.545  0.00  0.00    +0.041 C 
ATOM     29  C   UNL     1       7.272   6.483  24.174  0.00  0.00    +0.174 C 
ATOM     30  C   UNL     1       8.509   6.516  23.255  0.00  0.00    +0.180 C 
ATOM     31  C   UNL     1       9.633   5.638  23.816  0.00  0.00    +0.214 C 
BRANCH  31  32
ATOM     32  O   UNL     1      10.756   5.568  22.941  0.00  0.00    -0.383 OA
ATOM     33  H   UNL     1      11.104   6.474  22.843  0.00  0.00    +0.210 HD
ENDBRANCH  31  32
BRANCH  30  34
ATOM     34  O   UNL     1       8.145   6.154  21.910  0.00  0.00    -0.386 OA
ATOM     35  H   UNL     1       7.196   5.979  21.875  0.00  0.00    +0.210 HD
ENDBRANCH  30  34
BRANCH  29  36
ATOM     36  O   UNL     1       6.157   7.107  23.537  0.00  0.00    -0.387 OA
ATOM     37  H   UNL     1       5.378   6.972  24.113  0.00  0.00    +0.210 HD
ENDBRANCH  29  36
ENDBRANCH  24  25
ENDBRANCH   7  24
BRANCH   1  38
ATOM     38  O   UNL     1       6.276  -2.915  27.166  0.00  0.00    -0.453 OA
BRANCH  38  41
ATOM     39  C   UNL     1       3.627  -5.660  26.790  0.00  0.00    +0.179 C 
ATOM     40  O   UNL     1       4.294  -4.350  26.767  0.00  0.00    -0.331 OA
ATOM     41  C   UNL     1       5.695  -4.261  27.079  0.00  0.00    +0.340 C 
ATOM     42  C   UNL     1       6.160  -5.166  28.256  0.00  0.00    +0.214 C 
ATOM     43  C   UNL     1       5.656  -6.593  27.985  0.00  0.00    +0.180 C 
ATOM     44  C   UNL     1       4.115  -6.614  27.889  0.00  0.00    +0.177 C 
BRANCH  44  45
ATOM     45  O   UNL     1       3.538  -6.259  29.151  0.00  0.00    -0.386 OA
ATOM     46  H   UNL     1       4.121  -6.613  29.853  0.00  0.00    +0.210 HD
ENDBRANCH  44  45
BRANCH  43  47
ATOM     47  O   UNL     1       6.089  -7.477  29.027  0.00  0.00    -0.386 OA
ATOM     48  H   UNL     1       5.273  -7.727  29.511  0.00  0.00    +0.210 HD
ENDBRANCH  43  47
BRANCH  42  49
ATOM     49  O   UNL     1       5.684  -4.738  29.543  0.00  0.00    -0.383 OA
ATOM     50  H   UNL     1       4.956  -4.101  29.419  0.00  0.00    +0.210 HD
ENDBRANCH  42  49
BRANCH  39  51
ATOM     51  C   UNL     1       3.534  -6.378  25.404  0.00  0.00    +0.197 C 
BRANCH  51  52
ATOM     52  O   UNL     1       3.422  -5.537  24.222  0.00  0.00    -0.346 OA
BRANCH  52  56
ATOM     53  C   UNL     1       5.840  -2.460  22.269  0.00  0.00    +0.041 C 
ATOM     54  C   UNL     1       5.577  -3.876  21.760  0.00  0.00    +0.149 C 
ATOM     55  O   UNL     1       4.446  -4.448  22.434  0.00  0.00    -0.343 OA
ATOM     56  C   UNL     1       4.642  -4.899  23.770  0.00  0.00    +0.282 C 
ATOM     57  C   UNL     1       5.830  -5.924  23.796  0.00  0.00    +0.201 C 
ATOM     58  C   UNL     1       7.103  -5.240  23.247  0.00  0.00    +0.179 C 
ATOM     59  C   UNL     1       6.854  -4.737  21.821  0.00  0.00    +0.174 C 
BRANCH  59  60
ATOM     60  O   UNL     1       6.767  -5.857  20.928  0.00  0.00    -0.387 OA
ATOM     61  H   UNL     1       7.682  -6.044  20.616  0.00  0.00    +0.210 HD
ENDBRANCH  59  60
BRANCH  58  62
ATOM     62  O   UNL     1       8.241  -6.111  23.273  0.00  0.00    -0.386 OA
ATOM     63  H   UNL     1       9.030  -5.550  23.400  0.00  0.00    +0.210 HD
ENDBRANCH  58  62
BRANCH  57  64
ATOM     64  O   UNL     1       5.519  -7.058  22.957  0.00  0.00    -0.384 OA
ATOM     65  H   UNL     1       5.263  -7.774  23.567  0.00  0.00    +0.210 HD
ENDBRANCH  57  64
ENDBRANCH  52  56
ENDBRANCH  51  52
ENDBRANCH  39  51
ENDBRANCH  38  41
ENDBRANCH   1  38
TORSDOF 20
ENDMDL
MODEL 9
REMARK VINA RESULT:      -6.1      2.188      5.111
REMARK  Name = 
REMARK  22 active torsions:
REMARK  status: ('A' for Active; 'I' for Inactive)
REMARK    1  A    between atoms: C_1  and  C_2
REMARK    2  A    between atoms: C_3  and  O_61
REMARK    3  A    between atoms: C_5  and  O_60
REMARK    4  A    between atoms: C_7  and  O_59
REMARK    5  A    between atoms: C_8  and  O_11
REMARK    6  A    between atoms: O_11  and  C_12
REMARK    7  A    between atoms: C_12  and  C_13
REMARK    8  A    between atoms: C_14  and  O_58
REMARK    9  A    between atoms: C_16  and  O_57
REMARK   10  A    between atoms: C_17  and  O_56
REMARK   11  A    between atoms: C_18  and  O_21
REMARK   12  A    between atoms: O_21  and  C_22
REMARK   13  A    between atoms: C_23  and  C_48
REMARK   14  A    between atoms: C_27  and  O_34
REMARK   15  A    between atoms: C_29  and  O_33
REMARK   16  A    between atoms: O_34  and  C_35
REMARK   17  A    between atoms: C_37  and  O_47
REMARK   18  A    between atoms: C_38  and  O_46
REMARK   19  A    between atoms: C_40  and  O_45
REMARK   20  A    between atoms: C_42  and  C_44
REMARK   21  A    between atoms: C_50  and  O_55
REMARK   22  A    between atoms: C_51  and  O_54
REMARK                            x       y       z     vdW  Elec       q    Type
REMARK                         _______ _______ _______ _____ _____    ______ ____
ROOT
ATOM      1  C   UNL     1       6.244   1.214  26.858  0.00  0.00    +0.214 A 
ATOM      2  C   UNL     1       5.209   0.401  27.575  0.00  0.00    +0.238 A 
ATOM      3  O   UNL     1       4.648   0.815  28.567  0.00  0.00    -0.283 OA
ATOM      4  C   UNL     1       4.884  -0.935  26.943  0.00  0.00    +0.109 A 
ATOM      5  C   UNL     1       5.092  -1.036  25.575  0.00  0.00    +0.147 A 
ATOM      6  C   UNL     1       4.894  -2.234  24.859  0.00  0.00    +0.093 A 
ATOM      7  C   UNL     1       4.480  -3.394  25.513  0.00  0.00    +0.131 A 
ATOM      8  C   UNL     1       4.221  -3.287  26.890  0.00  0.00    +0.092 A 
ATOM      9  O   UNL     1       5.510   0.048  24.857  0.00  0.00    -0.451 OA
ATOM     10  C   UNL     1       4.402  -2.066  27.587  0.00  0.00    +0.135 A 
ATOM     11  C   UNL     1       6.326   0.957  25.525  0.00  0.00    +0.181 A 
ENDROOT
BRANCH  11  12
ATOM     12  C   UNL     1       7.400   1.368  24.595  0.00  0.00    +0.025 A 
ATOM     13  C   UNL     1       8.074   0.306  23.959  0.00  0.00    +0.015 A 
ATOM     14  C   UNL     1       8.996   0.547  22.946  0.00  0.00    +0.050 A 
ATOM     15  C   UNL     1       9.160   1.828  22.476  0.00  0.00    +0.158 A 
ATOM     16  C   UNL     1       8.407   2.882  22.991  0.00  0.00    +0.159 A 
ATOM     17  C   UNL     1       7.549   2.670  24.083  0.00  0.00    +0.060 A 
BRANCH  16  18
ATOM     18  O   UNL     1       8.437   4.079  22.328  0.00  0.00    -0.503 OA
ATOM     19  H   UNL     1       9.354   4.408  22.340  0.00  0.00    +0.292 HD
ENDBRANCH  16  18
BRANCH  15  20
ATOM     20  O   UNL     1      10.030   1.994  21.440  0.00  0.00    -0.503 OA
ATOM     21  H   UNL     1       9.766   1.327  20.786  0.00  0.00    +0.292 HD
ENDBRANCH  15  20
ENDBRANCH  11  12
BRANCH  10  22
ATOM     22  O   UNL     1       4.124  -2.031  28.923  0.00  0.00    -0.506 OA
ATOM     23  H   UNL     1       3.466  -1.332  29.085  0.00  0.00    +0.292 HD
ENDBRANCH  10  22
BRANCH   7  24
ATOM     24  O   UNL     1       4.324  -4.643  24.930  0.00  0.00    -0.461 OA
BRANCH  24  25
ATOM     25  C   UNL     1       5.403  -5.584  25.135  0.00  0.00    +0.339 C 
ATOM     26  O   UNL     1       6.676  -4.948  24.993  0.00  0.00    -0.334 OA
ATOM     27  C   UNL     1       6.931  -4.520  23.648  0.00  0.00    +0.150 C 
ATOM     28  C   UNL     1       8.209  -3.692  23.670  0.00  0.00    +0.041 C 
ATOM     29  C   UNL     1       7.047  -5.729  22.703  0.00  0.00    +0.174 C 
ATOM     30  C   UNL     1       5.770  -6.589  22.770  0.00  0.00    +0.180 C 
ATOM     31  C   UNL     1       5.356  -6.843  24.223  0.00  0.00    +0.214 C 
BRANCH  31  32
ATOM     32  O   UNL     1       4.124  -7.553  24.321  0.00  0.00    -0.383 OA
ATOM     33  H   UNL     1       3.809  -7.463  25.239  0.00  0.00    +0.210 HD
ENDBRANCH  31  32
BRANCH  30  34
ATOM     34  O   UNL     1       4.718  -5.987  21.993  0.00  0.00    -0.386 OA
ATOM     35  H   UNL     1       3.886  -6.441  22.182  0.00  0.00    +0.210 HD
ENDBRANCH  30  34
BRANCH  29  36
ATOM     36  O   UNL     1       7.295  -5.302  21.363  0.00  0.00    -0.387 OA
ATOM     37  H   UNL     1       7.469  -6.101  20.827  0.00  0.00    +0.210 HD
ENDBRANCH  29  36
ENDBRANCH  24  25
ENDBRANCH   7  24
BRANCH   1  38
ATOM     38  O   UNL     1       7.040   2.170  27.490  0.00  0.00    -0.453 OA
BRANCH  38  41
ATOM     39  C   UNL     1       7.596   5.939  27.063  0.00  0.00    +0.179 C 
ATOM     40  O   UNL     1       7.685   4.483  26.874  0.00  0.00    -0.331 OA
ATOM     41  C   UNL     1       6.818   3.615  27.625  0.00  0.00    +0.340 C 
ATOM     42  C   UNL     1       6.607   4.029  29.109  0.00  0.00    +0.214 C 
ATOM     43  C   UNL     1       6.203   5.512  29.136  0.00  0.00    +0.180 C 
ATOM     44  C   UNL     1       7.308   6.386  28.503  0.00  0.00    +0.177 C 
BRANCH  44  45
ATOM     45  O   UNL     1       8.501   6.321  29.294  0.00  0.00    -0.386 OA
ATOM     46  H   UNL     1       8.460   7.045  29.951  0.00  0.00    +0.210 HD
ENDBRANCH  44  45
BRANCH  43  47
ATOM     47  O   UNL     1       5.962   5.937  30.484  0.00  0.00    -0.386 OA
ATOM     48  H   UNL     1       5.510   5.182  30.918  0.00  0.00    +0.210 HD
ENDBRANCH  43  47
BRANCH  42  49
ATOM     49  O   UNL     1       7.769   3.846  29.936  0.00  0.00    -0.383 OA
ATOM     50  H   UNL     1       8.558   3.772  29.367  0.00  0.00    +0.210 HD
ENDBRANCH  42  49
BRANCH  39  51
ATOM     51  C   UNL     1       6.682   6.683  26.036  0.00  0.00    +0.197 C 
BRANCH  51  52
ATOM     52  O   UNL     1       6.444   6.030  24.758  0.00  0.00    -0.346 OA
BRANCH  52  56
ATOM     53  C   UNL     1       2.536   4.236  25.554  0.00  0.00    +0.041 C 
ATOM     54  C   UNL     1       3.603   3.715  24.593  0.00  0.00    +0.149 C 
ATOM     55  O   UNL     1       4.875   4.312  24.886  0.00  0.00    -0.343 OA
ATOM     56  C   UNL     1       5.074   5.659  24.472  0.00  0.00    +0.282 C 
ATOM     57  C   UNL     1       4.795   5.768  22.931  0.00  0.00    +0.201 C 
ATOM     58  C   UNL     1       3.349   5.304  22.642  0.00  0.00    +0.179 C 
ATOM     59  C   UNL     1       3.154   3.863  23.127  0.00  0.00    +0.174 C 
BRANCH  59  60
ATOM     60  O   UNL     1       3.880   2.969  22.270  0.00  0.00    -0.387 OA
ATOM     61  H   UNL     1       4.647   2.636  22.790  0.00  0.00    +0.210 HD
ENDBRANCH  59  60
BRANCH  58  62
ATOM     62  O   UNL     1       3.013   5.409  21.252  0.00  0.00    -0.386 OA
ATOM     63  H   UNL     1       2.711   6.325  21.098  0.00  0.00    +0.210 HD
ENDBRANCH  58  62
BRANCH  57  64
ATOM     64  O   UNL     1       5.706   4.914  22.205  0.00  0.00    -0.384 OA
ATOM     65  H   UNL     1       5.335   4.837  21.307  0.00  0.00    +0.210 HD
ENDBRANCH  57  64
ENDBRANCH  52  56
ENDBRANCH  51  52
ENDBRANCH  39  51
ENDBRANCH  38  41
ENDBRANCH   1  38
TORSDOF 20
ENDMDL
