MODEL 1
REMARK VINA RESULT:      -8.2      0.000      0.000
REMARK  Name = 
REMARK  14 active torsions:
REMARK  status: ('A' for Active; 'I' for Inactive)
REMARK    1  A    between atoms: C_3  and  O_44
REMARK    2  A    between atoms: C_4  and  O_43
REMARK    3  A    between atoms: C_6  and  C_7
REMARK    4  A    between atoms: C_12  and  O_41
REMARK    5  A    between atoms: C_14  and  O_18
REMARK    6  A    between atoms: O_18  and  C_19
REMARK    7  A    between atoms: C_21  and  O_40
REMARK    8  A    between atoms: C_23  and  O_39
REMARK    9  A    between atoms: C_25  and  O_38
REMARK   10  A    between atoms: C_27  and  C_30
REMARK   11  A    between atoms: C_30  and  O_31
REMARK   12  A    between atoms: O_31  and  C_32
REMARK   13  A    between atoms: C_32  and  C_34
REMARK   14  A    between atoms: C_34  and  C_35
REMARK                            x       y       z     vdW  Elec       q    Type
REMARK                         _______ _______ _______ _____ _____    ______ ____
ROOT
ATOM      1  C   UNL     1       8.031  -0.725  23.267  0.00  0.00    +0.132 A 
ATOM      2  O   UNL     1       6.988  -1.442  22.652  0.00  0.00    -0.455 OA
ATOM      3  C   UNL     1       6.929  -2.809  22.798  0.00  0.00    +0.146 A 
ATOM      4  C   UNL     1       7.967  -3.506  23.397  0.00  0.00    +0.105 A 
ATOM      5  C   UNL     1       7.939  -4.903  23.435  0.00  0.00    +0.135 A 
ATOM      6  C   UNL     1       6.864  -5.603  22.920  0.00  0.00    +0.092 A 
ATOM      7  C   UNL     1       5.728  -4.925  22.469  0.00  0.00    +0.131 A 
ATOM      8  C   UNL     1       9.065  -2.776  24.022  0.00  0.00    +0.189 A 
ATOM      9  O   UNL     1       9.976  -3.452  24.510  0.00  0.00    -0.288 OA
ATOM     10  C   UNL     1       5.795  -3.522  22.343  0.00  0.00    +0.093 A 
ATOM     11  C   UNL     1       9.017  -1.267  24.043  0.00  0.00    -0.015 A 
ATOM     12  O   UNL     1       9.928  -0.730  24.749  0.00  0.00    -0.869 OA
ENDROOT
BRANCH   1  14
ATOM     13  C   UNL     1       6.735   1.385  22.663  0.00  0.00    +0.015 A 
ATOM     14  C   UNL     1       7.948   0.771  23.060  0.00  0.00    +0.020 A 
ATOM     15  C   UNL     1       9.060   1.610  23.225  0.00  0.00    +0.060 A 
ATOM     16  C   UNL     1       8.964   2.966  22.903  0.00  0.00    +0.159 A 
ATOM     17  C   UNL     1       7.779   3.518  22.417  0.00  0.00    +0.158 A 
ATOM     18  C   UNL     1       6.647   2.734  22.310  0.00  0.00    +0.050 A 
BRANCH  16  19
ATOM     19  O   UNL     1      10.062   3.775  23.031  0.00  0.00    -0.503 OA
ATOM     20  H   UNL     1       9.793   4.599  22.578  0.00  0.00    +0.292 HD
ENDBRANCH  16  19
BRANCH  17  21
ATOM     21  O   UNL     1       7.773   4.836  22.045  0.00  0.00    -0.503 OA
ATOM     22  H   UNL     1       6.940   4.982  21.561  0.00  0.00    +0.292 HD
ENDBRANCH  17  21
ENDBRANCH   1  14
BRANCH   5  23
ATOM     23  O   UNL     1       8.923  -5.661  24.021  0.00  0.00    -0.506 OA
ATOM     24  H   UNL     1       9.781  -5.294  23.693  0.00  0.00    +0.292 HD
ENDBRANCH   5  23
BRANCH   7  25
ATOM     25  O   UNL     1       4.530  -5.574  22.188  0.00  0.00    -0.461 OA
BRANCH  25  26
ATOM     26  C   UNL     1       3.443  -5.210  23.086  0.00  0.00    +0.339 C 
ATOM     27  O   UNL     1       3.925  -4.855  24.384  0.00  0.00    -0.330 OA
ATOM     28  C   UNL     1       3.749  -5.771  25.465  0.00  0.00    +0.191 C 
ATOM     29  C   UNL     1       2.335  -6.362  25.498  0.00  0.00    +0.178 C 
ATOM     30  C   UNL     1       1.958  -7.061  24.191  0.00  0.00    +0.180 C 
ATOM     31  C   UNL     1       2.195  -6.136  22.996  0.00  0.00    +0.214 C 
BRANCH  29  32
ATOM     32  O   UNL     1       1.402  -5.263  25.679  0.00  0.00    -0.386 OA
ATOM     33  H   UNL     1       1.924  -4.457  25.500  0.00  0.00    +0.210 HD
ENDBRANCH  29  32
BRANCH  30  34
ATOM     34  O   UNL     1       2.507  -8.356  23.998  0.00  0.00    -0.386 OA
ATOM     35  H   UNL     1       3.088  -8.400  23.224  0.00  0.00    +0.210 HD
ENDBRANCH  30  34
BRANCH  31  36
ATOM     36  O   UNL     1       1.020  -5.271  22.931  0.00  0.00    -0.383 OA
ATOM     37  H   UNL     1       0.476  -5.517  23.713  0.00  0.00    +0.210 HD
ENDBRANCH  31  36
BRANCH  28  38
ATOM     38  C   UNL     1       4.884  -6.798  25.546  0.00  0.00    +0.266 C 
BRANCH  38  39
ATOM     39  O   UNL     1       5.371  -6.873  26.898  0.00  0.00    -0.462 OA
BRANCH  39  40
ATOM     40  C   UNL     1       6.293  -5.949  27.285  0.00  0.00    +0.313 C 
ATOM     41  O   UNL     1       7.427  -5.881  26.816  0.00  0.00    -0.250 OA
BRANCH  40  42
ATOM     42  C   UNL     1       5.714  -4.920  28.197  0.00  0.00    +0.172 C 
BRANCH  42  43
ATOM     43  C   UNL     1       5.630  -5.392  29.627  0.00  0.00    +0.052 C 
ATOM     44  O   UNL     1       4.780  -4.772  30.333  0.00  0.00    -0.549 OA
ATOM     45  O   UNL     1       6.434  -6.296  29.983  0.00  0.00    -0.549 OA
ENDBRANCH  42  43
ENDBRANCH  40  42
ENDBRANCH  39  40
ENDBRANCH  38  39
ENDBRANCH  28  38
ENDBRANCH  25  26
ENDBRANCH   7  25
TORSDOF 14
ENDMDL
MODEL 2
REMARK VINA RESULT:      -8.1      1.649      4.115
REMARK  Name = 
REMARK  14 active torsions:
REMARK  status: ('A' for Active; 'I' for Inactive)
REMARK    1  A    between atoms: C_3  and  O_44
REMARK    2  A    between atoms: C_4  and  O_43
REMARK    3  A    between atoms: C_6  and  C_7
REMARK    4  A    between atoms: C_12  and  O_41
REMARK    5  A    between atoms: C_14  and  O_18
REMARK    6  A    between atoms: O_18  and  C_19
REMARK    7  A    between atoms: C_21  and  O_40
REMARK    8  A    between atoms: C_23  and  O_39
REMARK    9  A    between atoms: C_25  and  O_38
REMARK   10  A    between atoms: C_27  and  C_30
REMARK   11  A    between atoms: C_30  and  O_31
REMARK   12  A    between atoms: O_31  and  C_32
REMARK   13  A    between atoms: C_32  and  C_34
REMARK   14  A    between atoms: C_34  and  C_35
REMARK                            x       y       z     vdW  Elec       q    Type
REMARK                         _______ _______ _______ _____ _____    ______ ____
ROOT
ATOM      1  C   UNL     1       8.407  -0.322  23.893  0.00  0.00    +0.132 A 
ATOM      2  O   UNL     1       7.509  -0.969  24.762  0.00  0.00    -0.455 OA
ATOM      3  C   UNL     1       7.819  -2.219  25.247  0.00  0.00    +0.146 A 
ATOM      4  C   UNL     1       8.915  -2.919  24.763  0.00  0.00    +0.105 A 
ATOM      5  C   UNL     1       9.148  -4.230  25.187  0.00  0.00    +0.135 A 
ATOM      6  C   UNL     1       8.322  -4.829  26.119  0.00  0.00    +0.092 A 
ATOM      7  C   UNL     1       7.317  -4.092  26.753  0.00  0.00    +0.131 A 
ATOM      8  C   UNL     1       9.843  -2.267  23.846  0.00  0.00    +0.189 A 
ATOM      9  O   UNL     1      10.781  -2.950  23.424  0.00  0.00    -0.288 OA
ATOM     10  C   UNL     1       7.022  -2.805  26.258  0.00  0.00    +0.093 A 
ATOM     11  C   UNL     1       9.612  -0.820  23.482  0.00  0.00    -0.015 A 
ATOM     12  O   UNL     1      10.558  -0.297  22.812  0.00  0.00    -0.869 OA
ENDROOT
BRANCH   1  14
ATOM     13  C   UNL     1       6.684   1.269  22.895  0.00  0.00    +0.015 A 
ATOM     14  C   UNL     1       7.961   1.060  23.473  0.00  0.00    +0.020 A 
ATOM     15  C   UNL     1       8.787   2.185  23.609  0.00  0.00    +0.060 A 
ATOM     16  C   UNL     1       8.378   3.418  23.094  0.00  0.00    +0.159 A 
ATOM     17  C   UNL     1       7.155   3.565  22.440  0.00  0.00    +0.158 A 
ATOM     18  C   UNL     1       6.288   2.494  22.351  0.00  0.00    +0.050 A 
BRANCH  16  19
ATOM     19  O   UNL     1       9.203   4.506  23.198  0.00  0.00    -0.503 OA
ATOM     20  H   UNL     1       8.772   5.175  22.628  0.00  0.00    +0.292 HD
ENDBRANCH  16  19
BRANCH  17  21
ATOM     21  O   UNL     1       6.847   4.780  21.889  0.00  0.00    -0.503 OA
ATOM     22  H   UNL     1       7.511   4.944  21.195  0.00  0.00    +0.292 HD
ENDBRANCH  17  21
ENDBRANCH   1  14
BRANCH   5  23
ATOM     23  O   UNL     1      10.217  -4.981  24.762  0.00  0.00    -0.506 OA
ATOM     24  H   UNL     1       9.854  -5.622  24.102  0.00  0.00    +0.292 HD
ENDBRANCH   5  23
BRANCH   7  25
ATOM     25  O   UNL     1       6.636  -4.561  27.871  0.00  0.00    -0.461 OA
BRANCH  25  26
ATOM     26  C   UNL     1       5.827  -5.744  27.610  0.00  0.00    +0.339 C 
ATOM     27  O   UNL     1       5.370  -5.784  26.257  0.00  0.00    -0.330 OA
ATOM     28  C   UNL     1       4.002  -5.488  25.977  0.00  0.00    +0.191 C 
ATOM     29  C   UNL     1       3.046  -6.191  26.946  0.00  0.00    +0.178 C 
ATOM     30  C   UNL     1       3.337  -5.850  28.409  0.00  0.00    +0.180 C 
ATOM     31  C   UNL     1       4.812  -6.091  28.738  0.00  0.00    +0.214 C 
BRANCH  29  32
ATOM     32  O   UNL     1       3.240  -7.623  26.795  0.00  0.00    -0.386 OA
ATOM     33  H   UNL     1       2.338  -7.994  26.725  0.00  0.00    +0.210 HD
ENDBRANCH  29  32
BRANCH  30  34
ATOM     34  O   UNL     1       2.875  -4.585  28.855  0.00  0.00    -0.386 OA
ATOM     35  H   UNL     1       3.177  -3.860  28.287  0.00  0.00    +0.210 HD
ENDBRANCH  30  34
BRANCH  31  36
ATOM     36  O   UNL     1       4.927  -7.523  28.996  0.00  0.00    -0.383 OA
ATOM     37  H   UNL     1       5.863  -7.662  29.265  0.00  0.00    +0.210 HD
ENDBRANCH  31  36
BRANCH  28  38
ATOM     38  C   UNL     1       3.758  -3.985  25.800  0.00  0.00    +0.266 C 
BRANCH  38  39
ATOM     39  O   UNL     1       3.300  -3.724  24.461  0.00  0.00    -0.462 OA
BRANCH  39  40
ATOM     40  C   UNL     1       4.023  -4.254  23.436  0.00  0.00    +0.313 C 
ATOM     41  O   UNL     1       3.641  -5.201  22.753  0.00  0.00    -0.250 OA
BRANCH  40  42
ATOM     42  C   UNL     1       5.233  -3.441  23.118  0.00  0.00    +0.172 C 
BRANCH  42  43
ATOM     43  C   UNL     1       6.037  -4.017  21.979  0.00  0.00    +0.052 C 
ATOM     44  O   UNL     1       7.070  -4.655  22.340  0.00  0.00    -0.549 OA
ATOM     45  O   UNL     1       5.641  -3.763  20.810  0.00  0.00    -0.549 OA
ENDBRANCH  42  43
ENDBRANCH  40  42
ENDBRANCH  39  40
ENDBRANCH  38  39
ENDBRANCH  28  38
ENDBRANCH  25  26
ENDBRANCH   7  25
TORSDOF 14
ENDMDL
MODEL 3
REMARK VINA RESULT:      -7.8      2.433      9.560
REMARK  Name = 
REMARK  14 active torsions:
REMARK  status: ('A' for Active; 'I' for Inactive)
REMARK    1  A    between atoms: C_3  and  O_44
REMARK    2  A    between atoms: C_4  and  O_43
REMARK    3  A    between atoms: C_6  and  C_7
REMARK    4  A    between atoms: C_12  and  O_41
REMARK    5  A    between atoms: C_14  and  O_18
REMARK    6  A    between atoms: O_18  and  C_19
REMARK    7  A    between atoms: C_21  and  O_40
REMARK    8  A    between atoms: C_23  and  O_39
REMARK    9  A    between atoms: C_25  and  O_38
REMARK   10  A    between atoms: C_27  and  C_30
REMARK   11  A    between atoms: C_30  and  O_31
REMARK   12  A    between atoms: O_31  and  C_32
REMARK   13  A    between atoms: C_32  and  C_34
REMARK   14  A    between atoms: C_34  and  C_35
REMARK                            x       y       z     vdW  Elec       q    Type
REMARK                         _______ _______ _______ _____ _____    ______ ____
ROOT
ATOM      1  C   UNL     1       7.035  -4.029  24.796  0.00  0.00    +0.132 A 
ATOM      2  O   UNL     1       6.528  -2.811  25.285  0.00  0.00    -0.455 OA
ATOM      3  C   UNL     1       7.268  -1.661  25.135  0.00  0.00    +0.146 A 
ATOM      4  C   UNL     1       8.572  -1.709  24.664  0.00  0.00    +0.105 A 
ATOM      5  C   UNL     1       9.343  -0.545  24.624  0.00  0.00    +0.135 A 
ATOM      6  C   UNL     1       8.810   0.670  25.010  0.00  0.00    +0.092 A 
ATOM      7  C   UNL     1       7.452   0.780  25.323  0.00  0.00    +0.131 A 
ATOM      8  C   UNL     1       9.117  -2.970  24.171  0.00  0.00    +0.189 A 
ATOM      9  O   UNL     1      10.293  -2.958  23.794  0.00  0.00    -0.288 OA
ATOM     10  C   UNL     1       6.700  -0.405  25.454  0.00  0.00    +0.093 A 
ATOM     11  C   UNL     1       8.225  -4.188  24.143  0.00  0.00    -0.015 A 
ATOM     12  O   UNL     1       8.736  -5.190  23.549  0.00  0.00    -0.869 OA
ENDROOT
BRANCH   1  14
ATOM     13  C   UNL     1       5.318  -5.694  23.916  0.00  0.00    +0.015 A 
ATOM     14  C   UNL     1       6.100  -5.201  24.990  0.00  0.00    +0.020 A 
ATOM     15  C   UNL     1       5.943  -5.834  26.231  0.00  0.00    +0.060 A 
ATOM     16  C   UNL     1       4.977  -6.832  26.389  0.00  0.00    +0.159 A 
ATOM     17  C   UNL     1       4.154  -7.223  25.333  0.00  0.00    +0.158 A 
ATOM     18  C   UNL     1       4.330  -6.669  24.080  0.00  0.00    +0.050 A 
BRANCH  16  19
ATOM     19  O   UNL     1       4.803  -7.423  27.612  0.00  0.00    -0.503 OA
ATOM     20  H   UNL     1       4.307  -6.751  28.121  0.00  0.00    +0.292 HD
ENDBRANCH  16  19
BRANCH  17  21
ATOM     21  O   UNL     1       3.175  -8.149  25.573  0.00  0.00    -0.503 OA
ATOM     22  H   UNL     1       3.560  -8.806  26.181  0.00  0.00    +0.292 HD
ENDBRANCH  17  21
ENDBRANCH   1  14
BRANCH   5  23
ATOM     23  O   UNL     1      10.636  -0.513  24.159  0.00  0.00    -0.506 OA
ATOM     24  H   UNL     1      10.720  -1.275  23.534  0.00  0.00    +0.292 HD
ENDBRANCH   5  23
BRANCH   7  25
ATOM     25  O   UNL     1       6.812   2.008  25.461  0.00  0.00    -0.461 OA
BRANCH  25  26
ATOM     26  C   UNL     1       6.052   2.407  24.285  0.00  0.00    +0.339 C 
ATOM     27  O   UNL     1       6.897   2.949  23.268  0.00  0.00    -0.330 OA
ATOM     28  C   UNL     1       6.896   4.359  23.043  0.00  0.00    +0.191 C 
ATOM     29  C   UNL     1       5.478   4.939  23.007  0.00  0.00    +0.178 C 
ATOM     30  C   UNL     1       4.688   4.642  24.283  0.00  0.00    +0.180 C 
ATOM     31  C   UNL     1       4.718   3.145  24.600  0.00  0.00    +0.214 C 
BRANCH  29  32
ATOM     32  O   UNL     1       4.770   4.304  21.908  0.00  0.00    -0.386 OA
ATOM     33  H   UNL     1       3.984   3.893  22.319  0.00  0.00    +0.210 HD
ENDBRANCH  29  32
BRANCH  30  34
ATOM     34  O   UNL     1       5.002   5.447  25.408  0.00  0.00    -0.386 OA
ATOM     35  H   UNL     1       5.337   6.321  25.156  0.00  0.00    +0.210 HD
ENDBRANCH  30  34
BRANCH  31  36
ATOM     36  O   UNL     1       3.685   2.546  23.761  0.00  0.00    -0.383 OA
ATOM     37  H   UNL     1       3.997   1.630  23.582  0.00  0.00    +0.210 HD
ENDBRANCH  31  36
BRANCH  28  38
ATOM     38  C   UNL     1       7.876   5.094  23.964  0.00  0.00    +0.266 C 
BRANCH  38  39
ATOM     39  O   UNL     1       8.871   4.174  24.444  0.00  0.00    -0.462 OA
BRANCH  39  40
ATOM     40  C   UNL     1      10.107   4.232  23.876  0.00  0.00    +0.313 C 
ATOM     41  O   UNL     1      10.703   3.251  23.439  0.00  0.00    -0.250 OA
BRANCH  40  42
ATOM     42  C   UNL     1      10.570   5.636  23.674  0.00  0.00    +0.172 C 
BRANCH  42  43
ATOM     43  C   UNL     1      12.073   5.751  23.626  0.00  0.00    +0.052 C 
ATOM     44  O   UNL     1      12.606   6.102  24.720  0.00  0.00    -0.549 OA
ATOM     45  O   UNL     1      12.630   5.547  22.513  0.00  0.00    -0.549 OA
ENDBRANCH  42  43
ENDBRANCH  40  42
ENDBRANCH  39  40
ENDBRANCH  38  39
ENDBRANCH  28  38
ENDBRANCH  25  26
ENDBRANCH   7  25
TORSDOF 14
ENDMDL
MODEL 4
REMARK VINA RESULT:      -7.8      1.500      2.054
REMARK  Name = 
REMARK  14 active torsions:
REMARK  status: ('A' for Active; 'I' for Inactive)
REMARK    1  A    between atoms: C_3  and  O_44
REMARK    2  A    between atoms: C_4  and  O_43
REMARK    3  A    between atoms: C_6  and  C_7
REMARK    4  A    between atoms: C_12  and  O_41
REMARK    5  A    between atoms: C_14  and  O_18
REMARK    6  A    between atoms: O_18  and  C_19
REMARK    7  A    between atoms: C_21  and  O_40
REMARK    8  A    between atoms: C_23  and  O_39
REMARK    9  A    between atoms: C_25  and  O_38
REMARK   10  A    between atoms: C_27  and  C_30
REMARK   11  A    between atoms: C_30  and  O_31
REMARK   12  A    between atoms: O_31  and  C_32
REMARK   13  A    between atoms: C_32  and  C_34
REMARK   14  A    between atoms: C_34  and  C_35
REMARK                            x       y       z     vdW  Elec       q    Type
REMARK                         _______ _______ _______ _____ _____    ______ ____
ROOT
ATOM      1  C   UNL     1       8.184  -0.240  23.748  0.00  0.00    +0.132 A 
ATOM      2  O   UNL     1       6.989  -0.888  24.114  0.00  0.00    -0.455 OA
ATOM      3  C   UNL     1       7.020  -2.221  24.455  0.00  0.00    +0.146 A 
ATOM      4  C   UNL     1       8.171  -2.974  24.281  0.00  0.00    +0.105 A 
ATOM      5  C   UNL     1       8.149  -4.349  24.527  0.00  0.00    +0.135 A 
ATOM      6  C   UNL     1       7.001  -4.968  24.985  0.00  0.00    +0.092 A 
ATOM      7  C   UNL     1       5.880  -4.209  25.335  0.00  0.00    +0.131 A 
ATOM      8  C   UNL     1       9.412  -2.319  23.882  0.00  0.00    +0.189 A 
ATOM      9  O   UNL     1      10.396  -3.046  23.712  0.00  0.00    -0.288 OA
ATOM     10  C   UNL     1       5.870  -2.840  24.998  0.00  0.00    +0.093 A 
ATOM     11  C   UNL     1       9.422  -0.818  23.715  0.00  0.00    -0.015 A 
ATOM     12  O   UNL     1      10.580  -0.325  23.528  0.00  0.00    -0.869 OA
ENDROOT
BRANCH   1  14
ATOM     13  C   UNL     1       7.256   1.657  22.321  0.00  0.00    +0.015 A 
ATOM     14  C   UNL     1       8.012   1.230  23.442  0.00  0.00    +0.020 A 
ATOM     15  C   UNL     1       8.604   2.231  24.226  0.00  0.00    +0.060 A 
ATOM     16  C   UNL     1       8.518   3.569  23.831  0.00  0.00    +0.159 A 
ATOM     17  C   UNL     1       7.851   3.944  22.665  0.00  0.00    +0.158 A 
ATOM     18  C   UNL     1       7.197   2.991  21.909  0.00  0.00    +0.050 A 
BRANCH  16  19
ATOM     19  O   UNL     1       9.128   4.539  24.581  0.00  0.00    -0.503 OA
ATOM     20  H   UNL     1       8.487   4.710  25.299  0.00  0.00    +0.292 HD
ENDBRANCH  16  19
BRANCH  17  21
ATOM     21  O   UNL     1       7.870   5.261  22.293  0.00  0.00    -0.503 OA
ATOM     22  H   UNL     1       7.095   5.397  21.719  0.00  0.00    +0.292 HD
ENDBRANCH  17  21
ENDBRANCH   1  14
BRANCH   5  23
ATOM     23  O   UNL     1       9.251  -5.158  24.389  0.00  0.00    -0.506 OA
ATOM     24  H   UNL     1       8.903  -6.058  24.174  0.00  0.00    +0.292 HD
ENDBRANCH   5  23
BRANCH   7  25
ATOM     25  O   UNL     1       4.804  -4.742  26.038  0.00  0.00    -0.461 OA
BRANCH  25  26
ATOM     26  C   UNL     1       3.563  -4.766  25.278  0.00  0.00    +0.339 C 
ATOM     27  O   UNL     1       2.422  -4.880  26.131  0.00  0.00    -0.330 OA
ATOM     28  C   UNL     1       1.732  -6.128  26.206  0.00  0.00    +0.191 C 
ATOM     29  C   UNL     1       1.503  -6.747  24.823  0.00  0.00    +0.178 C 
ATOM     30  C   UNL     1       2.805  -6.946  24.044  0.00  0.00    +0.180 C 
ATOM     31  C   UNL     1       3.610  -5.646  23.995  0.00  0.00    +0.214 C 
BRANCH  29  32
ATOM     32  O   UNL     1       0.685  -5.823  24.057  0.00  0.00    -0.386 OA
ATOM     33  H   UNL     1      -0.192  -6.250  23.998  0.00  0.00    +0.210 HD
ENDBRANCH  29  32
BRANCH  30  34
ATOM     34  O   UNL     1       3.591  -8.064  24.426  0.00  0.00    -0.386 OA
ATOM     35  H   UNL     1       4.536  -7.925  24.263  0.00  0.00    +0.210 HD
ENDBRANCH  30  34
BRANCH  31  36
ATOM     36  O   UNL     1       3.023  -4.863  22.912  0.00  0.00    -0.383 OA
ATOM     37  H   UNL     1       2.838  -3.979  23.304  0.00  0.00    +0.210 HD
ENDBRANCH  31  36
BRANCH  28  38
ATOM     38  C   UNL     1       2.350  -7.071  27.244  0.00  0.00    +0.266 C 
BRANCH  38  39
ATOM     39  O   UNL     1       2.890  -6.302  28.334  0.00  0.00    -0.462 OA
BRANCH  39  40
ATOM     40  C   UNL     1       3.816  -6.904  29.129  0.00  0.00    +0.313 C 
ATOM     41  O   UNL     1       3.559  -7.383  30.231  0.00  0.00    -0.250 OA
BRANCH  40  42
ATOM     42  C   UNL     1       5.125  -7.084  28.436  0.00  0.00    +0.172 C 
BRANCH  42  43
ATOM     43  C   UNL     1       6.179  -6.123  28.925  0.00  0.00    +0.052 C 
ATOM     44  O   UNL     1       7.220  -6.078  28.205  0.00  0.00    -0.549 OA
ATOM     45  O   UNL     1       5.948  -5.516  30.006  0.00  0.00    -0.549 OA
ENDBRANCH  42  43
ENDBRANCH  40  42
ENDBRANCH  39  40
ENDBRANCH  38  39
ENDBRANCH  28  38
ENDBRANCH  25  26
ENDBRANCH   7  25
TORSDOF 14
ENDMDL
MODEL 5
REMARK VINA RESULT:      -7.7      2.641      8.364
REMARK  Name = 
REMARK  14 active torsions:
REMARK  status: ('A' for Active; 'I' for Inactive)
REMARK    1  A    between atoms: C_3  and  O_44
REMARK    2  A    between atoms: C_4  and  O_43
REMARK    3  A    between atoms: C_6  and  C_7
REMARK    4  A    between atoms: C_12  and  O_41
REMARK    5  A    between atoms: C_14  and  O_18
REMARK    6  A    between atoms: O_18  and  C_19
REMARK    7  A    between atoms: C_21  and  O_40
REMARK    8  A    between atoms: C_23  and  O_39
REMARK    9  A    between atoms: C_25  and  O_38
REMARK   10  A    between atoms: C_27  and  C_30
REMARK   11  A    between atoms: C_30  and  O_31
REMARK   12  A    between atoms: O_31  and  C_32
REMARK   13  A    between atoms: C_32  and  C_34
REMARK   14  A    between atoms: C_34  and  C_35
REMARK                            x       y       z     vdW  Elec       q    Type
REMARK                         _______ _______ _______ _____ _____    ______ ____
ROOT
ATOM      1  C   UNL     1       6.980  -4.177  24.352  0.00  0.00    +0.132 A 
ATOM      2  O   UNL     1       6.361  -2.929  24.152  0.00  0.00    -0.455 OA
ATOM      3  C   UNL     1       7.123  -1.851  23.766  0.00  0.00    +0.146 A 
ATOM      4  C   UNL     1       8.507  -1.931  23.735  0.00  0.00    +0.105 A 
ATOM      5  C   UNL     1       9.266  -0.793  23.449  0.00  0.00    +0.135 A 
ATOM      6  C   UNL     1       8.653   0.410  23.152  0.00  0.00    +0.092 A 
ATOM      7  C   UNL     1       7.264   0.480  23.004  0.00  0.00    +0.131 A 
ATOM      8  C   UNL     1       9.163  -3.214  23.960  0.00  0.00    +0.189 A 
ATOM      9  O   UNL     1      10.398  -3.217  23.953  0.00  0.00    -0.288 OA
ATOM     10  C   UNL     1       6.497  -0.640  23.385  0.00  0.00    +0.093 A 
ATOM     11  C   UNL     1       8.310  -4.441  24.175  0.00  0.00    -0.015 A 
ATOM     12  O   UNL     1       8.965  -5.530  24.198  0.00  0.00    -0.869 OA
ENDROOT
BRANCH   1  14
ATOM     13  C   UNL     1       5.071  -5.773  23.799  0.00  0.00    +0.015 A 
ATOM     14  C   UNL     1       6.019  -5.281  24.730  0.00  0.00    +0.020 A 
ATOM     15  C   UNL     1       6.002  -5.850  26.012  0.00  0.00    +0.060 A 
ATOM     16  C   UNL     1       5.015  -6.779  26.351  0.00  0.00    +0.159 A 
ATOM     17  C   UNL     1       4.034  -7.165  25.438  0.00  0.00    +0.158 A 
ATOM     18  C   UNL     1       4.064  -6.678  24.146  0.00  0.00    +0.050 A 
BRANCH  16  19
ATOM     19  O   UNL     1       4.981  -7.305  27.615  0.00  0.00    -0.503 OA
ATOM     20  H   UNL     1       5.894  -7.175  27.941  0.00  0.00    +0.292 HD
ENDBRANCH  16  19
BRANCH  17  21
ATOM     21  O   UNL     1       3.049  -8.020  25.856  0.00  0.00    -0.503 OA
ATOM     22  H   UNL     1       2.768  -7.708  26.735  0.00  0.00    +0.292 HD
ENDBRANCH  17  21
ENDBRANCH   1  14
BRANCH   5  23
ATOM     23  O   UNL     1      10.638  -0.797  23.389  0.00  0.00    -0.506 OA
ATOM     24  H   UNL     1      10.940  -0.068  23.984  0.00  0.00    +0.292 HD
ENDBRANCH   5  23
BRANCH   7  25
ATOM     25  O   UNL     1       6.623   1.586  22.457  0.00  0.00    -0.461 OA
BRANCH  25  26
ATOM     26  C   UNL     1       7.012   2.849  23.069  0.00  0.00    +0.339 C 
ATOM     27  O   UNL     1       6.711   2.875  24.466  0.00  0.00    -0.330 OA
ATOM     28  C   UNL     1       5.603   3.651  24.924  0.00  0.00    +0.191 C 
ATOM     29  C   UNL     1       5.567   5.042  24.283  0.00  0.00    +0.178 C 
ATOM     30  C   UNL     1       5.534   4.986  22.755  0.00  0.00    +0.180 C 
ATOM     31  C   UNL     1       6.668   4.109  22.222  0.00  0.00    +0.214 C 
BRANCH  29  32
ATOM     32  O   UNL     1       6.789   5.732  24.659  0.00  0.00    -0.386 OA
ATOM     33  H   UNL     1       7.262   5.885  23.817  0.00  0.00    +0.210 HD
ENDBRANCH  29  32
BRANCH  30  34
ATOM     34  O   UNL     1       4.278   4.673  22.172  0.00  0.00    -0.386 OA
ATOM     35  H   UNL     1       4.362   4.359  21.260  0.00  0.00    +0.210 HD
ENDBRANCH  30  34
BRANCH  31  36
ATOM     36  O   UNL     1       7.853   4.961  22.215  0.00  0.00    -0.383 OA
ATOM     37  H   UNL     1       8.443   4.576  21.528  0.00  0.00    +0.210 HD
ENDBRANCH  31  36
BRANCH  28  38
ATOM     38  C   UNL     1       4.285   2.872  24.861  0.00  0.00    +0.266 C 
BRANCH  38  39
ATOM     39  O   UNL     1       4.515   1.501  25.230  0.00  0.00    -0.462 OA
BRANCH  39  40
ATOM     40  C   UNL     1       4.110   1.108  26.469  0.00  0.00    +0.313 C 
ATOM     41  O   UNL     1       2.970   0.727  26.723  0.00  0.00    -0.250 OA
BRANCH  40  42
ATOM     42  C   UNL     1       5.246   1.010  27.432  0.00  0.00    +0.172 C 
BRANCH  42  43
ATOM     43  C   UNL     1       6.267  -0.022  27.024  0.00  0.00    +0.052 C 
ATOM     44  O   UNL     1       7.375   0.460  26.644  0.00  0.00    -0.549 OA
ATOM     45  O   UNL     1       5.905  -1.230  27.048  0.00  0.00    -0.549 OA
ENDBRANCH  42  43
ENDBRANCH  40  42
ENDBRANCH  39  40
ENDBRANCH  38  39
ENDBRANCH  28  38
ENDBRANCH  25  26
ENDBRANCH   7  25
TORSDOF 14
ENDMDL
MODEL 6
REMARK VINA RESULT:      -7.7      2.726      8.410
REMARK  Name = 
REMARK  14 active torsions:
REMARK  status: ('A' for Active; 'I' for Inactive)
REMARK    1  A    between atoms: C_3  and  O_44
REMARK    2  A    between atoms: C_4  and  O_43
REMARK    3  A    between atoms: C_6  and  C_7
REMARK    4  A    between atoms: C_12  and  O_41
REMARK    5  A    between atoms: C_14  and  O_18
REMARK    6  A    between atoms: O_18  and  C_19
REMARK    7  A    between atoms: C_21  and  O_40
REMARK    8  A    between atoms: C_23  and  O_39
REMARK    9  A    between atoms: C_25  and  O_38
REMARK   10  A    between atoms: C_27  and  C_30
REMARK   11  A    between atoms: C_30  and  O_31
REMARK   12  A    between atoms: O_31  and  C_32
REMARK   13  A    between atoms: C_32  and  C_34
REMARK   14  A    between atoms: C_34  and  C_35
REMARK                            x       y       z     vdW  Elec       q    Type
REMARK                         _______ _______ _______ _____ _____    ______ ____
ROOT
ATOM      1  C   UNL     1       7.148  -3.750  25.814  0.00  0.00    +0.132 A 
ATOM      2  O   UNL     1       7.927  -2.632  26.167  0.00  0.00    -0.455 OA
ATOM      3  C   UNL     1       8.619  -1.955  25.189  0.00  0.00    +0.146 A 
ATOM      4  C   UNL     1       8.696  -2.452  23.896  0.00  0.00    +0.105 A 
ATOM      5  C   UNL     1       9.494  -1.808  22.947  0.00  0.00    +0.135 A 
ATOM      6  C   UNL     1      10.180  -0.651  23.267  0.00  0.00    +0.092 A 
ATOM      7  C   UNL     1       9.984  -0.031  24.506  0.00  0.00    +0.131 A 
ATOM      8  C   UNL     1       7.909  -3.622  23.522  0.00  0.00    +0.189 A 
ATOM      9  O   UNL     1       8.044  -4.037  22.367  0.00  0.00    -0.288 OA
ATOM     10  C   UNL     1       9.257  -0.729  25.492  0.00  0.00    +0.093 A 
ATOM     11  C   UNL     1       6.986  -4.237  24.547  0.00  0.00    -0.015 A 
ATOM     12  O   UNL     1       6.226  -5.144  24.082  0.00  0.00    -0.869 OA
ENDROOT
BRANCH   1  14
ATOM     13  C   UNL     1       5.310  -3.710  27.579  0.00  0.00    +0.015 A 
ATOM     14  C   UNL     1       6.410  -4.371  26.978  0.00  0.00    +0.020 A 
ATOM     15  C   UNL     1       6.788  -5.603  27.531  0.00  0.00    +0.060 A 
ATOM     16  C   UNL     1       6.153  -6.076  28.683  0.00  0.00    +0.159 A 
ATOM     17  C   UNL     1       5.139  -5.348  29.306  0.00  0.00    +0.158 A 
ATOM     18  C   UNL     1       4.696  -4.166  28.748  0.00  0.00    +0.050 A 
BRANCH  16  19
ATOM     19  O   UNL     1       6.549  -7.262  29.239  0.00  0.00    -0.503 OA
ATOM     20  H   UNL     1       5.917  -7.392  29.975  0.00  0.00    +0.292 HD
ENDBRANCH  16  19
BRANCH  17  21
ATOM     21  O   UNL     1       4.612  -5.828  30.475  0.00  0.00    -0.503 OA
ATOM     22  H   UNL     1       5.034  -5.325  31.195  0.00  0.00    +0.292 HD
ENDBRANCH  17  21
ENDBRANCH   1  14
BRANCH   5  23
ATOM     23  O   UNL     1       9.611  -2.234  21.647  0.00  0.00    -0.506 OA
ATOM     24  H   UNL     1      10.561  -2.108  21.403  0.00  0.00    +0.292 HD
ENDBRANCH   5  23
BRANCH   7  25
ATOM     25  O   UNL     1      10.437   1.255  24.780  0.00  0.00    -0.461 OA
BRANCH  25  26
ATOM     26  C   UNL     1       9.943   2.260  23.850  0.00  0.00    +0.339 C 
ATOM     27  O   UNL     1       9.436   3.408  24.532  0.00  0.00    -0.330 OA
ATOM     28  C   UNL     1       8.024   3.606  24.604  0.00  0.00    +0.191 C 
ATOM     29  C   UNL     1       7.335   3.365  23.257  0.00  0.00    +0.178 C 
ATOM     30  C   UNL     1       7.611   1.967  22.697  0.00  0.00    +0.180 C 
ATOM     31  C   UNL     1       9.114   1.687  22.663  0.00  0.00    +0.214 C 
BRANCH  29  32
ATOM     32  O   UNL     1       7.877   4.320  22.307  0.00  0.00    -0.386 OA
ATOM     33  H   UNL     1       7.097   4.763  21.920  0.00  0.00    +0.210 HD
ENDBRANCH  29  32
BRANCH  30  34
ATOM     34  O   UNL     1       6.868   0.908  23.280  0.00  0.00    -0.386 OA
ATOM     35  H   UNL     1       5.954   0.878  22.961  0.00  0.00    +0.210 HD
ENDBRANCH  30  34
BRANCH  31  36
ATOM     36  O   UNL     1       9.605   2.326  21.446  0.00  0.00    -0.383 OA
ATOM     37  H   UNL     1       9.792   1.587  20.824  0.00  0.00    +0.210 HD
ENDBRANCH  31  36
BRANCH  28  38
ATOM     38  C   UNL     1       7.396   2.874  25.795  0.00  0.00    +0.266 C 
BRANCH  38  39
ATOM     39  O   UNL     1       6.003   2.628  25.531  0.00  0.00    -0.462 OA
BRANCH  39  40
ATOM     40  C   UNL     1       5.283   1.996  26.498  0.00  0.00    +0.313 C 
ATOM     41  O   UNL     1       4.266   2.463  27.005  0.00  0.00    -0.250 OA
BRANCH  40  42
ATOM     42  C   UNL     1       5.756   0.601  26.734  0.00  0.00    +0.172 C 
BRANCH  42  43
ATOM     43  C   UNL     1       4.915  -0.427  26.020  0.00  0.00    +0.052 C 
ATOM     44  O   UNL     1       5.383  -0.802  24.904  0.00  0.00    -0.549 OA
ATOM     45  O   UNL     1       3.829  -0.762  26.566  0.00  0.00    -0.549 OA
ENDBRANCH  42  43
ENDBRANCH  40  42
ENDBRANCH  39  40
ENDBRANCH  38  39
ENDBRANCH  28  38
ENDBRANCH  25  26
ENDBRANCH   7  25
TORSDOF 14
ENDMDL
MODEL 7
REMARK VINA RESULT:      -7.6      2.598      9.000
REMARK  Name = 
REMARK  14 active torsions:
REMARK  status: ('A' for Active; 'I' for Inactive)
REMARK    1  A    between atoms: C_3  and  O_44
REMARK    2  A    between atoms: C_4  and  O_43
REMARK    3  A    between atoms: C_6  and  C_7
REMARK    4  A    between atoms: C_12  and  O_41
REMARK    5  A    between atoms: C_14  and  O_18
REMARK    6  A    between atoms: O_18  and  C_19
REMARK    7  A    between atoms: C_21  and  O_40
REMARK    8  A    between atoms: C_23  and  O_39
REMARK    9  A    between atoms: C_25  and  O_38
REMARK   10  A    between atoms: C_27  and  C_30
REMARK   11  A    between atoms: C_30  and  O_31
REMARK   12  A    between atoms: O_31  and  C_32
REMARK   13  A    between atoms: C_32  and  C_34
REMARK   14  A    between atoms: C_34  and  C_35
REMARK                            x       y       z     vdW  Elec       q    Type
REMARK                         _______ _______ _______ _____ _____    ______ ____
ROOT
ATOM      1  C   UNL     1       5.127  -4.932  24.003  0.00  0.00    +0.132 A 
ATOM      2  O   UNL     1       4.822  -3.692  24.594  0.00  0.00    -0.455 OA
ATOM      3  C   UNL     1       5.812  -2.746  24.729  0.00  0.00    +0.146 A 
ATOM      4  C   UNL     1       7.134  -3.053  24.448  0.00  0.00    +0.105 A 
ATOM      5  C   UNL     1       8.138  -2.113  24.698  0.00  0.00    +0.135 A 
ATOM      6  C   UNL     1       7.825  -0.858  25.184  0.00  0.00    +0.092 A 
ATOM      7  C   UNL     1       6.491  -0.459  25.312  0.00  0.00    +0.131 A 
ATOM      8  C   UNL     1       7.467  -4.342  23.853  0.00  0.00    +0.189 A 
ATOM      9  O   UNL     1       8.665  -4.571  23.655  0.00  0.00    -0.288 OA
ATOM     10  C   UNL     1       5.486  -1.435  25.152  0.00  0.00    +0.093 A 
ATOM     11  C   UNL     1       6.349  -5.297  23.510  0.00  0.00    -0.015 A 
ATOM     12  O   UNL     1       6.723  -6.318  22.850  0.00  0.00    -0.869 OA
ENDROOT
BRANCH   1  14
ATOM     13  C   UNL     1       2.819  -5.505  23.085  0.00  0.00    +0.015 A 
ATOM     14  C   UNL     1       3.939  -5.858  23.879  0.00  0.00    +0.020 A 
ATOM     15  C   UNL     1       3.875  -7.086  24.554  0.00  0.00    +0.060 A 
ATOM     16  C   UNL     1       2.705  -7.849  24.506  0.00  0.00    +0.159 A 
ATOM     17  C   UNL     1       1.584  -7.420  23.796  0.00  0.00    +0.158 A 
ATOM     18  C   UNL     1       1.638  -6.251  23.063  0.00  0.00    +0.050 A 
BRANCH  16  19
ATOM     19  O   UNL     1       2.634  -9.029  25.196  0.00  0.00    -0.503 OA
ATOM     20  H   UNL     1       2.977  -9.687  24.558  0.00  0.00    +0.292 HD
ENDBRANCH  16  19
BRANCH  17  21
ATOM     21  O   UNL     1       0.443  -8.174  23.853  0.00  0.00    -0.503 OA
ATOM     22  H   UNL     1       0.466  -8.645  24.706  0.00  0.00    +0.292 HD
ENDBRANCH  17  21
ENDBRANCH   1  14
BRANCH   5  23
ATOM     23  O   UNL     1       9.466  -2.340  24.434  0.00  0.00    -0.506 OA
ATOM     24  H   UNL     1       9.661  -3.247  24.779  0.00  0.00    +0.292 HD
ENDBRANCH   5  23
BRANCH   7  25
ATOM     25  O   UNL     1       6.122   0.862  25.543  0.00  0.00    -0.461 OA
BRANCH  25  26
ATOM     26  C   UNL     1       5.697   1.569  24.343  0.00  0.00    +0.339 C 
ATOM     27  O   UNL     1       6.798   1.844  23.474  0.00  0.00    -0.330 OA
ATOM     28  C   UNL     1       7.301   3.177  23.391  0.00  0.00    +0.191 C 
ATOM     29  C   UNL     1       6.179   4.214  23.272  0.00  0.00    +0.178 C 
ATOM     30  C   UNL     1       5.179   4.134  24.428  0.00  0.00    +0.180 C 
ATOM     31  C   UNL     1       4.662   2.704  24.596  0.00  0.00    +0.214 C 
BRANCH  29  32
ATOM     32  O   UNL     1       5.444   3.930  22.051  0.00  0.00    -0.386 OA
ATOM     33  H   UNL     1       5.010   4.774  21.816  0.00  0.00    +0.210 HD
ENDBRANCH  29  32
BRANCH  30  34
ATOM     34  O   UNL     1       5.600   4.712  25.653  0.00  0.00    -0.386 OA
ATOM     35  H   UNL     1       6.562   4.681  25.766  0.00  0.00    +0.210 HD
ENDBRANCH  30  34
BRANCH  31  36
ATOM     36  O   UNL     1       3.603   2.550  23.603  0.00  0.00    -0.383 OA
ATOM     37  H   UNL     1       2.902   2.026  24.052  0.00  0.00    +0.210 HD
ENDBRANCH  31  36
BRANCH  28  38
ATOM     38  C   UNL     1       8.346   3.472  24.473  0.00  0.00    +0.266 C 
BRANCH  38  39
ATOM     39  O   UNL     1       9.207   2.331  24.636  0.00  0.00    -0.462 OA
BRANCH  39  40
ATOM     40  C   UNL     1      10.276   2.226  23.800  0.00  0.00    +0.313 C 
ATOM     41  O   UNL     1      10.991   3.175  23.487  0.00  0.00    -0.250 OA
BRANCH  40  42
ATOM     42  C   UNL     1      10.593   0.808  23.462  0.00  0.00    +0.172 C 
BRANCH  42  43
ATOM     43  C   UNL     1       9.954   0.361  22.171  0.00  0.00    +0.052 C 
ATOM     44  O   UNL     1      10.035  -0.884  21.952  0.00  0.00    -0.549 OA
ATOM     45  O   UNL     1       9.466   1.257  21.431  0.00  0.00    -0.549 OA
ENDBRANCH  42  43
ENDBRANCH  40  42
ENDBRANCH  39  40
ENDBRANCH  38  39
ENDBRANCH  28  38
ENDBRANCH  25  26
ENDBRANCH   7  25
TORSDOF 14
ENDMDL
MODEL 8
REMARK VINA RESULT:      -7.6      2.628      9.592
REMARK  Name = 
REMARK  14 active torsions:
REMARK  status: ('A' for Active; 'I' for Inactive)
REMARK    1  A    between atoms: C_3  and  O_44
REMARK    2  A    between atoms: C_4  and  O_43
REMARK    3  A    between atoms: C_6  and  C_7
REMARK    4  A    between atoms: C_12  and  O_41
REMARK    5  A    between atoms: C_14  and  O_18
REMARK    6  A    between atoms: O_18  and  C_19
REMARK    7  A    between atoms: C_21  and  O_40
REMARK    8  A    between atoms: C_23  and  O_39
REMARK    9  A    between atoms: C_25  and  O_38
REMARK   10  A    between atoms: C_27  and  C_30
REMARK   11  A    between atoms: C_30  and  O_31
REMARK   12  A    between atoms: O_31  and  C_32
REMARK   13  A    between atoms: C_32  and  C_34
REMARK   14  A    between atoms: C_34  and  C_35
REMARK                            x       y       z     vdW  Elec       q    Type
REMARK                         _______ _______ _______ _____ _____    ______ ____
ROOT
ATOM      1  C   UNL     1       6.946  -3.877  24.660  0.00  0.00    +0.132 A 
ATOM      2  O   UNL     1       6.529  -2.601  25.081  0.00  0.00    -0.455 OA
ATOM      3  C   UNL     1       7.379  -1.529  24.934  0.00  0.00    +0.146 A 
ATOM      4  C   UNL     1       8.695  -1.713  24.537  0.00  0.00    +0.105 A 
ATOM      5  C   UNL     1       9.572  -0.626  24.501  0.00  0.00    +0.135 A 
ATOM      6  C   UNL     1       9.134   0.646  24.817  0.00  0.00    +0.092 A 
ATOM      7  C   UNL     1       7.777   0.891  25.052  0.00  0.00    +0.131 A 
ATOM      8  C   UNL     1       9.146  -3.035  24.116  0.00  0.00    +0.189 A 
ATOM      9  O   UNL     1      10.336  -3.144  23.804  0.00  0.00    -0.288 OA
ATOM     10  C   UNL     1       6.913  -0.216  25.180  0.00  0.00    +0.093 A 
ATOM     11  C   UNL     1       8.148  -4.168  24.079  0.00  0.00    -0.015 A 
ATOM     12  O   UNL     1       8.594  -5.233  23.547  0.00  0.00    -0.869 OA
ENDROOT
BRANCH   1  14
ATOM     13  C   UNL     1       5.785  -5.662  26.062  0.00  0.00    +0.015 A 
ATOM     14  C   UNL     1       5.898  -4.952  24.840  0.00  0.00    +0.020 A 
ATOM     15  C   UNL     1       5.013  -5.313  23.813  0.00  0.00    +0.060 A 
ATOM     16  C   UNL     1       4.146  -6.395  23.987  0.00  0.00    +0.159 A 
ATOM     17  C   UNL     1       4.134  -7.136  25.169  0.00  0.00    +0.158 A 
ATOM     18  C   UNL     1       4.942  -6.764  26.225  0.00  0.00    +0.050 A 
BRANCH  16  19
ATOM     19  O   UNL     1       3.310  -6.766  22.969  0.00  0.00    -0.503 OA
ATOM     20  H   UNL     1       3.361  -6.014  22.345  0.00  0.00    +0.292 HD
ENDBRANCH  16  19
BRANCH  17  21
ATOM     21  O   UNL     1       3.317  -8.233  25.246  0.00  0.00    -0.503 OA
ATOM     22  H   UNL     1       2.974  -8.257  26.158  0.00  0.00    +0.292 HD
ENDBRANCH  17  21
ENDBRANCH   1  14
BRANCH   5  23
ATOM     23  O   UNL     1      10.884  -0.728  24.108  0.00  0.00    -0.506 OA
ATOM     24  H   UNL     1      11.177  -1.636  24.370  0.00  0.00    +0.292 HD
ENDBRANCH   5  23
BRANCH   7  25
ATOM     25  O   UNL     1       7.247   2.175  25.115  0.00  0.00    -0.461 OA
BRANCH  25  26
ATOM     26  C   UNL     1       8.028   3.166  24.388  0.00  0.00    +0.339 C 
ATOM     27  O   UNL     1       7.904   4.467  24.968  0.00  0.00    -0.330 OA
ATOM     28  C   UNL     1       7.105   5.448  24.307  0.00  0.00    +0.191 C 
ATOM     29  C   UNL     1       7.373   5.495  22.799  0.00  0.00    +0.178 C 
ATOM     30  C   UNL     1       7.155   4.141  22.121  0.00  0.00    +0.180 C 
ATOM     31  C   UNL     1       7.944   3.043  22.839  0.00  0.00    +0.214 C 
BRANCH  29  32
ATOM     32  O   UNL     1       8.770   5.846  22.611  0.00  0.00    -0.386 OA
ATOM     33  H   UNL     1       9.272   5.105  23.004  0.00  0.00    +0.210 HD
ENDBRANCH  29  32
BRANCH  30  34
ATOM     34  O   UNL     1       5.805   3.777  21.881  0.00  0.00    -0.386 OA
ATOM     35  H   UNL     1       5.181   4.461  22.169  0.00  0.00    +0.210 HD
ENDBRANCH  30  34
BRANCH  31  36
ATOM     36  O   UNL     1       9.306   3.139  22.324  0.00  0.00    -0.383 OA
ATOM     37  H   UNL     1       9.765   3.770  22.923  0.00  0.00    +0.210 HD
ENDBRANCH  31  36
BRANCH  28  38
ATOM     38  C   UNL     1       5.627   5.354  24.701  0.00  0.00    +0.266 C 
BRANCH  38  39
ATOM     39  O   UNL     1       4.832   6.121  23.779  0.00  0.00    -0.462 OA
BRANCH  39  40
ATOM     40  C   UNL     1       3.711   5.534  23.277  0.00  0.00    +0.313 C 
ATOM     41  O   UNL     1       3.409   5.550  22.086  0.00  0.00    -0.250 OA
BRANCH  40  42
ATOM     42  C   UNL     1       2.996   4.713  24.298  0.00  0.00    +0.172 C 
BRANCH  42  43
ATOM     43  C   UNL     1       2.763   3.294  23.843  0.00  0.00    +0.052 C 
ATOM     44  O   UNL     1       3.820   2.608  23.708  0.00  0.00    -0.549 OA
ATOM     45  O   UNL     1       1.574   2.957  23.596  0.00  0.00    -0.549 OA
ENDBRANCH  42  43
ENDBRANCH  40  42
ENDBRANCH  39  40
ENDBRANCH  38  39
ENDBRANCH  28  38
ENDBRANCH  25  26
ENDBRANCH   7  25
TORSDOF 14
ENDMDL
MODEL 9
REMARK VINA RESULT:      -7.4      2.704      4.845
REMARK  Name = 
REMARK  14 active torsions:
REMARK  status: ('A' for Active; 'I' for Inactive)
REMARK    1  A    between atoms: C_3  and  O_44
REMARK    2  A    between atoms: C_4  and  O_43
REMARK    3  A    between atoms: C_6  and  C_7
REMARK    4  A    between atoms: C_12  and  O_41
REMARK    5  A    between atoms: C_14  and  O_18
REMARK    6  A    between atoms: O_18  and  C_19
REMARK    7  A    between atoms: C_21  and  O_40
REMARK    8  A    between atoms: C_23  and  O_39
REMARK    9  A    between atoms: C_25  and  O_38
REMARK   10  A    between atoms: C_27  and  C_30
REMARK   11  A    between atoms: C_30  and  O_31
REMARK   12  A    between atoms: O_31  and  C_32
REMARK   13  A    between atoms: C_32  and  C_34
REMARK   14  A    between atoms: C_34  and  C_35
REMARK                            x       y       z     vdW  Elec       q    Type
REMARK                         _______ _______ _______ _____ _____    ______ ____
ROOT
ATOM      1  C   UNL     1       7.221   2.036  23.307  0.00  0.00    +0.132 A 
ATOM      2  O   UNL     1       6.487   0.835  23.293  0.00  0.00    -0.455 OA
ATOM      3  C   UNL     1       7.125  -0.343  22.978  0.00  0.00    +0.146 A 
ATOM      4  C   UNL     1       8.431  -0.344  22.512  0.00  0.00    +0.105 A 
ATOM      5  C   UNL     1       9.022  -1.539  22.093  0.00  0.00    +0.135 A 
ATOM      6  C   UNL     1       8.334  -2.735  22.175  0.00  0.00    +0.092 A 
ATOM      7  C   UNL     1       7.084  -2.792  22.800  0.00  0.00    +0.131 A 
ATOM      8  C   UNL     1       9.197   0.898  22.503  0.00  0.00    +0.189 A 
ATOM      9  O   UNL     1      10.343   0.841  22.047  0.00  0.00    -0.288 OA
ATOM     10  C   UNL     1       6.451  -1.577  23.135  0.00  0.00    +0.093 A 
ATOM     11  C   UNL     1       8.558   2.152  23.049  0.00  0.00    -0.015 A 
ATOM     12  O   UNL     1       9.355   3.138  23.149  0.00  0.00    -0.869 OA
ENDROOT
BRANCH   1  14
ATOM     13  C   UNL     1       6.166   3.536  25.076  0.00  0.00    +0.015 A 
ATOM     14  C   UNL     1       6.407   3.244  23.711  0.00  0.00    +0.020 A 
ATOM     15  C   UNL     1       5.835   4.110  22.767  0.00  0.00    +0.060 A 
ATOM     16  C   UNL     1       4.990   5.140  23.187  0.00  0.00    +0.159 A 
ATOM     17  C   UNL     1       4.694   5.336  24.535  0.00  0.00    +0.158 A 
ATOM     18  C   UNL     1       5.295   4.546  25.495  0.00  0.00    +0.050 A 
BRANCH  16  19
ATOM     19  O   UNL     1       4.406   5.961  22.259  0.00  0.00    -0.503 OA
ATOM     20  H   UNL     1       4.436   6.842  22.682  0.00  0.00    +0.292 HD
ENDBRANCH  16  19
BRANCH  17  21
ATOM     21  O   UNL     1       3.797   6.313  24.875  0.00  0.00    -0.503 OA
ATOM     22  H   UNL     1       3.778   6.345  25.848  0.00  0.00    +0.292 HD
ENDBRANCH  17  21
ENDBRANCH   1  14
BRANCH   5  23
ATOM     23  O   UNL     1      10.313  -1.620  21.631  0.00  0.00    -0.506 OA
ATOM     24  H   UNL     1      10.893  -1.528  22.427  0.00  0.00    +0.292 HD
ENDBRANCH   5  23
BRANCH   7  25
ATOM     25  O   UNL     1       6.471  -3.993  23.142  0.00  0.00    -0.461 OA
BRANCH  25  26
ATOM     26  C   UNL     1       7.212  -4.769  24.125  0.00  0.00    +0.339 C 
ATOM     27  O   UNL     1       6.340  -5.507  24.984  0.00  0.00    -0.330 OA
ATOM     28  C   UNL     1       6.146  -5.060  26.326  0.00  0.00    +0.191 C 
ATOM     29  C   UNL     1       7.464  -4.678  27.006  0.00  0.00    +0.178 C 
ATOM     30  C   UNL     1       8.236  -3.606  26.235  0.00  0.00    +0.180 C 
ATOM     31  C   UNL     1       8.411  -4.014  24.771  0.00  0.00    +0.214 C 
BRANCH  29  32
ATOM     32  O   UNL     1       8.302  -5.865  27.041  0.00  0.00    -0.386 OA
ATOM     33  H   UNL     1       8.214  -6.263  26.153  0.00  0.00    +0.210 HD
ENDBRANCH  29  32
BRANCH  30  34
ATOM     34  O   UNL     1       7.763  -2.276  26.380  0.00  0.00    -0.386 OA
ATOM     35  H   UNL     1       7.517  -1.876  25.533  0.00  0.00    +0.210 HD
ENDBRANCH  30  34
BRANCH  31  36
ATOM     36  O   UNL     1       9.554  -4.922  24.751  0.00  0.00    -0.383 OA
ATOM     37  H   UNL     1       9.810  -5.034  25.694  0.00  0.00    +0.210 HD
ENDBRANCH  31  36
BRANCH  28  38
ATOM     38  C   UNL     1       5.033  -4.012  26.433  0.00  0.00    +0.266 C 
BRANCH  38  39
ATOM     39  O   UNL     1       5.180  -3.274  27.659  0.00  0.00    -0.462 OA
BRANCH  39  40
ATOM     40  C   UNL     1       4.555  -2.068  27.746  0.00  0.00    +0.313 C 
ATOM     41  O   UNL     1       4.313  -1.502  28.809  0.00  0.00    -0.250 OA
BRANCH  40  42
ATOM     42  C   UNL     1       4.369  -1.430  26.410  0.00  0.00    +0.172 C 
BRANCH  42  43
ATOM     43  C   UNL     1       4.943  -0.037  26.346  0.00  0.00    +0.052 C 
ATOM     44  O   UNL     1       4.104   0.860  26.037  0.00  0.00    -0.549 OA
ATOM     45  O   UNL     1       6.182   0.085  26.548  0.00  0.00    -0.549 OA
ENDBRANCH  42  43
ENDBRANCH  40  42
ENDBRANCH  39  40
ENDBRANCH  38  39
ENDBRANCH  28  38
ENDBRANCH  25  26
ENDBRANCH   7  25
TORSDOF 14
ENDMDL
