MODEL 1
REMARK VINA RESULT:      -7.4      0.000      0.000
REMARK  Name = 
REMARK  6 active torsions:
REMARK  status: ('A' for Active; 'I' for Inactive)
REMARK    1  A    between atoms: C_4  and  O_25
REMARK    2  A    between atoms: C_6  and  C_7
REMARK    3  A    between atoms: C_8  and  O_20
REMARK    4  A    between atoms: C_12  and  O_19
REMARK    5  A    between atoms: C_14  and  O_18
REMARK    6  A    between atoms: O_20  and  S_21
REMARK                            x       y       z     vdW  Elec       q    Type
REMARK                         _______ _______ _______ _____ _____    ______ ____
ROOT
ATOM      1  C   UNL     1       6.839  -2.546  24.001  0.00  0.00    +0.184 A 
ATOM      2  O   UNL     1       7.216  -1.682  22.980  0.00  0.00    -0.451 OA
ATOM      3  C   UNL     1       8.185  -0.751  23.217  0.00  0.00    +0.147 A 
ATOM      4  C   UNL     1       8.854  -0.666  24.426  0.00  0.00    +0.109 A 
ATOM      5  C   UNL     1       9.836   0.322  24.605  0.00  0.00    +0.135 A 
ATOM      6  C   UNL     1      10.134   1.221  23.586  0.00  0.00    +0.091 A 
ATOM      7  C   UNL     1       9.450   1.124  22.379  0.00  0.00    +0.124 A 
ATOM      8  C   UNL     1       8.488  -1.594  25.502  0.00  0.00    +0.241 A 
ATOM      9  O   UNL     1       9.094  -1.437  26.556  0.00  0.00    -0.283 OA
ATOM     10  C   UNL     1       8.483   0.142  22.184  0.00  0.00    +0.092 A 
ATOM     11  C   UNL     1       7.395  -2.582  25.233  0.00  0.00    +0.244 A 
ENDROOT
BRANCH   1  13
ATOM     12  C   UNL     1       4.513  -3.426  24.168  0.00  0.00    +0.011 A 
ATOM     13  C   UNL     1       5.757  -3.436  23.525  0.00  0.00    +0.025 A 
ATOM     14  C   UNL     1       6.010  -4.443  22.593  0.00  0.00    +0.056 A 
ATOM     15  C   UNL     1       5.042  -5.429  22.382  0.00  0.00    +0.110 A 
ATOM     16  C   UNL     1       3.793  -5.503  23.041  0.00  0.00    -0.066 A 
ATOM     17  O   UNL     1       2.967  -6.463  22.842  0.00  0.00    -0.871 OA
ATOM     18  C   UNL     1       3.562  -4.440  23.925  0.00  0.00    -0.004 A 
BRANCH  15  19
ATOM     19  O   UNL     1       5.309  -6.453  21.496  0.00  0.00    -0.507 OA
ATOM     20  H   UNL     1       6.241  -6.198  21.283  0.00  0.00    +0.292 HD
ENDBRANCH  15  19
ENDBRANCH   1  13
BRANCH   5  21
ATOM     21  O   UNL     1      10.544   0.470  25.771  0.00  0.00    -0.506 OA
ATOM     22  H   UNL     1      11.025   1.335  25.705  0.00  0.00    +0.292 HD
ENDBRANCH   5  21
BRANCH   7  23
ATOM     23  O   UNL     1       9.705   1.992  21.357  0.00  0.00    -0.507 OA
ATOM     24  H   UNL     1       9.869   2.869  21.741  0.00  0.00    +0.292 HD
ENDBRANCH   7  23
BRANCH  11  25
ATOM     25  O   UNL     1       6.940  -3.465  26.204  0.00  0.00    -0.353 OA
BRANCH  25  26
ATOM     26  S   UNL     1       7.460  -5.009  26.383  0.00  0.00    +0.043 S 
ATOM     27  O   UNL     1       6.386  -5.804  25.789  0.00  0.00    -0.259 OA
ATOM     28  O   UNL     1       7.576  -5.209  27.827  0.00  0.00    -0.336 OA
ATOM     29  O   UNL     1       8.711  -5.075  25.625  0.00  0.00    -0.336 OA
ENDBRANCH  25  26
ENDBRANCH  11  25
TORSDOF 6
ENDMDL
MODEL 2
REMARK VINA RESULT:      -7.1      1.301      1.660
REMARK  Name = 
REMARK  6 active torsions:
REMARK  status: ('A' for Active; 'I' for Inactive)
REMARK    1  A    between atoms: C_4  and  O_25
REMARK    2  A    between atoms: C_6  and  C_7
REMARK    3  A    between atoms: C_8  and  O_20
REMARK    4  A    between atoms: C_12  and  O_19
REMARK    5  A    between atoms: C_14  and  O_18
REMARK    6  A    between atoms: O_20  and  S_21
REMARK                            x       y       z     vdW  Elec       q    Type
REMARK                         _______ _______ _______ _____ _____    ______ ____
ROOT
ATOM      1  C   UNL     1       7.185  -2.051  23.331  0.00  0.00    +0.184 A 
ATOM      2  O   UNL     1       6.826  -0.846  22.739  0.00  0.00    -0.451 OA
ATOM      3  C   UNL     1       7.656   0.230  22.856  0.00  0.00    +0.147 A 
ATOM      4  C   UNL     1       8.880   0.157  23.498  0.00  0.00    +0.109 A 
ATOM      5  C   UNL     1       9.682   1.306  23.589  0.00  0.00    +0.135 A 
ATOM      6  C   UNL     1       9.255   2.517  23.052  0.00  0.00    +0.091 A 
ATOM      7  C   UNL     1       8.021   2.573  22.414  0.00  0.00    +0.124 A 
ATOM      8  C   UNL     1       9.287  -1.118  24.100  0.00  0.00    +0.241 A 
ATOM      9  O   UNL     1      10.365  -1.100  24.684  0.00  0.00    -0.283 OA
ATOM     10  C   UNL     1       7.221   1.438  22.306  0.00  0.00    +0.092 A 
ATOM     11  C   UNL     1       8.343  -2.275  23.993  0.00  0.00    +0.244 A 
ENDROOT
BRANCH   1  13
ATOM     12  C   UNL     1       4.984  -3.062  23.917  0.00  0.00    +0.011 A 
ATOM     13  C   UNL     1       6.123  -3.055  23.102  0.00  0.00    +0.025 A 
ATOM     14  C   UNL     1       6.323  -4.132  22.238  0.00  0.00    +0.056 A 
ATOM     15  C   UNL     1       5.417  -5.197  22.262  0.00  0.00    +0.110 A 
ATOM     16  C   UNL     1       4.283  -5.286  23.102  0.00  0.00    -0.066 A 
ATOM     17  O   UNL     1       3.517  -6.314  23.114  0.00  0.00    -0.871 OA
ATOM     18  C   UNL     1       4.093  -4.156  23.910  0.00  0.00    -0.004 A 
BRANCH  15  19
ATOM     19  O   UNL     1       5.639  -6.286  21.444  0.00  0.00    -0.507 OA
ATOM     20  H   UNL     1       4.773  -6.738  21.596  0.00  0.00    +0.292 HD
ENDBRANCH  15  19
ENDBRANCH   1  13
BRANCH   5  21
ATOM     21  O   UNL     1      10.908   1.316  24.207  0.00  0.00    -0.506 OA
ATOM     22  H   UNL     1      11.035   2.228  24.575  0.00  0.00    +0.292 HD
ENDBRANCH   5  21
BRANCH   7  23
ATOM     23  O   UNL     1       7.559   3.742  21.881  0.00  0.00    -0.507 OA
ATOM     24  H   UNL     1       7.219   4.289  22.607  0.00  0.00    +0.292 HD
ENDBRANCH   7  23
BRANCH  11  25
ATOM     25  O   UNL     1       8.614  -3.507  24.576  0.00  0.00    -0.353 OA
BRANCH  25  26
ATOM     26  S   UNL     1       8.098  -3.972  26.061  0.00  0.00    +0.043 S 
ATOM     27  O   UNL     1       9.314  -4.463  26.708  0.00  0.00    -0.259 OA
ATOM     28  O   UNL     1       7.124  -5.035  25.813  0.00  0.00    -0.336 OA
ATOM     29  O   UNL     1       7.572  -2.752  26.676  0.00  0.00    -0.336 OA
ENDBRANCH  25  26
ENDBRANCH  11  25
TORSDOF 6
ENDMDL
MODEL 3
REMARK VINA RESULT:      -7.0      2.676      4.445
REMARK  Name = 
REMARK  6 active torsions:
REMARK  status: ('A' for Active; 'I' for Inactive)
REMARK    1  A    between atoms: C_4  and  O_25
REMARK    2  A    between atoms: C_6  and  C_7
REMARK    3  A    between atoms: C_8  and  O_20
REMARK    4  A    between atoms: C_12  and  O_19
REMARK    5  A    between atoms: C_14  and  O_18
REMARK    6  A    between atoms: O_20  and  S_21
REMARK                            x       y       z     vdW  Elec       q    Type
REMARK                         _______ _______ _______ _____ _____    ______ ____
ROOT
ATOM      1  C   UNL     1       6.997  -3.818  25.568  0.00  0.00    +0.184 A 
ATOM      2  O   UNL     1       7.706  -2.703  25.996  0.00  0.00    -0.451 OA
ATOM      3  C   UNL     1       8.479  -2.019  25.104  0.00  0.00    +0.147 A 
ATOM      4  C   UNL     1       8.545  -2.360  23.765  0.00  0.00    +0.109 A 
ATOM      5  C   UNL     1       9.368  -1.617  22.902  0.00  0.00    +0.135 A 
ATOM      6  C   UNL     1      10.125  -0.553  23.382  0.00  0.00    +0.091 A 
ATOM      7  C   UNL     1      10.050  -0.227  24.732  0.00  0.00    +0.124 A 
ATOM      8  C   UNL     1       7.776  -3.516  23.291  0.00  0.00    +0.241 A 
ATOM      9  O   UNL     1       7.911  -3.782  22.103  0.00  0.00    -0.283 OA
ATOM     10  C   UNL     1       9.229  -0.947  25.596  0.00  0.00    +0.092 A 
ATOM     11  C   UNL     1       6.964  -4.275  24.295  0.00  0.00    +0.244 A 
ENDROOT
BRANCH   1  13
ATOM     12  C   UNL     1       5.247  -3.680  27.337  0.00  0.00    +0.011 A 
ATOM     13  C   UNL     1       6.263  -4.410  26.708  0.00  0.00    +0.025 A 
ATOM     14  C   UNL     1       6.701  -5.588  27.315  0.00  0.00    +0.056 A 
ATOM     15  C   UNL     1       6.155  -5.959  28.546  0.00  0.00    +0.110 A 
ATOM     16  C   UNL     1       5.170  -5.234  29.255  0.00  0.00    -0.066 A 
ATOM     17  O   UNL     1       4.745  -5.600  30.408  0.00  0.00    -0.871 OA
ATOM     18  C   UNL     1       4.721  -4.090  28.580  0.00  0.00    -0.004 A 
BRANCH  15  19
ATOM     19  O   UNL     1       6.622  -7.098  29.172  0.00  0.00    -0.507 OA
ATOM     20  H   UNL     1       5.770  -7.602  29.171  0.00  0.00    +0.292 HD
ENDBRANCH  15  19
ENDBRANCH   1  13
BRANCH   5  21
ATOM     21  O   UNL     1       9.487  -1.890  21.562  0.00  0.00    -0.506 OA
ATOM     22  H   UNL     1       8.751  -1.406  21.106  0.00  0.00    +0.292 HD
ENDBRANCH   5  21
BRANCH   7  23
ATOM     23  O   UNL     1      10.783   0.804  25.246  0.00  0.00    -0.507 OA
ATOM     24  H   UNL     1      11.638   0.823  24.787  0.00  0.00    +0.292 HD
ENDBRANCH   7  23
BRANCH  11  25
ATOM     25  O   UNL     1       6.246  -5.415  23.957  0.00  0.00    -0.353 OA
BRANCH  25  26
ATOM     26  S   UNL     1       4.840  -5.419  23.114  0.00  0.00    +0.043 S 
ATOM     27  O   UNL     1       4.069  -6.496  23.736  0.00  0.00    -0.259 OA
ATOM     28  O   UNL     1       5.221  -5.723  21.735  0.00  0.00    -0.336 OA
ATOM     29  O   UNL     1       4.261  -4.093  23.341  0.00  0.00    -0.336 OA
ENDBRANCH  25  26
ENDBRANCH  11  25
TORSDOF 6
ENDMDL
MODEL 4
REMARK VINA RESULT:      -7.0      2.849      6.559
REMARK  Name = 
REMARK  6 active torsions:
REMARK  status: ('A' for Active; 'I' for Inactive)
REMARK    1  A    between atoms: C_4  and  O_25
REMARK    2  A    between atoms: C_6  and  C_7
REMARK    3  A    between atoms: C_8  and  O_20
REMARK    4  A    between atoms: C_12  and  O_19
REMARK    5  A    between atoms: C_14  and  O_18
REMARK    6  A    between atoms: O_20  and  S_21
REMARK                            x       y       z     vdW  Elec       q    Type
REMARK                         _______ _______ _______ _____ _____    ______ ____
ROOT
ATOM      1  C   UNL     1       7.209  -0.580  23.366  0.00  0.00    +0.184 A 
ATOM      2  O   UNL     1       6.434  -1.498  22.668  0.00  0.00    -0.451 OA
ATOM      3  C   UNL     1       6.743  -2.825  22.739  0.00  0.00    +0.147 A 
ATOM      4  C   UNL     1       7.772  -3.306  23.528  0.00  0.00    +0.109 A 
ATOM      5  C   UNL     1       8.041  -4.685  23.549  0.00  0.00    +0.135 A 
ATOM      6  C   UNL     1       7.292  -5.567  22.776  0.00  0.00    +0.091 A 
ATOM      7  C   UNL     1       6.264  -5.065  21.985  0.00  0.00    +0.124 A 
ATOM      8  C   UNL     1       8.579  -2.351  24.297  0.00  0.00    +0.241 A 
ATOM      9  O   UNL     1       9.496  -2.844  24.944  0.00  0.00    -0.283 OA
ATOM     10  C   UNL     1       5.980  -3.703  21.965  0.00  0.00    +0.092 A 
ATOM     11  C   UNL     1       8.246  -0.897  24.174  0.00  0.00    +0.244 A 
ENDROOT
BRANCH   1  13
ATOM     12  C   UNL     1       7.251   1.545  22.065  0.00  0.00    +0.011 A 
ATOM     13  C   UNL     1       6.710   0.789  23.112  0.00  0.00    +0.025 A 
ATOM     14  C   UNL     1       5.869   1.430  24.022  0.00  0.00    +0.056 A 
ATOM     15  C   UNL     1       5.648   2.804  23.889  0.00  0.00    +0.110 A 
ATOM     16  C   UNL     1       6.211   3.629  22.888  0.00  0.00    -0.066 A 
ATOM     17  O   UNL     1       6.011   4.895  22.849  0.00  0.00    -0.871 OA
ATOM     18  C   UNL     1       7.002   2.930  21.965  0.00  0.00    -0.004 A 
BRANCH  15  19
ATOM     19  O   UNL     1       4.855   3.449  24.816  0.00  0.00    -0.507 OA
ATOM     20  H   UNL     1       4.865   4.344  24.392  0.00  0.00    +0.292 HD
ENDBRANCH  15  19
ENDBRANCH   1  13
BRANCH   5  21
ATOM     21  O   UNL     1       9.041  -5.241  24.306  0.00  0.00    -0.506 OA
ATOM     22  H   UNL     1       8.691  -5.316  25.231  0.00  0.00    +0.292 HD
ENDBRANCH   5  21
BRANCH   7  23
ATOM     23  O   UNL     1       5.512  -5.895  21.205  0.00  0.00    -0.507 OA
ATOM     24  H   UNL     1       5.585  -5.592  20.285  0.00  0.00    +0.292 HD
ENDBRANCH   7  23
BRANCH  11  25
ATOM     25  O   UNL     1       8.985   0.089  24.818  0.00  0.00    -0.353 OA
BRANCH  25  26
ATOM     26  S   UNL     1      10.268   0.872  24.165  0.00  0.00    +0.043 S 
ATOM     27  O   UNL     1      11.368   0.545  25.072  0.00  0.00    -0.259 OA
ATOM     28  O   UNL     1       9.910   2.290  24.202  0.00  0.00    -0.336 OA
ATOM     29  O   UNL     1      10.429   0.287  22.833  0.00  0.00    -0.336 OA
ENDBRANCH  25  26
ENDBRANCH  11  25
TORSDOF 6
ENDMDL
MODEL 5
REMARK VINA RESULT:      -6.9      2.424      3.975
REMARK  Name = 
REMARK  6 active torsions:
REMARK  status: ('A' for Active; 'I' for Inactive)
REMARK    1  A    between atoms: C_4  and  O_25
REMARK    2  A    between atoms: C_6  and  C_7
REMARK    3  A    between atoms: C_8  and  O_20
REMARK    4  A    between atoms: C_12  and  O_19
REMARK    5  A    between atoms: C_14  and  O_18
REMARK    6  A    between atoms: O_20  and  S_21
REMARK                            x       y       z     vdW  Elec       q    Type
REMARK                         _______ _______ _______ _____ _____    ______ ____
ROOT
ATOM      1  C   UNL     1       7.341  -2.313  24.693  0.00  0.00    +0.184 A 
ATOM      2  O   UNL     1       7.392  -1.035  25.237  0.00  0.00    -0.451 OA
ATOM      3  C   UNL     1       7.944  -0.020  24.511  0.00  0.00    +0.147 A 
ATOM      4  C   UNL     1       8.411  -0.199  23.220  0.00  0.00    +0.109 A 
ATOM      5  C   UNL     1       8.975   0.887  22.532  0.00  0.00    +0.135 A 
ATOM      6  C   UNL     1       9.080   2.135  23.137  0.00  0.00    +0.091 A 
ATOM      7  C   UNL     1       8.609   2.297  24.436  0.00  0.00    +0.124 A 
ATOM      8  C   UNL     1       8.333  -1.537  22.621  0.00  0.00    +0.241 A 
ATOM      9  O   UNL     1       8.798  -1.631  21.491  0.00  0.00    -0.283 OA
ATOM     10  C   UNL     1       8.037   1.231  25.125  0.00  0.00    +0.092 A 
ATOM     11  C   UNL     1       7.759  -2.643  23.450  0.00  0.00    +0.244 A 
ENDROOT
BRANCH   1  13
ATOM     12  C   UNL     1       5.510  -2.929  26.267  0.00  0.00    +0.011 A 
ATOM     13  C   UNL     1       6.736  -3.246  25.669  0.00  0.00    +0.025 A 
ATOM     14  C   UNL     1       7.456  -4.328  26.174  0.00  0.00    +0.056 A 
ATOM     15  C   UNL     1       6.959  -5.012  27.287  0.00  0.00    +0.110 A 
ATOM     16  C   UNL     1       5.758  -4.704  27.966  0.00  0.00    -0.066 A 
ATOM     17  O   UNL     1       5.380  -5.337  29.015  0.00  0.00    -0.871 OA
ATOM     18  C   UNL     1       5.042  -3.646  27.388  0.00  0.00    -0.004 A 
BRANCH  15  19
ATOM     19  O   UNL     1       7.694  -6.053  27.819  0.00  0.00    -0.507 OA
ATOM     20  H   UNL     1       7.024  -6.768  27.676  0.00  0.00    +0.292 HD
ENDBRANCH  15  19
ENDBRANCH   1  13
BRANCH   5  21
ATOM     21  O   UNL     1       9.457   0.792  21.251  0.00  0.00    -0.506 OA
ATOM     22  H   UNL     1      10.404   1.083  21.280  0.00  0.00    +0.292 HD
ENDBRANCH   5  21
BRANCH   7  23
ATOM     23  O   UNL     1       8.702   3.502  25.070  0.00  0.00    -0.507 OA
ATOM     24  H   UNL     1       9.480   3.967  24.721  0.00  0.00    +0.292 HD
ENDBRANCH   7  23
BRANCH  11  25
ATOM     25  O   UNL     1       7.694  -3.954  22.993  0.00  0.00    -0.353 OA
BRANCH  25  26
ATOM     26  S   UNL     1       6.411  -4.608  22.208  0.00  0.00    +0.043 S 
ATOM     27  O   UNL     1       7.027  -5.517  21.242  0.00  0.00    -0.259 OA
ATOM     28  O   UNL     1       5.737  -3.478  21.568  0.00  0.00    -0.336 OA
ATOM     29  O   UNL     1       5.649  -5.303  23.247  0.00  0.00    -0.336 OA
ENDBRANCH  25  26
ENDBRANCH  11  25
TORSDOF 6
ENDMDL
MODEL 6
REMARK VINA RESULT:      -6.8      2.429      6.934
REMARK  Name = 
REMARK  6 active torsions:
REMARK  status: ('A' for Active; 'I' for Inactive)
REMARK    1  A    between atoms: C_4  and  O_25
REMARK    2  A    between atoms: C_6  and  C_7
REMARK    3  A    between atoms: C_8  and  O_20
REMARK    4  A    between atoms: C_12  and  O_19
REMARK    5  A    between atoms: C_14  and  O_18
REMARK    6  A    between atoms: O_20  and  S_21
REMARK                            x       y       z     vdW  Elec       q    Type
REMARK                         _______ _______ _______ _____ _____    ______ ____
ROOT
ATOM      1  C   UNL     1       7.448  -1.374  23.758  0.00  0.00    +0.184 A 
ATOM      2  O   UNL     1       7.575  -2.435  22.870  0.00  0.00    -0.451 OA
ATOM      3  C   UNL     1       6.615  -3.404  22.846  0.00  0.00    +0.147 A 
ATOM      4  C   UNL     1       5.480  -3.346  23.636  0.00  0.00    +0.109 A 
ATOM      5  C   UNL     1       4.534  -4.382  23.566  0.00  0.00    +0.135 A 
ATOM      6  C   UNL     1       4.733  -5.470  22.721  0.00  0.00    +0.091 A 
ATOM      7  C   UNL     1       5.880  -5.514  21.937  0.00  0.00    +0.124 A 
ATOM      8  C   UNL     1       5.317  -2.213  24.555  0.00  0.00    +0.241 A 
ATOM      9  O   UNL     1       4.308  -2.245  25.250  0.00  0.00    -0.283 OA
ATOM     10  C   UNL     1       6.820  -4.488  21.988  0.00  0.00    +0.092 A 
ATOM     11  C   UNL     1       6.401  -1.181  24.593  0.00  0.00    +0.244 A 
ENDROOT
BRANCH   1  13
ATOM     12  C   UNL     1       9.470  -0.281  24.722  0.00  0.00    +0.011 A 
ATOM     13  C   UNL     1       8.616  -0.475  23.629  0.00  0.00    +0.025 A 
ATOM     14  C   UNL     1       8.767   0.356  22.519  0.00  0.00    +0.056 A 
ATOM     15  C   UNL     1       9.718   1.380  22.563  0.00  0.00    +0.110 A 
ATOM     16  C   UNL     1      10.568   1.658  23.658  0.00  0.00    -0.066 A 
ATOM     17  O   UNL     1      11.386   2.646  23.659  0.00  0.00    -0.871 OA
ATOM     18  C   UNL     1      10.419   0.763  24.727  0.00  0.00    -0.004 A 
BRANCH  15  19
ATOM     19  O   UNL     1       9.837   2.233  21.485  0.00  0.00    -0.507 OA
ATOM     20  H   UNL     1       8.947   2.659  21.561  0.00  0.00    +0.292 HD
ENDBRANCH  15  19
ENDBRANCH   1  13
BRANCH   5  21
ATOM     21  O   UNL     1       3.384  -4.397  24.314  0.00  0.00    -0.506 OA
ATOM     22  H   UNL     1       2.746  -3.783  23.869  0.00  0.00    +0.292 HD
ENDBRANCH   5  21
BRANCH   7  23
ATOM     23  O   UNL     1       6.118  -6.568  21.102  0.00  0.00    -0.507 OA
ATOM     24  H   UNL     1       6.528  -6.223  20.292  0.00  0.00    +0.292 HD
ENDBRANCH   7  23
BRANCH  11  25
ATOM     25  O   UNL     1       6.366  -0.102  25.467  0.00  0.00    -0.353 OA
BRANCH  25  26
ATOM     26  S   UNL     1       5.595   1.314  25.174  0.00  0.00    +0.043 S 
ATOM     27  O   UNL     1       4.225   1.058  25.615  0.00  0.00    -0.259 OA
ATOM     28  O   UNL     1       5.693   1.511  23.727  0.00  0.00    -0.336 OA
ATOM     29  O   UNL     1       6.291   2.300  26.003  0.00  0.00    -0.336 OA
ENDBRANCH  25  26
ENDBRANCH  11  25
TORSDOF 6
ENDMDL
MODEL 7
REMARK VINA RESULT:      -6.7      2.106      2.699
REMARK  Name = 
REMARK  6 active torsions:
REMARK  status: ('A' for Active; 'I' for Inactive)
REMARK    1  A    between atoms: C_4  and  O_25
REMARK    2  A    between atoms: C_6  and  C_7
REMARK    3  A    between atoms: C_8  and  O_20
REMARK    4  A    between atoms: C_12  and  O_19
REMARK    5  A    between atoms: C_14  and  O_18
REMARK    6  A    between atoms: O_20  and  S_21
REMARK                            x       y       z     vdW  Elec       q    Type
REMARK                         _______ _______ _______ _____ _____    ______ ____
ROOT
ATOM      1  C   UNL     1       6.493  -2.356  24.330  0.00  0.00    +0.184 A 
ATOM      2  O   UNL     1       6.442  -1.079  23.784  0.00  0.00    -0.451 OA
ATOM      3  C   UNL     1       7.516  -0.607  23.088  0.00  0.00    +0.147 A 
ATOM      4  C   UNL     1       8.645  -1.373  22.854  0.00  0.00    +0.109 A 
ATOM      5  C   UNL     1       9.718  -0.822  22.135  0.00  0.00    +0.135 A 
ATOM      6  C   UNL     1       9.664   0.488  21.669  0.00  0.00    +0.091 A 
ATOM      7  C   UNL     1       8.524   1.245  21.917  0.00  0.00    +0.124 A 
ATOM      8  C   UNL     1       8.698  -2.736  23.397  0.00  0.00    +0.241 A 
ATOM      9  O   UNL     1       9.741  -3.343  23.184  0.00  0.00    -0.283 OA
ATOM     10  C   UNL     1       7.448   0.707  22.617  0.00  0.00    +0.092 A 
ATOM     11  C   UNL     1       7.524  -3.219  24.190  0.00  0.00    +0.244 A 
ENDROOT
BRANCH   1  13
ATOM     12  C   UNL     1       5.145  -2.330  26.426  0.00  0.00    +0.011 A 
ATOM     13  C   UNL     1       5.238  -2.634  25.062  0.00  0.00    +0.025 A 
ATOM     14  C   UNL     1       4.219  -3.392  24.485  0.00  0.00    +0.056 A 
ATOM     15  C   UNL     1       3.183  -3.865  25.296  0.00  0.00    +0.110 A 
ATOM     16  C   UNL     1       3.066  -3.638  26.687  0.00  0.00    -0.066 A 
ATOM     17  O   UNL     1       2.118  -4.143  27.388  0.00  0.00    -0.871 OA
ATOM     18  C   UNL     1       4.081  -2.825  27.210  0.00  0.00    -0.004 A 
BRANCH  15  19
ATOM     19  O   UNL     1       2.200  -4.655  24.737  0.00  0.00    -0.507 OA
ATOM     20  H   UNL     1       1.447  -4.023  24.852  0.00  0.00    +0.292 HD
ENDBRANCH  15  19
ENDBRANCH   1  13
BRANCH   5  21
ATOM     21  O   UNL     1      10.870  -1.517  21.860  0.00  0.00    -0.506 OA
ATOM     22  H   UNL     1      11.485  -1.364  22.622  0.00  0.00    +0.292 HD
ENDBRANCH   5  21
BRANCH   7  23
ATOM     23  O   UNL     1       8.434   2.537  21.485  0.00  0.00    -0.507 OA
ATOM     24  H   UNL     1       8.047   2.530  20.594  0.00  0.00    +0.292 HD
ENDBRANCH   7  23
BRANCH  11  25
ATOM     25  O   UNL     1       7.502  -4.472  24.792  0.00  0.00    -0.353 OA
BRANCH  25  26
ATOM     26  S   UNL     1       8.383  -4.892  26.109  0.00  0.00    +0.043 S 
ATOM     27  O   UNL     1       7.508  -5.817  26.827  0.00  0.00    -0.259 OA
ATOM     28  O   UNL     1       8.603  -3.643  26.838  0.00  0.00    -0.336 OA
ATOM     29  O   UNL     1       9.582  -5.537  25.569  0.00  0.00    -0.336 OA
ENDBRANCH  25  26
ENDBRANCH  11  25
TORSDOF 6
ENDMDL
MODEL 8
REMARK VINA RESULT:      -6.7      2.396      3.854
REMARK  Name = 
REMARK  6 active torsions:
REMARK  status: ('A' for Active; 'I' for Inactive)
REMARK    1  A    between atoms: C_4  and  O_25
REMARK    2  A    between atoms: C_6  and  C_7
REMARK    3  A    between atoms: C_8  and  O_20
REMARK    4  A    between atoms: C_12  and  O_19
REMARK    5  A    between atoms: C_14  and  O_18
REMARK    6  A    between atoms: O_20  and  S_21
REMARK                            x       y       z     vdW  Elec       q    Type
REMARK                         _______ _______ _______ _____ _____    ______ ____
ROOT
ATOM      1  C   UNL     1       7.602  -2.558  24.698  0.00  0.00    +0.184 A 
ATOM      2  O   UNL     1       7.637  -1.277  25.236  0.00  0.00    -0.451 OA
ATOM      3  C   UNL     1       8.102  -0.245  24.473  0.00  0.00    +0.147 A 
ATOM      4  C   UNL     1       8.493  -0.412  23.156  0.00  0.00    +0.109 A 
ATOM      5  C   UNL     1       8.969   0.693  22.431  0.00  0.00    +0.135 A 
ATOM      6  C   UNL     1       9.064   1.947  23.026  0.00  0.00    +0.091 A 
ATOM      7  C   UNL     1       8.670   2.096  24.352  0.00  0.00    +0.124 A 
ATOM      8  C   UNL     1       8.430  -1.754  22.566  0.00  0.00    +0.241 A 
ATOM      9  O   UNL     1       8.826  -1.835  21.409  0.00  0.00    -0.283 OA
ATOM     10  C   UNL     1       8.185   1.012  25.078  0.00  0.00    +0.092 A 
ATOM     11  C   UNL     1       7.953  -2.878  23.432  0.00  0.00    +0.244 A 
ENDROOT
BRANCH   1  13
ATOM     12  C   UNL     1       7.986  -4.382  26.352  0.00  0.00    +0.011 A 
ATOM     13  C   UNL     1       7.097  -3.509  25.712  0.00  0.00    +0.025 A 
ATOM     14  C   UNL     1       5.729  -3.713  25.892  0.00  0.00    +0.056 A 
ATOM     15  C   UNL     1       5.300  -4.807  26.649  0.00  0.00    +0.110 A 
ATOM     16  C   UNL     1       6.148  -5.753  27.271  0.00  0.00    -0.066 A 
ATOM     17  O   UNL     1       5.693  -6.767  27.910  0.00  0.00    -0.871 OA
ATOM     18  C   UNL     1       7.512  -5.474  27.110  0.00  0.00    -0.004 A 
BRANCH  15  19
ATOM     19  O   UNL     1       3.947  -5.039  26.787  0.00  0.00    -0.507 OA
ATOM     20  H   UNL     1       3.630  -4.191  26.387  0.00  0.00    +0.292 HD
ENDBRANCH  15  19
ENDBRANCH   1  13
BRANCH   5  21
ATOM     21  O   UNL     1       9.373   0.610  21.122  0.00  0.00    -0.506 OA
ATOM     22  H   UNL     1      10.339   0.834  21.106  0.00  0.00    +0.292 HD
ENDBRANCH   5  21
BRANCH   7  23
ATOM     23  O   UNL     1       8.756   3.307  24.976  0.00  0.00    -0.507 OA
ATOM     24  H   UNL     1       7.855   3.599  25.191  0.00  0.00    +0.292 HD
ENDBRANCH   7  23
BRANCH  11  25
ATOM     25  O   UNL     1       7.910  -4.192  22.983  0.00  0.00    -0.353 OA
BRANCH  25  26
ATOM     26  S   UNL     1       6.625  -4.884  22.236  0.00  0.00    +0.043 S 
ATOM     27  O   UNL     1       6.050  -5.745  23.268  0.00  0.00    -0.259 OA
ATOM     28  O   UNL     1       7.193  -5.642  21.121  0.00  0.00    -0.336 OA
ATOM     29  O   UNL     1       5.755  -3.764  21.871  0.00  0.00    -0.336 OA
ENDBRANCH  25  26
ENDBRANCH  11  25
TORSDOF 6
ENDMDL
MODEL 9
REMARK VINA RESULT:      -6.6      2.400      2.943
REMARK  Name = 
REMARK  6 active torsions:
REMARK  status: ('A' for Active; 'I' for Inactive)
REMARK    1  A    between atoms: C_4  and  O_25
REMARK    2  A    between atoms: C_6  and  C_7
REMARK    3  A    between atoms: C_8  and  O_20
REMARK    4  A    between atoms: C_12  and  O_19
REMARK    5  A    between atoms: C_14  and  O_18
REMARK    6  A    between atoms: O_20  and  S_21
REMARK                            x       y       z     vdW  Elec       q    Type
REMARK                         _______ _______ _______ _____ _____    ______ ____
ROOT
ATOM      1  C   UNL     1       6.371  -3.544  25.291  0.00  0.00    +0.184 A 
ATOM      2  O   UNL     1       7.194  -3.518  24.171  0.00  0.00    -0.451 OA
ATOM      3  C   UNL     1       8.155  -2.556  24.070  0.00  0.00    +0.147 A 
ATOM      4  C   UNL     1       8.385  -1.627  25.071  0.00  0.00    +0.109 A 
ATOM      5  C   UNL     1       9.386  -0.658  24.899  0.00  0.00    +0.135 A 
ATOM      6  C   UNL     1      10.140  -0.614  23.729  0.00  0.00    +0.091 A 
ATOM      7  C   UNL     1       9.893  -1.552  22.733  0.00  0.00    +0.124 A 
ATOM      8  C   UNL     1       7.544  -1.663  26.273  0.00  0.00    +0.241 A 
ATOM      9  O   UNL     1       7.778  -0.789  27.101  0.00  0.00    -0.283 OA
ATOM     10  C   UNL     1       8.912  -2.526  22.896  0.00  0.00    +0.092 A 
ATOM     11  C   UNL     1       6.470  -2.704  26.346  0.00  0.00    +0.244 A 
ENDROOT
BRANCH   1  13
ATOM     12  C   UNL     1       5.330  -5.639  26.148  0.00  0.00    +0.011 A 
ATOM     13  C   UNL     1       5.391  -4.645  25.164  0.00  0.00    +0.025 A 
ATOM     14  C   UNL     1       4.677  -4.843  23.982  0.00  0.00    +0.056 A 
ATOM     15  C   UNL     1       3.981  -6.041  23.803  0.00  0.00    +0.110 A 
ATOM     16  C   UNL     1       3.928  -7.103  24.736  0.00  0.00    -0.066 A 
ATOM     17  O   UNL     1       3.314  -8.201  24.492  0.00  0.00    -0.871 OA
ATOM     18  C   UNL     1       4.613  -6.835  25.929  0.00  0.00    -0.004 A 
BRANCH  15  19
ATOM     19  O   UNL     1       3.313  -6.259  22.615  0.00  0.00    -0.507 OA
ATOM     20  H   UNL     1       3.525  -5.392  22.188  0.00  0.00    +0.292 HD
ENDBRANCH  15  19
ENDBRANCH   1  13
BRANCH   5  21
ATOM     21  O   UNL     1       9.676   0.295  25.843  0.00  0.00    -0.506 OA
ATOM     22  H   UNL     1       9.028   1.033  25.712  0.00  0.00    +0.292 HD
ENDBRANCH   5  21
BRANCH   7  23
ATOM     23  O   UNL     1      10.604  -1.538  21.567  0.00  0.00    -0.507 OA
ATOM     24  H   UNL     1      11.429  -1.052  21.723  0.00  0.00    +0.292 HD
ENDBRANCH   7  23
BRANCH  11  25
ATOM     25  O   UNL     1       5.588  -2.785  27.417  0.00  0.00    -0.353 OA
BRANCH  25  26
ATOM     26  S   UNL     1       4.236  -1.874  27.585  0.00  0.00    +0.043 S 
ATOM     27  O   UNL     1       3.219  -2.841  27.996  0.00  0.00    -0.259 OA
ATOM     28  O   UNL     1       3.980  -1.318  26.256  0.00  0.00    -0.336 OA
ATOM     29  O   UNL     1       4.563  -0.904  28.632  0.00  0.00    -0.336 OA
ENDBRANCH  25  26
ENDBRANCH  11  25
TORSDOF 6
ENDMDL
