MODEL 1
REMARK VINA RESULT:      -7.7      0.000      0.000
REMARK  Name = 
REMARK  10 active torsions:
REMARK  status: ('A' for Active; 'I' for Inactive)
REMARK    1  A    between atoms: C_2  and  O_35
REMARK    2  A    between atoms: C_4  and  O_34
REMARK    3  A    between atoms: C_6  and  O_33
REMARK    4  A    between atoms: C_8  and  O_11
REMARK    5  A    between atoms: O_11  and  C_12
REMARK    6  A    between atoms: C_13  and  C_25
REMARK    7  A    between atoms: C_17  and  O_24
REMARK    8  A    between atoms: C_19  and  O_23
REMARK    9  A    between atoms: C_27  and  O_32
REMARK   10  A    between atoms: C_28  and  O_31
REMARK                            x       y       z     vdW  Elec       q    Type
REMARK                         _______ _______ _______ _____ _____    ______ ____
ROOT
ATOM      1  C   UNL     1       8.701  -2.000  23.296  0.00  0.00    +0.214 A 
ATOM      2  C   UNL     1       9.151  -0.778  22.560  0.00  0.00    +0.238 A 
ATOM      3  O   UNL     1       9.773  -0.858  21.509  0.00  0.00    -0.283 OA
ATOM      4  C   UNL     1       8.902   0.518  23.201  0.00  0.00    +0.109 A 
ATOM      5  C   UNL     1       8.617   0.514  24.564  0.00  0.00    +0.147 A 
ATOM      6  C   UNL     1       8.462   1.723  25.247  0.00  0.00    +0.092 A 
ATOM      7  C   UNL     1       8.592   2.924  24.552  0.00  0.00    +0.124 A 
ATOM      8  C   UNL     1       8.855   2.940  23.187  0.00  0.00    +0.091 A 
ATOM      9  O   UNL     1       8.504  -0.646  25.296  0.00  0.00    -0.451 OA
ATOM     10  C   UNL     1       9.002   1.733  22.508  0.00  0.00    +0.135 A 
ATOM     11  C   UNL     1       8.480  -1.868  24.623  0.00  0.00    +0.181 A 
ENDROOT
BRANCH  11  12
ATOM     12  C   UNL     1       8.199  -3.027  25.526  0.00  0.00    +0.025 A 
ATOM     13  C   UNL     1       9.121  -4.088  25.646  0.00  0.00    +0.015 A 
ATOM     14  C   UNL     1       8.868  -5.183  26.486  0.00  0.00    +0.050 A 
ATOM     15  C   UNL     1       7.687  -5.226  27.210  0.00  0.00    +0.158 A 
ATOM     16  C   UNL     1       6.751  -4.210  27.087  0.00  0.00    +0.159 A 
ATOM     17  C   UNL     1       6.988  -3.128  26.242  0.00  0.00    +0.060 A 
BRANCH  15  18
ATOM     18  O   UNL     1       7.452  -6.275  28.051  0.00  0.00    -0.503 OA
ATOM     19  H   UNL     1       6.606  -6.051  28.490  0.00  0.00    +0.292 HD
ENDBRANCH  15  18
BRANCH  16  20
ATOM     20  O   UNL     1       5.601  -4.311  27.825  0.00  0.00    -0.503 OA
ATOM     21  H   UNL     1       4.967  -4.854  27.322  0.00  0.00    +0.292 HD
ENDBRANCH  16  20
ENDBRANCH  11  12
BRANCH   7  22
ATOM     22  O   UNL     1       8.466   4.131  25.171  0.00  0.00    -0.507 OA
ATOM     23  H   UNL     1       9.191   4.711  24.891  0.00  0.00    +0.292 HD
ENDBRANCH   7  22
BRANCH  10  24
ATOM     24  O   UNL     1       9.216   1.759  21.159  0.00  0.00    -0.506 OA
ATOM     25  H   UNL     1       9.136   2.667  20.825  0.00  0.00    +0.292 HD
ENDBRANCH  10  24
BRANCH   1  26
ATOM     26  O   UNL     1       8.606  -3.224  22.646  0.00  0.00    -0.453 OA
BRANCH  26  29
ATOM     27  C   UNL     1       4.973  -3.160  22.586  0.00  0.00    +0.198 C 
ATOM     28  O   UNL     1       6.301  -2.786  22.929  0.00  0.00    -0.337 OA
ATOM     29  C   UNL     1       7.272  -3.668  22.349  0.00  0.00    +0.339 C 
ATOM     30  C   UNL     1       7.095  -5.110  22.885  0.00  0.00    +0.214 C 
ATOM     31  C   UNL     1       5.643  -5.561  22.642  0.00  0.00    +0.180 C 
ATOM     32  C   UNL     1       4.642  -4.529  23.173  0.00  0.00    +0.171 C 
BRANCH  30  33
ATOM     33  O   UNL     1       8.026  -6.004  22.243  0.00  0.00    -0.383 OA
ATOM     34  H   UNL     1       8.633  -5.473  21.699  0.00  0.00    +0.210 HD
ENDBRANCH  30  33
BRANCH  31  35
ATOM     35  O   UNL     1       5.396  -6.830  23.262  0.00  0.00    -0.386 OA
ATOM     36  H   UNL     1       4.590  -6.703  23.801  0.00  0.00    +0.210 HD
ENDBRANCH  31  35
BRANCH  32  37
ATOM     37  O   UNL     1       3.321  -4.947  22.820  0.00  0.00    -0.387 OA
ATOM     38  H   UNL     1       3.282  -5.914  22.937  0.00  0.00    +0.210 HD
ENDBRANCH  32  37
ENDBRANCH  26  29
ENDBRANCH   1  26
TORSDOF 10
ENDMDL
MODEL 2
REMARK VINA RESULT:      -7.5      2.364      7.597
REMARK  Name = 
REMARK  10 active torsions:
REMARK  status: ('A' for Active; 'I' for Inactive)
REMARK    1  A    between atoms: C_2  and  O_35
REMARK    2  A    between atoms: C_4  and  O_34
REMARK    3  A    between atoms: C_6  and  O_33
REMARK    4  A    between atoms: C_8  and  O_11
REMARK    5  A    between atoms: O_11  and  C_12
REMARK    6  A    between atoms: C_13  and  C_25
REMARK    7  A    between atoms: C_17  and  O_24
REMARK    8  A    between atoms: C_19  and  O_23
REMARK    9  A    between atoms: C_27  and  O_32
REMARK   10  A    between atoms: C_28  and  O_31
REMARK                            x       y       z     vdW  Elec       q    Type
REMARK                         _______ _______ _______ _____ _____    ______ ____
ROOT
ATOM      1  C   UNL     1       7.241  -3.711  25.635  0.00  0.00    +0.214 A 
ATOM      2  C   UNL     1       6.770  -4.995  26.240  0.00  0.00    +0.238 A 
ATOM      3  O   UNL     1       7.319  -5.477  27.222  0.00  0.00    -0.283 OA
ATOM      4  C   UNL     1       5.687  -5.702  25.548  0.00  0.00    +0.109 A 
ATOM      5  C   UNL     1       5.432  -5.346  24.227  0.00  0.00    +0.147 A 
ATOM      6  C   UNL     1       4.475  -6.048  23.488  0.00  0.00    +0.092 A 
ATOM      7  C   UNL     1       3.782  -7.099  24.088  0.00  0.00    +0.124 A 
ATOM      8  C   UNL     1       4.014  -7.449  25.414  0.00  0.00    +0.091 A 
ATOM      9  O   UNL     1       6.108  -4.334  23.586  0.00  0.00    -0.451 OA
ATOM     10  C   UNL     1       4.963  -6.742  26.148  0.00  0.00    +0.135 A 
ATOM     11  C   UNL     1       6.942  -3.501  24.333  0.00  0.00    +0.181 A 
ENDROOT
BRANCH  11  12
ATOM     12  C   UNL     1       7.488  -2.356  23.542  0.00  0.00    +0.025 A 
ATOM     13  C   UNL     1       6.769  -1.148  23.430  0.00  0.00    +0.015 A 
ATOM     14  C   UNL     1       7.268  -0.067  22.688  0.00  0.00    +0.050 A 
ATOM     15  C   UNL     1       8.492  -0.189  22.048  0.00  0.00    +0.158 A 
ATOM     16  C   UNL     1       9.205  -1.376  22.118  0.00  0.00    +0.159 A 
ATOM     17  C   UNL     1       8.707  -2.459  22.840  0.00  0.00    +0.060 A 
BRANCH  15  18
ATOM     18  O   UNL     1       8.994   0.871  21.350  0.00  0.00    -0.503 OA
ATOM     19  H   UNL     1       9.747   1.185  21.892  0.00  0.00    +0.292 HD
ENDBRANCH  15  18
BRANCH  16  20
ATOM     20  O   UNL     1      10.405  -1.437  21.462  0.00  0.00    -0.503 OA
ATOM     21  H   UNL     1      10.225  -1.571  20.514  0.00  0.00    +0.292 HD
ENDBRANCH  16  20
ENDBRANCH  11  12
BRANCH   7  22
ATOM     22  O   UNL     1       2.851  -7.825  23.410  0.00  0.00    -0.507 OA
ATOM     23  H   UNL     1       2.415  -7.256  22.757  0.00  0.00    +0.292 HD
ENDBRANCH   7  22
BRANCH  10  24
ATOM     24  O   UNL     1       5.151  -7.064  27.463  0.00  0.00    -0.506 OA
ATOM     25  H   UNL     1       5.735  -7.837  27.537  0.00  0.00    +0.292 HD
ENDBRANCH  10  24
BRANCH   1  26
ATOM     26  O   UNL     1       8.023  -2.825  26.368  0.00  0.00    -0.453 OA
BRANCH  26  29
ATOM     27  C   UNL     1       5.163  -0.922  27.553  0.00  0.00    +0.198 C 
ATOM     28  O   UNL     1       5.912  -1.841  26.768  0.00  0.00    -0.337 OA
ATOM     29  C   UNL     1       7.303  -1.835  27.119  0.00  0.00    +0.339 C 
ATOM     30  C   UNL     1       7.933  -0.447  26.848  0.00  0.00    +0.214 C 
ATOM     31  C   UNL     1       7.116   0.628  27.587  0.00  0.00    +0.180 C 
ATOM     32  C   UNL     1       5.621   0.507  27.273  0.00  0.00    +0.171 C 
BRANCH  30  33
ATOM     33  O   UNL     1       9.311  -0.428  27.272  0.00  0.00    -0.383 OA
ATOM     34  H   UNL     1       9.338  -0.604  28.229  0.00  0.00    +0.210 HD
ENDBRANCH  30  33
BRANCH  31  35
ATOM     35  O   UNL     1       7.572   1.941  27.238  0.00  0.00    -0.386 OA
ATOM     36  H   UNL     1       8.549   1.891  27.257  0.00  0.00    +0.210 HD
ENDBRANCH  31  35
BRANCH  32  37
ATOM     37  O   UNL     1       4.906   1.454  28.070  0.00  0.00    -0.387 OA
ATOM     38  H   UNL     1       5.497   2.214  28.217  0.00  0.00    +0.210 HD
ENDBRANCH  32  37
ENDBRANCH  26  29
ENDBRANCH   1  26
TORSDOF 10
ENDMDL
MODEL 3
REMARK VINA RESULT:      -7.4      1.970      3.067
REMARK  Name = 
REMARK  10 active torsions:
REMARK  status: ('A' for Active; 'I' for Inactive)
REMARK    1  A    between atoms: C_2  and  O_35
REMARK    2  A    between atoms: C_4  and  O_34
REMARK    3  A    between atoms: C_6  and  O_33
REMARK    4  A    between atoms: C_8  and  O_11
REMARK    5  A    between atoms: O_11  and  C_12
REMARK    6  A    between atoms: C_13  and  C_25
REMARK    7  A    between atoms: C_17  and  O_24
REMARK    8  A    between atoms: C_19  and  O_23
REMARK    9  A    between atoms: C_27  and  O_32
REMARK   10  A    between atoms: C_28  and  O_31
REMARK                            x       y       z     vdW  Elec       q    Type
REMARK                         _______ _______ _______ _____ _____    ______ ____
ROOT
ATOM      1  C   UNL     1       7.925  -2.971  24.614  0.00  0.00    +0.214 A 
ATOM      2  C   UNL     1       9.135  -2.464  23.896  0.00  0.00    +0.238 A 
ATOM      3  O   UNL     1      10.190  -3.085  23.906  0.00  0.00    -0.283 OA
ATOM      4  C   UNL     1       9.033  -1.145  23.262  0.00  0.00    +0.109 A 
ATOM      5  C   UNL     1       7.990  -0.318  23.669  0.00  0.00    +0.147 A 
ATOM      6  C   UNL     1       7.896   0.984  23.169  0.00  0.00    +0.092 A 
ATOM      7  C   UNL     1       8.851   1.439  22.261  0.00  0.00    +0.124 A 
ATOM      8  C   UNL     1       9.885   0.614  21.830  0.00  0.00    +0.091 A 
ATOM      9  O   UNL     1       7.040  -0.715  24.582  0.00  0.00    -0.451 OA
ATOM     10  C   UNL     1       9.970  -0.685  22.326  0.00  0.00    +0.135 A 
ATOM     11  C   UNL     1       6.997  -2.054  24.971  0.00  0.00    +0.181 A 
ENDROOT
BRANCH  11  12
ATOM     12  C   UNL     1       5.824  -2.374  25.843  0.00  0.00    +0.025 A 
ATOM     13  C   UNL     1       6.010  -2.797  27.175  0.00  0.00    +0.015 A 
ATOM     14  C   UNL     1       4.918  -3.103  28.003  0.00  0.00    +0.050 A 
ATOM     15  C   UNL     1       3.632  -2.991  27.500  0.00  0.00    +0.158 A 
ATOM     16  C   UNL     1       3.423  -2.604  26.185  0.00  0.00    +0.159 A 
ATOM     17  C   UNL     1       4.503  -2.315  25.352  0.00  0.00    +0.060 A 
BRANCH  15  18
ATOM     18  O   UNL     1       2.567  -3.258  28.311  0.00  0.00    -0.503 OA
ATOM     19  H   UNL     1       1.935  -3.735  27.735  0.00  0.00    +0.292 HD
ENDBRANCH  15  18
BRANCH  16  20
ATOM     20  O   UNL     1       2.129  -2.515  25.744  0.00  0.00    -0.503 OA
ATOM     21  H   UNL     1       1.574  -2.233  26.494  0.00  0.00    +0.292 HD
ENDBRANCH  16  20
ENDBRANCH  11  12
BRANCH   7  22
ATOM     22  O   UNL     1       8.816   2.702  21.753  0.00  0.00    -0.507 OA
ATOM     23  H   UNL     1       9.524   2.802  21.097  0.00  0.00    +0.292 HD
ENDBRANCH   7  22
BRANCH  10  24
ATOM     24  O   UNL     1      10.963  -1.501  21.863  0.00  0.00    -0.506 OA
ATOM     25  H   UNL     1      10.987  -2.324  22.379  0.00  0.00    +0.292 HD
ENDBRANCH  10  24
BRANCH   1  26
ATOM     26  O   UNL     1       7.817  -4.311  24.965  0.00  0.00    -0.453 OA
BRANCH  26  29
ATOM     27  C   UNL     1       7.264  -5.543  21.592  0.00  0.00    +0.198 C 
ATOM     28  O   UNL     1       7.649  -4.655  22.634  0.00  0.00    -0.337 OA
ATOM     29  C   UNL     1       7.348  -5.190  23.931  0.00  0.00    +0.339 C 
ATOM     30  C   UNL     1       5.823  -5.394  24.101  0.00  0.00    +0.214 C 
ATOM     31  C   UNL     1       5.301  -6.270  22.948  0.00  0.00    +0.180 C 
ATOM     32  C   UNL     1       5.749  -5.724  21.587  0.00  0.00    +0.171 C 
BRANCH  30  33
ATOM     33  O   UNL     1       5.536  -5.999  25.378  0.00  0.00    -0.383 OA
ATOM     34  H   UNL     1       6.329  -5.925  25.936  0.00  0.00    +0.210 HD
ENDBRANCH  30  33
BRANCH  31  35
ATOM     35  O   UNL     1       3.871  -6.354  22.982  0.00  0.00    -0.386 OA
ATOM     36  H   UNL     1       3.553  -5.439  22.847  0.00  0.00    +0.210 HD
ENDBRANCH  31  35
BRANCH  32  37
ATOM     37  O   UNL     1       5.332  -6.636  20.568  0.00  0.00    -0.387 OA
ATOM     38  H   UNL     1       4.510  -7.058  20.875  0.00  0.00    +0.210 HD
ENDBRANCH  32  37
ENDBRANCH  26  29
ENDBRANCH   1  26
TORSDOF 10
ENDMDL
MODEL 4
REMARK VINA RESULT:      -7.3      2.414      7.296
REMARK  Name = 
REMARK  10 active torsions:
REMARK  status: ('A' for Active; 'I' for Inactive)
REMARK    1  A    between atoms: C_2  and  O_35
REMARK    2  A    between atoms: C_4  and  O_34
REMARK    3  A    between atoms: C_6  and  O_33
REMARK    4  A    between atoms: C_8  and  O_11
REMARK    5  A    between atoms: O_11  and  C_12
REMARK    6  A    between atoms: C_13  and  C_25
REMARK    7  A    between atoms: C_17  and  O_24
REMARK    8  A    between atoms: C_19  and  O_23
REMARK    9  A    between atoms: C_27  and  O_32
REMARK   10  A    between atoms: C_28  and  O_31
REMARK                            x       y       z     vdW  Elec       q    Type
REMARK                         _______ _______ _______ _____ _____    ______ ____
ROOT
ATOM      1  C   UNL     1       7.931  -2.122  25.357  0.00  0.00    +0.214 A 
ATOM      2  C   UNL     1       7.410  -3.512  25.542  0.00  0.00    +0.238 A 
ATOM      3  O   UNL     1       7.504  -4.091  26.615  0.00  0.00    -0.283 OA
ATOM      4  C   UNL     1       6.870  -4.186  24.356  0.00  0.00    +0.109 A 
ATOM      5  C   UNL     1       7.206  -3.660  23.112  0.00  0.00    +0.147 A 
ATOM      6  C   UNL     1       6.797  -4.313  21.945  0.00  0.00    +0.092 A 
ATOM      7  C   UNL     1       6.052  -5.487  22.043  0.00  0.00    +0.124 A 
ATOM      8  C   UNL     1       5.692  -6.010  23.281  0.00  0.00    +0.091 A 
ATOM      9  O   UNL     1       7.960  -2.518  22.967  0.00  0.00    -0.451 OA
ATOM     10  C   UNL     1       6.095  -5.352  24.441  0.00  0.00    +0.135 A 
ATOM     11  C   UNL     1       8.239  -1.747  24.095  0.00  0.00    +0.181 A 
ENDROOT
BRANCH  11  12
ATOM     12  C   UNL     1       8.931  -0.461  23.769  0.00  0.00    +0.025 A 
ATOM     13  C   UNL     1      10.082  -0.061  24.479  0.00  0.00    +0.015 A 
ATOM     14  C   UNL     1      10.739   1.144  24.186  0.00  0.00    +0.050 A 
ATOM     15  C   UNL     1      10.246   1.959  23.180  0.00  0.00    +0.158 A 
ATOM     16  C   UNL     1       9.099   1.603  22.486  0.00  0.00    +0.159 A 
ATOM     17  C   UNL     1       8.432   0.416  22.784  0.00  0.00    +0.060 A 
BRANCH  15  18
ATOM     18  O   UNL     1      10.900   3.117  22.872  0.00  0.00    -0.503 OA
ATOM     19  H   UNL     1      11.429   3.318  23.670  0.00  0.00    +0.292 HD
ENDBRANCH  15  18
BRANCH  16  20
ATOM     20  O   UNL     1       8.658   2.451  21.506  0.00  0.00    -0.503 OA
ATOM     21  H   UNL     1       7.714   2.270  21.352  0.00  0.00    +0.292 HD
ENDBRANCH  16  20
ENDBRANCH  11  12
BRANCH   7  22
ATOM     22  O   UNL     1       5.641  -6.172  20.940  0.00  0.00    -0.507 OA
ATOM     23  H   UNL     1       6.084  -5.810  20.156  0.00  0.00    +0.292 HD
ENDBRANCH   7  22
BRANCH  10  24
ATOM     24  O   UNL     1       5.699  -5.849  25.650  0.00  0.00    -0.506 OA
ATOM     25  H   UNL     1       6.059  -5.304  26.369  0.00  0.00    +0.292 HD
ENDBRANCH  10  24
BRANCH   1  26
ATOM     26  O   UNL     1       8.164  -1.300  26.452  0.00  0.00    -0.453 OA
BRANCH  26  29
ATOM     27  C   UNL     1       4.800   0.068  26.581  0.00  0.00    +0.198 C 
ATOM     28  O   UNL     1       5.992  -0.474  26.026  0.00  0.00    -0.337 OA
ATOM     29  C   UNL     1       7.001  -0.680  27.024  0.00  0.00    +0.339 C 
ATOM     30  C   UNL     1       7.418   0.663  27.671  0.00  0.00    +0.214 C 
ATOM     31  C   UNL     1       6.162   1.370  28.214  0.00  0.00    +0.180 C 
ATOM     32  C   UNL     1       5.067   1.460  27.145  0.00  0.00    +0.171 C 
BRANCH  30  33
ATOM     33  O   UNL     1       8.378   0.439  28.723  0.00  0.00    -0.383 OA
ATOM     34  H   UNL     1       9.108  -0.093  28.362  0.00  0.00    +0.210 HD
ENDBRANCH  30  33
BRANCH  31  35
ATOM     35  O   UNL     1       6.483   2.686  28.682  0.00  0.00    -0.386 OA
ATOM     36  H   UNL     1       5.655   3.199  28.604  0.00  0.00    +0.210 HD
ENDBRANCH  31  35
BRANCH  32  37
ATOM     37  O   UNL     1       3.893   2.021  27.738  0.00  0.00    -0.387 OA
ATOM     38  H   UNL     1       4.077   2.140  28.688  0.00  0.00    +0.210 HD
ENDBRANCH  32  37
ENDBRANCH  26  29
ENDBRANCH   1  26
TORSDOF 10
ENDMDL
MODEL 5
REMARK VINA RESULT:      -6.9      2.905      6.269
REMARK  Name = 
REMARK  10 active torsions:
REMARK  status: ('A' for Active; 'I' for Inactive)
REMARK    1  A    between atoms: C_2  and  O_35
REMARK    2  A    between atoms: C_4  and  O_34
REMARK    3  A    between atoms: C_6  and  O_33
REMARK    4  A    between atoms: C_8  and  O_11
REMARK    5  A    between atoms: O_11  and  C_12
REMARK    6  A    between atoms: C_13  and  C_25
REMARK    7  A    between atoms: C_17  and  O_24
REMARK    8  A    between atoms: C_19  and  O_23
REMARK    9  A    between atoms: C_27  and  O_32
REMARK   10  A    between atoms: C_28  and  O_31
REMARK                            x       y       z     vdW  Elec       q    Type
REMARK                         _______ _______ _______ _____ _____    ______ ____
ROOT
ATOM      1  C   UNL     1       6.818  -1.648  25.636  0.00  0.00    +0.214 A 
ATOM      2  C   UNL     1       6.680  -0.808  26.866  0.00  0.00    +0.238 A 
ATOM      3  O   UNL     1       7.660  -0.419  27.487  0.00  0.00    -0.283 OA
ATOM      4  C   UNL     1       5.319  -0.552  27.351  0.00  0.00    +0.109 A 
ATOM      5  C   UNL     1       4.305  -1.381  26.879  0.00  0.00    +0.147 A 
ATOM      6  C   UNL     1       3.006  -1.245  27.377  0.00  0.00    +0.092 A 
ATOM      7  C   UNL     1       2.739  -0.274  28.341  0.00  0.00    +0.124 A 
ATOM      8  C   UNL     1       3.740   0.574  28.803  0.00  0.00    +0.091 A 
ATOM      9  O   UNL     1       4.526  -2.369  25.948  0.00  0.00    -0.451 OA
ATOM     10  C   UNL     1       5.032   0.440  28.300  0.00  0.00    +0.135 A 
ATOM     11  C   UNL     1       5.762  -2.424  25.303  0.00  0.00    +0.181 A 
ENDROOT
BRANCH  11  12
ATOM     12  C   UNL     1       5.808  -3.445  24.211  0.00  0.00    +0.025 A 
ATOM     13  C   UNL     1       5.975  -4.813  24.509  0.00  0.00    +0.015 A 
ATOM     14  C   UNL     1       6.024  -5.781  23.494  0.00  0.00    +0.050 A 
ATOM     15  C   UNL     1       5.909  -5.384  22.171  0.00  0.00    +0.158 A 
ATOM     16  C   UNL     1       5.773  -4.042  21.849  0.00  0.00    +0.159 A 
ATOM     17  C   UNL     1       5.741  -3.074  22.852  0.00  0.00    +0.060 A 
BRANCH  15  18
ATOM     18  O   UNL     1       5.926  -6.326  21.183  0.00  0.00    -0.503 OA
ATOM     19  H   UNL     1       6.527  -7.021  21.518  0.00  0.00    +0.292 HD
ENDBRANCH  15  18
BRANCH  16  20
ATOM     20  O   UNL     1       5.669  -3.712  20.525  0.00  0.00    -0.503 OA
ATOM     21  H   UNL     1       5.898  -4.499  19.998  0.00  0.00    +0.292 HD
ENDBRANCH  16  20
ENDBRANCH  11  12
BRANCH   7  22
ATOM     22  O   UNL     1       1.496  -0.108  28.870  0.00  0.00    -0.507 OA
ATOM     23  H   UNL     1       1.046  -0.967  28.903  0.00  0.00    +0.292 HD
ENDBRANCH   7  22
BRANCH  10  24
ATOM     24  O   UNL     1       5.998   1.306  28.728  0.00  0.00    -0.506 OA
ATOM     25  H   UNL     1       5.772   2.214  28.466  0.00  0.00    +0.292 HD
ENDBRANCH  10  24
BRANCH   1  26
ATOM     26  O   UNL     1       8.015  -1.682  24.931  0.00  0.00    -0.453 OA
BRANCH  26  29
ATOM     27  C   UNL     1       8.498   0.505  22.069  0.00  0.00    +0.198 C 
ATOM     28  O   UNL     1       8.245  -0.689  22.799  0.00  0.00    -0.337 OA
ATOM     29  C   UNL     1       8.350  -0.483  24.215  0.00  0.00    +0.339 C 
ATOM     30  C   UNL     1       9.786  -0.053  24.604  0.00  0.00    +0.214 C 
ATOM     31  C   UNL     1      10.180   1.186  23.780  0.00  0.00    +0.180 C 
ATOM     32  C   UNL     1       9.939   0.959  22.283  0.00  0.00    +0.171 C 
BRANCH  30  33
ATOM     33  O   UNL     1       9.863   0.223  26.017  0.00  0.00    -0.383 OA
ATOM     34  H   UNL     1      10.627   0.806  26.173  0.00  0.00    +0.210 HD
ENDBRANCH  30  33
BRANCH  31  35
ATOM     35  O   UNL     1      11.556   1.522  23.996  0.00  0.00    -0.386 OA
ATOM     36  H   UNL     1      11.625   1.739  24.947  0.00  0.00    +0.210 HD
ENDBRANCH  31  35
BRANCH  32  37
ATOM     37  O   UNL     1      10.215   2.176  21.584  0.00  0.00    -0.387 OA
ATOM     38  H   UNL     1      10.244   1.964  20.634  0.00  0.00    +0.210 HD
ENDBRANCH  32  37
ENDBRANCH  26  29
ENDBRANCH   1  26
TORSDOF 10
ENDMDL
MODEL 6
REMARK VINA RESULT:      -6.8      2.890      5.547
REMARK  Name = 
REMARK  10 active torsions:
REMARK  status: ('A' for Active; 'I' for Inactive)
REMARK    1  A    between atoms: C_2  and  O_35
REMARK    2  A    between atoms: C_4  and  O_34
REMARK    3  A    between atoms: C_6  and  O_33
REMARK    4  A    between atoms: C_8  and  O_11
REMARK    5  A    between atoms: O_11  and  C_12
REMARK    6  A    between atoms: C_13  and  C_25
REMARK    7  A    between atoms: C_17  and  O_24
REMARK    8  A    between atoms: C_19  and  O_23
REMARK    9  A    between atoms: C_27  and  O_32
REMARK   10  A    between atoms: C_28  and  O_31
REMARK                            x       y       z     vdW  Elec       q    Type
REMARK                         _______ _______ _______ _____ _____    ______ ____
ROOT
ATOM      1  C   UNL     1       7.967   2.306  23.720  0.00  0.00    +0.214 A 
ATOM      2  C   UNL     1       8.185   3.768  23.492  0.00  0.00    +0.238 A 
ATOM      3  O   UNL     1       7.263   4.509  23.174  0.00  0.00    -0.283 OA
ATOM      4  C   UNL     1       9.565   4.258  23.569  0.00  0.00    +0.109 A 
ATOM      5  C   UNL     1      10.585   3.316  23.478  0.00  0.00    +0.147 A 
ATOM      6  C   UNL     1      11.919   3.732  23.452  0.00  0.00    +0.092 A 
ATOM      7  C   UNL     1      12.213   5.094  23.520  0.00  0.00    +0.124 A 
ATOM      8  C   UNL     1      11.203   6.043  23.632  0.00  0.00    +0.091 A 
ATOM      9  O   UNL     1      10.342   1.965  23.383  0.00  0.00    -0.451 OA
ATOM     10  C   UNL     1       9.875   5.623  23.665  0.00  0.00    +0.135 A 
ATOM     11  C   UNL     1       9.042   1.498  23.579  0.00  0.00    +0.181 A 
ENDROOT
BRANCH  11  12
ATOM     12  C   UNL     1       8.953   0.005  23.601  0.00  0.00    +0.025 A 
ATOM     13  C   UNL     1       9.723  -0.750  24.509  0.00  0.00    +0.015 A 
ATOM     14  C   UNL     1       9.652  -2.151  24.537  0.00  0.00    +0.050 A 
ATOM     15  C   UNL     1       8.809  -2.807  23.653  0.00  0.00    +0.158 A 
ATOM     16  C   UNL     1       8.062  -2.089  22.731  0.00  0.00    +0.159 A 
ATOM     17  C   UNL     1       8.142  -0.698  22.686  0.00  0.00    +0.060 A 
BRANCH  15  18
ATOM     18  O   UNL     1       8.714  -4.168  23.699  0.00  0.00    -0.503 OA
ATOM     19  H   UNL     1       9.442  -4.483  23.127  0.00  0.00    +0.292 HD
ENDBRANCH  15  18
BRANCH  16  20
ATOM     20  O   UNL     1       7.252  -2.793  21.882  0.00  0.00    -0.503 OA
ATOM     21  H   UNL     1       6.488  -3.117  22.392  0.00  0.00    +0.292 HD
ENDBRANCH  16  20
ENDBRANCH  11  12
BRANCH   7  22
ATOM     22  O   UNL     1      13.494   5.555  23.483  0.00  0.00    -0.507 OA
ATOM     23  H   UNL     1      14.104   4.817  23.633  0.00  0.00    +0.292 HD
ENDBRANCH   7  22
BRANCH  10  24
ATOM     24  O   UNL     1       8.893   6.560  23.821  0.00  0.00    -0.506 OA
ATOM     25  H   UNL     1       8.963   7.236  23.127  0.00  0.00    +0.292 HD
ENDBRANCH  10  24
BRANCH   1  26
ATOM     26  O   UNL     1       6.695   1.810  23.979  0.00  0.00    -0.453 OA
BRANCH  26  29
ATOM     27  C   UNL     1       6.922   2.455  27.548  0.00  0.00    +0.198 C 
ATOM     28  O   UNL     1       7.321   2.379  26.185  0.00  0.00    -0.337 OA
ATOM     29  C   UNL     1       6.299   1.804  25.359  0.00  0.00    +0.339 C 
ATOM     30  C   UNL     1       6.001   0.346  25.787  0.00  0.00    +0.214 C 
ATOM     31  C   UNL     1       5.653   0.324  27.287  0.00  0.00    +0.180 C 
ATOM     32  C   UNL     1       6.716   1.054  28.116  0.00  0.00    +0.171 C 
BRANCH  30  33
ATOM     33  O   UNL     1       4.922  -0.199  25.001  0.00  0.00    -0.383 OA
ATOM     34  H   UNL     1       4.087   0.183  25.323  0.00  0.00    +0.210 HD
ENDBRANCH  30  33
BRANCH  31  35
ATOM     35  O   UNL     1       5.523  -1.023  27.757  0.00  0.00    -0.386 OA
ATOM     36  H   UNL     1       4.887  -0.980  28.498  0.00  0.00    +0.210 HD
ENDBRANCH  31  35
BRANCH  32  37
ATOM     37  O   UNL     1       6.284   1.098  29.479  0.00  0.00    -0.387 OA
ATOM     38  H   UNL     1       6.957   1.593  29.980  0.00  0.00    +0.210 HD
ENDBRANCH  32  37
ENDBRANCH  26  29
ENDBRANCH   1  26
TORSDOF 10
ENDMDL
MODEL 7
REMARK VINA RESULT:      -6.8      3.087      6.432
REMARK  Name = 
REMARK  10 active torsions:
REMARK  status: ('A' for Active; 'I' for Inactive)
REMARK    1  A    between atoms: C_2  and  O_35
REMARK    2  A    between atoms: C_4  and  O_34
REMARK    3  A    between atoms: C_6  and  O_33
REMARK    4  A    between atoms: C_8  and  O_11
REMARK    5  A    between atoms: O_11  and  C_12
REMARK    6  A    between atoms: C_13  and  C_25
REMARK    7  A    between atoms: C_17  and  O_24
REMARK    8  A    between atoms: C_19  and  O_23
REMARK    9  A    between atoms: C_27  and  O_32
REMARK   10  A    between atoms: C_28  and  O_31
REMARK                            x       y       z     vdW  Elec       q    Type
REMARK                         _______ _______ _______ _____ _____    ______ ____
ROOT
ATOM      1  C   UNL     1       8.236   2.708  24.208  0.00  0.00    +0.214 A 
ATOM      2  C   UNL     1       8.623   4.152  24.185  0.00  0.00    +0.238 A 
ATOM      3  O   UNL     1       7.783   5.039  24.260  0.00  0.00    -0.283 OA
ATOM      4  C   UNL     1      10.041   4.461  23.971  0.00  0.00    +0.109 A 
ATOM      5  C   UNL     1      10.844   3.451  23.448  0.00  0.00    +0.147 A 
ATOM      6  C   UNL     1      12.181   3.714  23.136  0.00  0.00    +0.092 A 
ATOM      7  C   UNL     1      12.697   4.991  23.356  0.00  0.00    +0.124 A 
ATOM      8  C   UNL     1      11.910   6.001  23.898  0.00  0.00    +0.091 A 
ATOM      9  O   UNL     1      10.372   2.185  23.191  0.00  0.00    -0.451 OA
ATOM     10  C   UNL     1      10.580   5.732  24.214  0.00  0.00    +0.135 A 
ATOM     11  C   UNL     1       9.101   1.833  23.645  0.00  0.00    +0.181 A 
ENDROOT
BRANCH  11  12
ATOM     12  C   UNL     1       8.781   0.388  23.433  0.00  0.00    +0.025 A 
ATOM     13  C   UNL     1       7.528  -0.006  22.919  0.00  0.00    +0.015 A 
ATOM     14  C   UNL     1       7.213  -1.359  22.718  0.00  0.00    +0.050 A 
ATOM     15  C   UNL     1       8.152  -2.329  23.033  0.00  0.00    +0.158 A 
ATOM     16  C   UNL     1       9.382  -1.970  23.566  0.00  0.00    +0.159 A 
ATOM     17  C   UNL     1       9.693  -0.629  23.784  0.00  0.00    +0.060 A 
BRANCH  15  18
ATOM     18  O   UNL     1       7.861  -3.643  22.810  0.00  0.00    -0.503 OA
ATOM     19  H   UNL     1       8.025  -4.079  23.671  0.00  0.00    +0.292 HD
ENDBRANCH  15  18
BRANCH  16  20
ATOM     20  O   UNL     1      10.265  -2.973  23.860  0.00  0.00    -0.503 OA
ATOM     21  H   UNL     1       9.870  -3.817  23.577  0.00  0.00    +0.292 HD
ENDBRANCH  16  20
ENDBRANCH  11  12
BRANCH   7  22
ATOM     22  O   UNL     1      13.987   5.306  23.057  0.00  0.00    -0.507 OA
ATOM     23  H   UNL     1      13.997   6.027  22.407  0.00  0.00    +0.292 HD
ENDBRANCH   7  22
BRANCH  10  24
ATOM     24  O   UNL     1       9.828   6.718  24.787  0.00  0.00    -0.506 OA
ATOM     25  H   UNL     1       9.421   6.394  25.607  0.00  0.00    +0.292 HD
ENDBRANCH  10  24
BRANCH   1  26
ATOM     26  O   UNL     1       7.003   2.311  24.709  0.00  0.00    -0.453 OA
BRANCH  26  29
ATOM     27  C   UNL     1       6.888   0.512  27.865  0.00  0.00    +0.198 C 
ATOM     28  O   UNL     1       6.873   0.729  26.459  0.00  0.00    -0.337 OA
ATOM     29  C   UNL     1       6.940   2.124  26.132  0.00  0.00    +0.339 C 
ATOM     30  C   UNL     1       5.705   2.878  26.681  0.00  0.00    +0.214 C 
ATOM     31  C   UNL     1       5.587   2.615  28.194  0.00  0.00    +0.180 C 
ATOM     32  C   UNL     1       5.640   1.114  28.504  0.00  0.00    +0.171 C 
BRANCH  30  33
ATOM     33  O   UNL     1       5.817   4.290  26.413  0.00  0.00    -0.383 OA
ATOM     34  H   UNL     1       6.150   4.728  27.215  0.00  0.00    +0.210 HD
ENDBRANCH  30  33
BRANCH  31  35
ATOM     35  O   UNL     1       4.371   3.168  28.712  0.00  0.00    -0.386 OA
ATOM     36  H   UNL     1       3.858   2.404  29.044  0.00  0.00    +0.210 HD
ENDBRANCH  31  35
BRANCH  32  37
ATOM     37  O   UNL     1       5.639   0.939  29.923  0.00  0.00    -0.387 OA
ATOM     38  H   UNL     1       5.717  -0.016  30.097  0.00  0.00    +0.210 HD
ENDBRANCH  32  37
ENDBRANCH  26  29
ENDBRANCH   1  26
TORSDOF 10
ENDMDL
MODEL 8
REMARK VINA RESULT:      -6.8      2.307      6.778
REMARK  Name = 
REMARK  10 active torsions:
REMARK  status: ('A' for Active; 'I' for Inactive)
REMARK    1  A    between atoms: C_2  and  O_35
REMARK    2  A    between atoms: C_4  and  O_34
REMARK    3  A    between atoms: C_6  and  O_33
REMARK    4  A    between atoms: C_8  and  O_11
REMARK    5  A    between atoms: O_11  and  C_12
REMARK    6  A    between atoms: C_13  and  C_25
REMARK    7  A    between atoms: C_17  and  O_24
REMARK    8  A    between atoms: C_19  and  O_23
REMARK    9  A    between atoms: C_27  and  O_32
REMARK   10  A    between atoms: C_28  and  O_31
REMARK                            x       y       z     vdW  Elec       q    Type
REMARK                         _______ _______ _______ _____ _____    ______ ____
ROOT
ATOM      1  C   UNL     1       7.594  -1.954  24.109  0.00  0.00    +0.214 A 
ATOM      2  C   UNL     1       7.471  -2.990  23.037  0.00  0.00    +0.238 A 
ATOM      3  O   UNL     1       7.967  -2.825  21.931  0.00  0.00    -0.283 OA
ATOM      4  C   UNL     1       6.647  -4.166  23.336  0.00  0.00    +0.109 A 
ATOM      5  C   UNL     1       5.764  -4.074  24.408  0.00  0.00    +0.147 A 
ATOM      6  C   UNL     1       4.889  -5.129  24.683  0.00  0.00    +0.092 A 
ATOM      7  C   UNL     1       4.914  -6.267  23.878  0.00  0.00    +0.124 A 
ATOM      8  C   UNL     1       5.807  -6.379  22.818  0.00  0.00    +0.091 A 
ATOM      9  O   UNL     1       5.686  -2.962  25.213  0.00  0.00    -0.451 OA
ATOM     10  C   UNL     1       6.682  -5.328  22.552  0.00  0.00    +0.135 A 
ATOM     11  C   UNL     1       6.654  -1.965  25.082  0.00  0.00    +0.181 A 
ENDROOT
BRANCH  11  12
ATOM     12  C   UNL     1       6.537  -0.894  26.119  0.00  0.00    +0.025 A 
ATOM     13  C   UNL     1       5.409  -0.048  26.159  0.00  0.00    +0.015 A 
ATOM     14  C   UNL     1       5.288   0.963  27.125  0.00  0.00    +0.050 A 
ATOM     15  C   UNL     1       6.299   1.136  28.057  0.00  0.00    +0.158 A 
ATOM     16  C   UNL     1       7.432   0.336  28.022  0.00  0.00    +0.159 A 
ATOM     17  C   UNL     1       7.566  -0.658  27.055  0.00  0.00    +0.060 A 
BRANCH  15  18
ATOM     18  O   UNL     1       6.171   2.098  29.017  0.00  0.00    -0.503 OA
ATOM     19  H   UNL     1       7.084   2.250  29.333  0.00  0.00    +0.292 HD
ENDBRANCH  15  18
BRANCH  16  20
ATOM     20  O   UNL     1       8.397   0.558  28.967  0.00  0.00    -0.503 OA
ATOM     21  H   UNL     1       8.989   1.257  28.635  0.00  0.00    +0.292 HD
ENDBRANCH  16  20
ENDBRANCH  11  12
BRANCH   7  22
ATOM     22  O   UNL     1       4.074  -7.317  24.091  0.00  0.00    -0.507 OA
ATOM     23  H   UNL     1       3.659  -7.570  23.252  0.00  0.00    +0.292 HD
ENDBRANCH   7  22
BRANCH  10  24
ATOM     24  O   UNL     1       7.586  -5.466  21.536  0.00  0.00    -0.506 OA
ATOM     25  H   UNL     1       7.150  -5.325  20.680  0.00  0.00    +0.292 HD
ENDBRANCH  10  24
BRANCH   1  26
ATOM     26  O   UNL     1       8.583  -0.981  24.046  0.00  0.00    -0.453 OA
BRANCH  26  29
ATOM     27  C   UNL     1       6.904   1.694  22.248  0.00  0.00    +0.198 C 
ATOM     28  O   UNL     1       7.433   0.400  22.513  0.00  0.00    -0.337 OA
ATOM     29  C   UNL     1       8.127   0.353  23.767  0.00  0.00    +0.339 C 
ATOM     30  C   UNL     1       9.347   1.306  23.757  0.00  0.00    +0.214 C 
ATOM     31  C   UNL     1       8.875   2.722  23.379  0.00  0.00    +0.180 C 
ATOM     32  C   UNL     1       8.037   2.706  22.096  0.00  0.00    +0.171 C 
BRANCH  30  33
ATOM     33  O   UNL     1       9.996   1.307  25.045  0.00  0.00    -0.383 OA
ATOM     34  H   UNL     1       9.376   0.938  25.699  0.00  0.00    +0.210 HD
ENDBRANCH  30  33
BRANCH  31  35
ATOM     35  O   UNL     1       9.994   3.600  23.207  0.00  0.00    -0.386 OA
ATOM     36  H   UNL     1      10.471   3.264  22.423  0.00  0.00    +0.210 HD
ENDBRANCH  31  35
BRANCH  32  37
ATOM     37  O   UNL     1       7.536   4.024  21.859  0.00  0.00    -0.387 OA
ATOM     38  H   UNL     1       6.639   3.931  21.489  0.00  0.00    +0.210 HD
ENDBRANCH  32  37
ENDBRANCH  26  29
ENDBRANCH   1  26
TORSDOF 10
ENDMDL
MODEL 9
REMARK VINA RESULT:      -6.7      2.365      6.962
REMARK  Name = 
REMARK  10 active torsions:
REMARK  status: ('A' for Active; 'I' for Inactive)
REMARK    1  A    between atoms: C_2  and  O_35
REMARK    2  A    between atoms: C_4  and  O_34
REMARK    3  A    between atoms: C_6  and  O_33
REMARK    4  A    between atoms: C_8  and  O_11
REMARK    5  A    between atoms: O_11  and  C_12
REMARK    6  A    between atoms: C_13  and  C_25
REMARK    7  A    between atoms: C_17  and  O_24
REMARK    8  A    between atoms: C_19  and  O_23
REMARK    9  A    between atoms: C_27  and  O_32
REMARK   10  A    between atoms: C_28  and  O_31
REMARK                            x       y       z     vdW  Elec       q    Type
REMARK                         _______ _______ _______ _____ _____    ______ ____
ROOT
ATOM      1  C   UNL     1       6.790  -2.517  24.288  0.00  0.00    +0.214 A 
ATOM      2  C   UNL     1       6.456  -3.637  23.355  0.00  0.00    +0.238 A 
ATOM      3  O   UNL     1       7.194  -3.935  22.425  0.00  0.00    -0.283 OA
ATOM      4  C   UNL     1       5.160  -4.298  23.541  0.00  0.00    +0.109 A 
ATOM      5  C   UNL     1       4.202  -3.628  24.297  0.00  0.00    +0.147 A 
ATOM      6  C   UNL     1       2.919  -4.166  24.431  0.00  0.00    +0.092 A 
ATOM      7  C   UNL     1       2.614  -5.375  23.807  0.00  0.00    +0.124 A 
ATOM      8  C   UNL     1       3.569  -6.064  23.067  0.00  0.00    +0.091 A 
ATOM      9  O   UNL     1       4.450  -2.422  24.910  0.00  0.00    -0.451 OA
ATOM     10  C   UNL     1       4.849  -5.528  22.942  0.00  0.00    +0.135 A 
ATOM     11  C   UNL     1       5.758  -1.940  24.944  0.00  0.00    +0.181 A 
ENDROOT
BRANCH  11  12
ATOM     12  C   UNL     1       5.904  -0.702  25.772  0.00  0.00    +0.025 A 
ATOM     13  C   UNL     1       6.325  -0.779  27.116  0.00  0.00    +0.015 A 
ATOM     14  C   UNL     1       6.463   0.373  27.905  0.00  0.00    +0.050 A 
ATOM     15  C   UNL     1       6.178   1.612  27.354  0.00  0.00    +0.158 A 
ATOM     16  C   UNL     1       5.735   1.713  26.043  0.00  0.00    +0.159 A 
ATOM     17  C   UNL     1       5.579   0.571  25.260  0.00  0.00    +0.060 A 
BRANCH  15  18
ATOM     18  O   UNL     1       6.340   2.738  28.109  0.00  0.00    -0.503 OA
ATOM     19  H   UNL     1       7.084   3.211  27.684  0.00  0.00    +0.292 HD
ENDBRANCH  15  18
BRANCH  16  20
ATOM     20  O   UNL     1       5.465   2.964  25.556  0.00  0.00    -0.503 OA
ATOM     21  H   UNL     1       4.507   3.023  25.390  0.00  0.00    +0.292 HD
ENDBRANCH  16  20
ENDBRANCH  11  12
BRANCH   7  22
ATOM     22  O   UNL     1       1.376  -5.936  23.892  0.00  0.00    -0.507 OA
ATOM     23  H   UNL     1       1.392  -6.811  23.473  0.00  0.00    +0.292 HD
ENDBRANCH   7  22
BRANCH  10  24
ATOM     24  O   UNL     1       5.793  -6.234  22.251  0.00  0.00    -0.506 OA
ATOM     25  H   UNL     1       6.683  -5.941  22.506  0.00  0.00    +0.292 HD
ENDBRANCH  10  24
BRANCH   1  26
ATOM     26  O   UNL     1       8.093  -2.048  24.397  0.00  0.00    -0.453 OA
BRANCH  26  29
ATOM     27  C   UNL     1       8.741   0.270  21.674  0.00  0.00    +0.198 C 
ATOM     28  O   UNL     1       8.554  -0.970  22.346  0.00  0.00    -0.337 OA
ATOM     29  C   UNL     1       8.357  -0.790  23.756  0.00  0.00    +0.339 C 
ATOM     30  C   UNL     1       9.607  -0.150  24.408  0.00  0.00    +0.214 C 
ATOM     31  C   UNL     1       9.942   1.160  23.671  0.00  0.00    +0.180 C 
ATOM     32  C   UNL     1      10.025   0.942  22.156  0.00  0.00    +0.171 C 
BRANCH  30  33
ATOM     33  O   UNL     1       9.373   0.094  25.810  0.00  0.00    -0.383 OA
ATOM     34  H   UNL     1      10.164  -0.183  26.304  0.00  0.00    +0.210 HD
ENDBRANCH  30  33
BRANCH  31  35
ATOM     35  O   UNL     1      11.181   1.704  24.143  0.00  0.00    -0.386 OA
ATOM     36  H   UNL     1      11.061   2.674  24.132  0.00  0.00    +0.210 HD
ENDBRANCH  31  35
BRANCH  32  37
ATOM     37  O   UNL     1      10.226   2.206  21.521  0.00  0.00    -0.387 OA
ATOM     38  H   UNL     1      10.862   2.068  20.795  0.00  0.00    +0.210 HD
ENDBRANCH  32  37
ENDBRANCH  26  29
ENDBRANCH   1  26
TORSDOF 10
ENDMDL
