MODEL 1
REMARK VINA RESULT:      -7.4      0.000      0.000
REMARK  Name = 
REMARK  24 active torsions:
REMARK  status: ('A' for Active; 'I' for Inactive)
REMARK    1  A    between atoms: C_1  and  O_2
REMARK    2  A    between atoms: O_2  and  C_3
REMARK    3  A    between atoms: C_4  and  O_67
REMARK    4  A    between atoms: C_7  and  C_9
REMARK    5  A    between atoms: C_10  and  C_11
REMARK    6  A    between atoms: C_11  and  O_13
REMARK    7  A    between atoms: O_13  and  C_14
REMARK    8  A    between atoms: C_14  and  C_15
REMARK    9  A    between atoms: C_17  and  O_66
REMARK   10  A    between atoms: C_19  and  O_65
REMARK   11  A    between atoms: C_21  and  O_64
REMARK   12  A    between atoms: C_23  and  O_26
REMARK   13  A    between atoms: O_26  and  C_27
REMARK   14  A    between atoms: C_29  and  O_63
REMARK   15  A    between atoms: C_31  and  O_62
REMARK   16  A    between atoms: C_33  and  C_60
REMARK   17  A    between atoms: C_36  and  O_38
REMARK   18  A    between atoms: O_38  and  C_39
REMARK   19  A    between atoms: C_40  and  C_52
REMARK   20  A    between atoms: C_44  and  O_51
REMARK   21  A    between atoms: C_46  and  O_50
REMARK   22  A    between atoms: C_54  and  O_59
REMARK   23  A    between atoms: C_55  and  O_58
REMARK   24  A    between atoms: C_60  and  O_61
REMARK                            x       y       z     vdW  Elec       q    Type
REMARK                         _______ _______ _______ _____ _____    ______ ____
ROOT
ATOM      1  C   UNL     1       2.889  -2.500  26.630  0.00  0.00    +0.221 C 
ATOM      2  C   UNL     1       3.795  -1.181  26.544  0.00  0.00    +0.340 C 
ATOM      3  O   UNL     1       3.762  -0.246  27.638  0.00  0.00    -0.331 OA
ATOM      4  C   UNL     1       2.601  -0.091  28.468  0.00  0.00    +0.179 C 
ATOM      5  C   UNL     1       1.862  -1.404  28.851  0.00  0.00    +0.177 C 
ATOM      6  C   UNL     1       1.660  -2.292  27.587  0.00  0.00    +0.180 C 
ENDROOT
BRANCH   6   7
ATOM      7  O   UNL     1       1.067  -3.545  27.991  0.00  0.00    -0.386 OA
ATOM      8  H   UNL     1       1.372  -4.250  27.388  0.00  0.00    +0.210 HD
ENDBRANCH   6   7
BRANCH   5   9
ATOM      9  O   UNL     1       2.421  -2.130  29.970  0.00  0.00    -0.386 OA
ATOM     10  H   UNL     1       3.318  -2.411  29.675  0.00  0.00    +0.210 HD
ENDBRANCH   5   9
BRANCH   4  11
ATOM     11  C   UNL     1       3.038   0.726  29.718  0.00  0.00    +0.190 C 
BRANCH  11  12
ATOM     12  O   UNL     1       4.214   0.189  30.315  0.00  0.00    -0.392 OA
ATOM     13  H   UNL     1       4.497   0.815  31.006  0.00  0.00    +0.210 HD
ENDBRANCH  11  12
ENDBRANCH   4  11
BRANCH   2  14
ATOM     14  O   UNL     1       5.249  -1.470  26.242  0.00  0.00    -0.453 OA
BRANCH  14  15
ATOM     15  C   UNL     1       5.823  -0.785  25.167  0.00  0.00    +0.214 A 
ATOM     16  C   UNL     1       5.662   0.645  25.118  0.00  0.00    +0.238 A 
ATOM     17  O   UNL     1       4.529   1.121  25.131  0.00  0.00    -0.283 OA
ATOM     18  C   UNL     1       6.611   1.557  24.598  0.00  0.00    +0.109 A 
ATOM     19  C   UNL     1       6.792   1.161  23.281  0.00  0.00    +0.147 A 
ATOM     20  C   UNL     1       6.739   2.170  22.322  0.00  0.00    +0.092 A 
ATOM     21  C   UNL     1       6.455   3.510  22.708  0.00  0.00    +0.124 A 
ATOM     22  C   UNL     1       6.301   3.888  24.044  0.00  0.00    +0.091 A 
ATOM     23  O   UNL     1       6.681  -0.193  22.943  0.00  0.00    -0.451 OA
ATOM     24  C   UNL     1       6.438   2.903  24.997  0.00  0.00    +0.135 A 
ATOM     25  C   UNL     1       6.203  -1.183  23.912  0.00  0.00    +0.181 A 
BRANCH  25  26
ATOM     26  C   UNL     1       6.028  -2.561  23.290  0.00  0.00    +0.025 A 
ATOM     27  C   UNL     1       5.701  -3.739  23.997  0.00  0.00    +0.015 A 
ATOM     28  C   UNL     1       5.492  -4.989  23.355  0.00  0.00    +0.050 A 
ATOM     29  C   UNL     1       5.556  -5.074  21.977  0.00  0.00    +0.158 A 
ATOM     30  C   UNL     1       5.837  -3.931  21.251  0.00  0.00    +0.159 A 
ATOM     31  C   UNL     1       6.098  -2.709  21.885  0.00  0.00    +0.060 A 
BRANCH  30  32
ATOM     32  O   UNL     1       5.798  -4.045  19.878  0.00  0.00    -0.503 OA
ATOM     33  H   UNL     1       5.947  -3.158  19.517  0.00  0.00    +0.292 HD
ENDBRANCH  30  32
BRANCH  29  34
ATOM     34  O   UNL     1       5.316  -6.255  21.339  0.00  0.00    -0.503 OA
ATOM     35  H   UNL     1       4.460  -6.566  21.701  0.00  0.00    +0.292 HD
ENDBRANCH  29  34
ENDBRANCH  25  26
BRANCH  24  36
ATOM     36  O   UNL     1       6.082   3.211  26.289  0.00  0.00    -0.506 OA
ATOM     37  H   UNL     1       6.251   2.408  26.846  0.00  0.00    +0.292 HD
ENDBRANCH  24  36
BRANCH  21  38
ATOM     38  O   UNL     1       6.232   4.499  21.805  0.00  0.00    -0.507 OA
ATOM     39  H   UNL     1       5.300   4.746  21.806  0.00  0.00    +0.292 HD
ENDBRANCH  21  38
ENDBRANCH  14  15
ENDBRANCH   2  14
BRANCH   1  40
ATOM     40  O   UNL     1       2.423  -3.087  25.339  0.00  0.00    -0.337 OA
BRANCH  40  43
ATOM     41  C   UNL     1       3.266  -6.412  26.401  0.00  0.00    +0.190 C 
ATOM     42  O   UNL     1       3.335  -5.019  26.122  0.00  0.00    -0.339 OA
ATOM     43  C   UNL     1       2.246  -4.522  25.345  0.00  0.00    +0.282 C 
ATOM     44  C   UNL     1       2.269  -5.262  23.944  0.00  0.00    +0.201 C 
ATOM     45  C   UNL     1       2.228  -6.792  24.182  0.00  0.00    +0.179 C 
ATOM     46  C   UNL     1       3.341  -7.242  25.117  0.00  0.00    +0.178 C 
BRANCH  46  47
ATOM     47  O   UNL     1       3.179  -8.649  25.340  0.00  0.00    -0.386 OA
ATOM     48  H   UNL     1       3.178  -8.783  26.308  0.00  0.00    +0.210 HD
ENDBRANCH  46  47
BRANCH  45  49
ATOM     49  O   UNL     1       2.350  -7.541  22.951  0.00  0.00    -0.386 OA
ATOM     50  H   UNL     1       1.958  -8.424  23.160  0.00  0.00    +0.210 HD
ENDBRANCH  45  49
BRANCH  44  51
ATOM     51  O   UNL     1       1.139  -4.946  23.114  0.00  0.00    -0.384 OA
ATOM     52  H   UNL     1       1.216  -5.548  22.340  0.00  0.00    +0.210 HD
ENDBRANCH  44  51
BRANCH  41  53
ATOM     53  C   UNL     1       4.451  -6.742  27.321  0.00  0.00    +0.266 C 
BRANCH  53  54
ATOM     54  O   UNL     1       5.704  -6.432  26.692  0.00  0.00    -0.459 OA
BRANCH  54  55
ATOM     55  C   UNL     1       6.554  -5.802  27.540  0.00  0.00    +0.332 C 
ATOM     56  O   UNL     1       7.077  -6.315  28.513  0.00  0.00    -0.246 OA
BRANCH  55  58
ATOM     57  C   UNL     1       8.086  -4.287  26.507  0.00  0.00    +0.015 C 
ATOM     58  C   UNL     1       6.867  -4.454  27.047  0.00  0.00    +0.092 C 
BRANCH  57  61
ATOM     59  C   UNL     1       9.834  -1.876  24.183  0.00  0.00    +0.162 A 
ATOM     60  C   UNL     1       9.229  -3.049  24.656  0.00  0.00    +0.057 A 
ATOM     61  C   UNL     1       8.623  -3.053  25.921  0.00  0.00    -0.021 A 
ATOM     62  C   UNL     1       8.627  -1.900  26.709  0.00  0.00    +0.012 A 
ATOM     63  C   UNL     1       9.192  -0.711  26.224  0.00  0.00    +0.050 A 
ATOM     64  C   UNL     1       9.789  -0.717  24.970  0.00  0.00    +0.158 A 
BRANCH  64  65
ATOM     65  O   UNL     1      10.356   0.449  24.530  0.00  0.00    -0.503 OA
ATOM     66  H   UNL     1       9.795   0.750  23.802  0.00  0.00    +0.292 HD
ENDBRANCH  64  65
BRANCH  59  68
ATOM     67  C   UNL     1       9.602  -1.527  21.865  0.00  0.00    +0.277 C 
ATOM     68  O   UNL     1      10.473  -1.753  22.975  0.00  0.00    -0.491 OA
ENDBRANCH  59  68
ENDBRANCH  57  61
ENDBRANCH  55  58
ENDBRANCH  54  55
ENDBRANCH  53  54
ENDBRANCH  41  53
ENDBRANCH  40  43
ENDBRANCH   1  40
TORSDOF 23
ENDMDL
MODEL 2
REMARK VINA RESULT:      -6.9      1.916      3.062
REMARK  Name = 
REMARK  24 active torsions:
REMARK  status: ('A' for Active; 'I' for Inactive)
REMARK    1  A    between atoms: C_1  and  O_2
REMARK    2  A    between atoms: O_2  and  C_3
REMARK    3  A    between atoms: C_4  and  O_67
REMARK    4  A    between atoms: C_7  and  C_9
REMARK    5  A    between atoms: C_10  and  C_11
REMARK    6  A    between atoms: C_11  and  O_13
REMARK    7  A    between atoms: O_13  and  C_14
REMARK    8  A    between atoms: C_14  and  C_15
REMARK    9  A    between atoms: C_17  and  O_66
REMARK   10  A    between atoms: C_19  and  O_65
REMARK   11  A    between atoms: C_21  and  O_64
REMARK   12  A    between atoms: C_23  and  O_26
REMARK   13  A    between atoms: O_26  and  C_27
REMARK   14  A    between atoms: C_29  and  O_63
REMARK   15  A    between atoms: C_31  and  O_62
REMARK   16  A    between atoms: C_33  and  C_60
REMARK   17  A    between atoms: C_36  and  O_38
REMARK   18  A    between atoms: O_38  and  C_39
REMARK   19  A    between atoms: C_40  and  C_52
REMARK   20  A    between atoms: C_44  and  O_51
REMARK   21  A    between atoms: C_46  and  O_50
REMARK   22  A    between atoms: C_54  and  O_59
REMARK   23  A    between atoms: C_55  and  O_58
REMARK   24  A    between atoms: C_60  and  O_61
REMARK                            x       y       z     vdW  Elec       q    Type
REMARK                         _______ _______ _______ _____ _____    ______ ____
ROOT
ATOM      1  C   UNL     1       3.671   0.122  27.798  0.00  0.00    +0.221 C 
ATOM      2  C   UNL     1       4.199   1.235  26.773  0.00  0.00    +0.340 C 
ATOM      3  O   UNL     1       5.348   2.022  27.137  0.00  0.00    -0.331 OA
ATOM      4  C   UNL     1       5.669   2.306  28.507  0.00  0.00    +0.179 C 
ATOM      5  C   UNL     1       5.475   1.132  29.506  0.00  0.00    +0.177 C 
ATOM      6  C   UNL     1       4.090   0.457  29.276  0.00  0.00    +0.180 C 
ENDROOT
BRANCH   6   7
ATOM      7  O   UNL     1       3.984  -0.692  30.144  0.00  0.00    -0.386 OA
ATOM      8  H   UNL     1       3.401  -0.468  30.895  0.00  0.00    +0.210 HD
ENDBRANCH   6   7
BRANCH   5   9
ATOM      9  O   UNL     1       6.564   0.181  29.570  0.00  0.00    -0.386 OA
ATOM     10  H   UNL     1       7.345   0.701  29.869  0.00  0.00    +0.210 HD
ENDBRANCH   5   9
BRANCH   4  11
ATOM     11  C   UNL     1       7.121   2.866  28.529  0.00  0.00    +0.190 C 
BRANCH  11  12
ATOM     12  O   UNL     1       7.742   2.672  29.796  0.00  0.00    -0.392 OA
ATOM     13  H   UNL     1       8.651   2.365  29.625  0.00  0.00    +0.210 HD
ENDBRANCH  11  12
ENDBRANCH   4  11
BRANCH   2  14
ATOM     14  O   UNL     1       4.442   0.699  25.379  0.00  0.00    -0.453 OA
BRANCH  14  15
ATOM     15  C   UNL     1       5.772   0.584  24.966  0.00  0.00    +0.214 A 
ATOM     16  C   UNL     1       6.500   1.796  24.692  0.00  0.00    +0.238 A 
ATOM     17  O   UNL     1       6.055   2.587  23.863  0.00  0.00    -0.283 OA
ATOM     18  C   UNL     1       7.885   1.987  24.913  0.00  0.00    +0.109 A 
ATOM     19  C   UNL     1       8.498   1.008  24.147  0.00  0.00    +0.147 A 
ATOM     20  C   UNL     1       9.557   1.427  23.344  0.00  0.00    +0.092 A 
ATOM     21  C   UNL     1       9.919   2.803  23.300  0.00  0.00    +0.124 A 
ATOM     22  C   UNL     1       9.301   3.767  24.100  0.00  0.00    +0.091 A 
ATOM     23  O   UNL     1       7.858  -0.222  23.948  0.00  0.00    -0.451 OA
ATOM     24  C   UNL     1       8.311   3.335  24.955  0.00  0.00    +0.135 A 
ATOM     25  C   UNL     1       6.475  -0.438  24.383  0.00  0.00    +0.181 A 
BRANCH  25  26
ATOM     26  C   UNL     1       5.938  -1.792  23.942  0.00  0.00    +0.025 A 
ATOM     27  C   UNL     1       5.112  -2.634  24.719  0.00  0.00    +0.015 A 
ATOM     28  C   UNL     1       4.590  -3.862  24.232  0.00  0.00    +0.050 A 
ATOM     29  C   UNL     1       4.845  -4.250  22.931  0.00  0.00    +0.158 A 
ATOM     30  C   UNL     1       5.618  -3.431  22.129  0.00  0.00    +0.159 A 
ATOM     31  C   UNL     1       6.180  -2.246  22.624  0.00  0.00    +0.060 A 
BRANCH  30  32
ATOM     32  O   UNL     1       5.766  -3.813  20.814  0.00  0.00    -0.503 OA
ATOM     33  H   UNL     1       5.863  -4.777  20.810  0.00  0.00    +0.292 HD
ENDBRANCH  30  32
BRANCH  29  34
ATOM     34  O   UNL     1       4.317  -5.405  22.431  0.00  0.00    -0.503 OA
ATOM     35  H   UNL     1       3.730  -5.116  21.702  0.00  0.00    +0.292 HD
ENDBRANCH  29  34
ENDBRANCH  25  26
BRANCH  24  36
ATOM     36  O   UNL     1       7.553   4.290  25.589  0.00  0.00    -0.506 OA
ATOM     37  H   UNL     1       6.797   4.521  24.990  0.00  0.00    +0.292 HD
ENDBRANCH  24  36
BRANCH  21  38
ATOM     38  O   UNL     1      10.830   3.292  22.419  0.00  0.00    -0.507 OA
ATOM     39  H   UNL     1      11.081   4.190  22.664  0.00  0.00    +0.292 HD
ENDBRANCH  21  38
ENDBRANCH  14  15
ENDBRANCH   2  14
BRANCH   1  40
ATOM     40  O   UNL     1       2.215  -0.203  27.754  0.00  0.00    -0.337 OA
BRANCH  40  43
ATOM     41  C   UNL     1       2.881  -3.687  28.316  0.00  0.00    +0.190 C 
ATOM     42  O   UNL     1       3.042  -2.280  28.176  0.00  0.00    -0.339 OA
ATOM     43  C   UNL     1       1.903  -1.610  27.637  0.00  0.00    +0.282 C 
ATOM     44  C   UNL     1       1.647  -2.179  26.180  0.00  0.00    +0.201 C 
ATOM     45  C   UNL     1       1.495  -3.719  26.261  0.00  0.00    +0.179 C 
ATOM     46  C   UNL     1       2.685  -4.363  26.956  0.00  0.00    +0.178 C 
BRANCH  46  47
ATOM     47  O   UNL     1       2.424  -5.769  27.054  0.00  0.00    -0.386 OA
ATOM     48  H   UNL     1       1.467  -5.890  26.902  0.00  0.00    +0.210 HD
ENDBRANCH  46  47
BRANCH  45  49
ATOM     49  O   UNL     1       1.361  -4.324  24.954  0.00  0.00    -0.386 OA
ATOM     50  H   UNL     1       1.691  -3.635  24.327  0.00  0.00    +0.210 HD
ENDBRANCH  45  49
BRANCH  44  51
ATOM     51  O   UNL     1       0.443  -1.679  25.576  0.00  0.00    -0.384 OA
ATOM     52  H   UNL     1      -0.282  -1.983  26.166  0.00  0.00    +0.210 HD
ENDBRANCH  44  51
BRANCH  41  53
ATOM     53  C   UNL     1       4.152  -4.216  28.997  0.00  0.00    +0.266 C 
BRANCH  53  54
ATOM     54  O   UNL     1       4.098  -5.641  29.170  0.00  0.00    -0.459 OA
BRANCH  54  55
ATOM     55  C   UNL     1       5.267  -6.237  28.824  0.00  0.00    +0.332 C 
ATOM     56  O   UNL     1       5.489  -7.433  28.898  0.00  0.00    -0.246 OA
BRANCH  55  58
ATOM     57  C   UNL     1       6.733  -5.612  27.044  0.00  0.00    +0.015 C 
ATOM     58  C   UNL     1       6.182  -5.260  28.218  0.00  0.00    +0.092 C 
BRANCH  57  61
ATOM     59  C   UNL     1       8.944  -2.792  25.852  0.00  0.00    +0.162 A 
ATOM     60  C   UNL     1       8.168  -3.590  26.703  0.00  0.00    +0.057 A 
ATOM     61  C   UNL     1       7.649  -4.804  26.230  0.00  0.00    -0.021 A 
ATOM     62  C   UNL     1       7.895  -5.213  24.918  0.00  0.00    +0.012 A 
ATOM     63  C   UNL     1       8.706  -4.440  24.074  0.00  0.00    +0.050 A 
ATOM     64  C   UNL     1       9.218  -3.240  24.552  0.00  0.00    +0.158 A 
BRANCH  64  65
ATOM     65  O   UNL     1       9.985  -2.491  23.702  0.00  0.00    -0.503 OA
ATOM     66  H   UNL     1      10.092  -3.031  22.907  0.00  0.00    +0.292 HD
ENDBRANCH  64  65
BRANCH  59  68
ATOM     67  C   UNL     1       8.758  -0.859  27.185  0.00  0.00    +0.277 C 
ATOM     68  O   UNL     1       9.490  -1.579  26.192  0.00  0.00    -0.491 OA
ENDBRANCH  59  68
ENDBRANCH  57  61
ENDBRANCH  55  58
ENDBRANCH  54  55
ENDBRANCH  53  54
ENDBRANCH  41  53
ENDBRANCH  40  43
ENDBRANCH   1  40
TORSDOF 23
ENDMDL
MODEL 3
REMARK VINA RESULT:      -6.7      2.809      6.775
REMARK  Name = 
REMARK  24 active torsions:
REMARK  status: ('A' for Active; 'I' for Inactive)
REMARK    1  A    between atoms: C_1  and  O_2
REMARK    2  A    between atoms: O_2  and  C_3
REMARK    3  A    between atoms: C_4  and  O_67
REMARK    4  A    between atoms: C_7  and  C_9
REMARK    5  A    between atoms: C_10  and  C_11
REMARK    6  A    between atoms: C_11  and  O_13
REMARK    7  A    between atoms: O_13  and  C_14
REMARK    8  A    between atoms: C_14  and  C_15
REMARK    9  A    between atoms: C_17  and  O_66
REMARK   10  A    between atoms: C_19  and  O_65
REMARK   11  A    between atoms: C_21  and  O_64
REMARK   12  A    between atoms: C_23  and  O_26
REMARK   13  A    between atoms: O_26  and  C_27
REMARK   14  A    between atoms: C_29  and  O_63
REMARK   15  A    between atoms: C_31  and  O_62
REMARK   16  A    between atoms: C_33  and  C_60
REMARK   17  A    between atoms: C_36  and  O_38
REMARK   18  A    between atoms: O_38  and  C_39
REMARK   19  A    between atoms: C_40  and  C_52
REMARK   20  A    between atoms: C_44  and  O_51
REMARK   21  A    between atoms: C_46  and  O_50
REMARK   22  A    between atoms: C_54  and  O_59
REMARK   23  A    between atoms: C_55  and  O_58
REMARK   24  A    between atoms: C_60  and  O_61
REMARK                            x       y       z     vdW  Elec       q    Type
REMARK                         _______ _______ _______ _____ _____    ______ ____
ROOT
ATOM      1  C   UNL     1       6.598   1.305  25.955  0.00  0.00    +0.221 C 
ATOM      2  C   UNL     1       7.495   2.623  25.790  0.00  0.00    +0.340 C 
ATOM      3  O   UNL     1       7.989   2.964  24.482  0.00  0.00    -0.331 OA
ATOM      4  C   UNL     1       8.250   1.964  23.486  0.00  0.00    +0.179 C 
ATOM      5  C   UNL     1       7.209   0.814  23.391  0.00  0.00    +0.177 C 
ATOM      6  C   UNL     1       6.888   0.265  24.813  0.00  0.00    +0.180 C 
ENDROOT
BRANCH   6   7
ATOM      7  O   UNL     1       5.844  -0.726  24.702  0.00  0.00    -0.386 OA
ATOM      8  H   UNL     1       6.120  -1.406  24.057  0.00  0.00    +0.210 HD
ENDBRANCH   6   7
BRANCH   5   9
ATOM      9  O   UNL     1       6.023   1.110  22.617  0.00  0.00    -0.386 OA
ATOM     10  H   UNL     1       6.263   1.884  22.059  0.00  0.00    +0.210 HD
ENDBRANCH   5   9
BRANCH   4  11
ATOM     11  C   UNL     1       8.434   2.707  22.131  0.00  0.00    +0.190 C 
BRANCH  11  12
ATOM     12  O   UNL     1       8.756   1.807  21.075  0.00  0.00    -0.392 OA
ATOM     13  H   UNL     1       9.709   1.614  21.143  0.00  0.00    +0.210 HD
ENDBRANCH  11  12
ENDBRANCH   4  11
BRANCH   2  14
ATOM     14  O   UNL     1       6.850   3.864  26.367  0.00  0.00    -0.453 OA
BRANCH  14  15
ATOM     15  C   UNL     1       6.434   4.843  25.461  0.00  0.00    +0.214 A 
ATOM     16  C   UNL     1       5.227   4.600  24.714  0.00  0.00    +0.238 A 
ATOM     17  O   UNL     1       5.141   3.583  24.029  0.00  0.00    -0.283 OA
ATOM     18  C   UNL     1       4.306   5.593  24.303  0.00  0.00    +0.109 A 
ATOM     19  C   UNL     1       5.054   6.461  23.522  0.00  0.00    +0.147 A 
ATOM     20  C   UNL     1       4.500   6.817  22.294  0.00  0.00    +0.092 A 
ATOM     21  C   UNL     1       3.261   6.254  21.878  0.00  0.00    +0.124 A 
ATOM     22  C   UNL     1       2.514   5.400  22.693  0.00  0.00    +0.091 A 
ATOM     23  O   UNL     1       6.409   6.665  23.813  0.00  0.00    -0.451 OA
ATOM     24  C   UNL     1       3.024   5.117  23.942  0.00  0.00    +0.135 A 
ATOM     25  C   UNL     1       7.102   5.850  24.814  0.00  0.00    +0.181 A 
BRANCH  25  26
ATOM     26  C   UNL     1       8.594   6.148  24.866  0.00  0.00    +0.025 A 
ATOM     27  C   UNL     1       9.287   6.651  25.989  0.00  0.00    +0.015 A 
ATOM     28  C   UNL     1      10.692   6.854  25.999  0.00  0.00    +0.050 A 
ATOM     29  C   UNL     1      11.445   6.506  24.894  0.00  0.00    +0.158 A 
ATOM     30  C   UNL     1      10.804   5.974  23.790  0.00  0.00    +0.159 A 
ATOM     31  C   UNL     1       9.411   5.825  23.757  0.00  0.00    +0.060 A 
BRANCH  30  32
ATOM     32  O   UNL     1      11.606   5.557  22.750  0.00  0.00    -0.503 OA
ATOM     33  H   UNL     1      11.969   6.354  22.336  0.00  0.00    +0.292 HD
ENDBRANCH  30  32
BRANCH  29  34
ATOM     34  O   UNL     1      12.802   6.653  24.900  0.00  0.00    -0.503 OA
ATOM     35  H   UNL     1      13.021   6.993  24.008  0.00  0.00    +0.292 HD
ENDBRANCH  29  34
ENDBRANCH  25  26
BRANCH  24  36
ATOM     36  O   UNL     1       2.417   4.121  24.668  0.00  0.00    -0.506 OA
ATOM     37  H   UNL     1       1.553   4.475  25.002  0.00  0.00    +0.292 HD
ENDBRANCH  24  36
BRANCH  21  38
ATOM     38  O   UNL     1       2.757   6.438  20.631  0.00  0.00    -0.507 OA
ATOM     39  H   UNL     1       2.589   5.586  20.211  0.00  0.00    +0.292 HD
ENDBRANCH  21  38
ENDBRANCH  14  15
ENDBRANCH   2  14
BRANCH   1  40
ATOM     40  O   UNL     1       6.641   0.618  27.279  0.00  0.00    -0.337 OA
BRANCH  40  43
ATOM     41  C   UNL     1       4.457  -2.187  27.787  0.00  0.00    +0.190 C 
ATOM     42  O   UNL     1       5.513  -1.358  27.317  0.00  0.00    -0.339 OA
ATOM     43  C   UNL     1       5.396   0.013  27.698  0.00  0.00    +0.282 C 
ATOM     44  C   UNL     1       4.062   0.584  27.063  0.00  0.00    +0.201 C 
ATOM     45  C   UNL     1       2.872  -0.301  27.513  0.00  0.00    +0.179 C 
ATOM     46  C   UNL     1       3.111  -1.768  27.189  0.00  0.00    +0.178 C 
BRANCH  46  47
ATOM     47  O   UNL     1       2.003  -2.515  27.708  0.00  0.00    -0.386 OA
ATOM     48  H   UNL     1       2.365  -3.351  28.058  0.00  0.00    +0.210 HD
ENDBRANCH  46  47
BRANCH  45  49
ATOM     49  O   UNL     1       1.628   0.096  26.890  0.00  0.00    -0.386 OA
ATOM     50  H   UNL     1       0.931  -0.378  27.406  0.00  0.00    +0.210 HD
ENDBRANCH  45  49
BRANCH  44  51
ATOM     51  O   UNL     1       3.758   1.924  27.482  0.00  0.00    -0.384 OA
ATOM     52  H   UNL     1       4.122   2.501  26.773  0.00  0.00    +0.210 HD
ENDBRANCH  44  51
BRANCH  41  53
ATOM     53  C   UNL     1       4.801  -3.625  27.374  0.00  0.00    +0.266 C 
BRANCH  53  54
ATOM     54  O   UNL     1       5.865  -4.160  28.176  0.00  0.00    -0.459 OA
BRANCH  54  55
ATOM     55  C   UNL     1       6.783  -4.820  27.424  0.00  0.00    +0.332 C 
ATOM     56  O   UNL     1       7.302  -5.879  27.728  0.00  0.00    -0.246 OA
BRANCH  55  58
ATOM     57  C   UNL     1       8.199  -3.705  25.856  0.00  0.00    +0.015 C 
ATOM     58  C   UNL     1       6.961  -4.152  26.128  0.00  0.00    +0.092 C 
BRANCH  57  61
ATOM     59  C   UNL     1       9.954  -1.363  23.468  0.00  0.00    +0.162 A 
ATOM     60  C   UNL     1       9.647  -2.063  24.643  0.00  0.00    +0.057 A 
ATOM     61  C   UNL     1       8.637  -3.035  24.625  0.00  0.00    -0.021 A 
ATOM     62  C   UNL     1       7.934  -3.301  23.448  0.00  0.00    +0.012 A 
ATOM     63  C   UNL     1       8.265  -2.636  22.258  0.00  0.00    +0.050 A 
ATOM     64  C   UNL     1       9.269  -1.675  22.285  0.00  0.00    +0.158 A 
BRANCH  64  65
ATOM     65  O   UNL     1       9.555  -1.021  21.118  0.00  0.00    -0.503 OA
ATOM     66  H   UNL     1      10.161  -0.308  21.363  0.00  0.00    +0.292 HD
ENDBRANCH  64  65
BRANCH  59  68
ATOM     67  C   UNL     1      11.013   0.462  24.513  0.00  0.00    +0.277 C 
ATOM     68  O   UNL     1      10.905  -0.379  23.364  0.00  0.00    -0.491 OA
ENDBRANCH  59  68
ENDBRANCH  57  61
ENDBRANCH  55  58
ENDBRANCH  54  55
ENDBRANCH  53  54
ENDBRANCH  41  53
ENDBRANCH  40  43
ENDBRANCH   1  40
TORSDOF 23
ENDMDL
MODEL 4
REMARK VINA RESULT:      -6.7      2.933      7.273
REMARK  Name = 
REMARK  24 active torsions:
REMARK  status: ('A' for Active; 'I' for Inactive)
REMARK    1  A    between atoms: C_1  and  O_2
REMARK    2  A    between atoms: O_2  and  C_3
REMARK    3  A    between atoms: C_4  and  O_67
REMARK    4  A    between atoms: C_7  and  C_9
REMARK    5  A    between atoms: C_10  and  C_11
REMARK    6  A    between atoms: C_11  and  O_13
REMARK    7  A    between atoms: O_13  and  C_14
REMARK    8  A    between atoms: C_14  and  C_15
REMARK    9  A    between atoms: C_17  and  O_66
REMARK   10  A    between atoms: C_19  and  O_65
REMARK   11  A    between atoms: C_21  and  O_64
REMARK   12  A    between atoms: C_23  and  O_26
REMARK   13  A    between atoms: O_26  and  C_27
REMARK   14  A    between atoms: C_29  and  O_63
REMARK   15  A    between atoms: C_31  and  O_62
REMARK   16  A    between atoms: C_33  and  C_60
REMARK   17  A    between atoms: C_36  and  O_38
REMARK   18  A    between atoms: O_38  and  C_39
REMARK   19  A    between atoms: C_40  and  C_52
REMARK   20  A    between atoms: C_44  and  O_51
REMARK   21  A    between atoms: C_46  and  O_50
REMARK   22  A    between atoms: C_54  and  O_59
REMARK   23  A    between atoms: C_55  and  O_58
REMARK   24  A    between atoms: C_60  and  O_61
REMARK                            x       y       z     vdW  Elec       q    Type
REMARK                         _______ _______ _______ _____ _____    ______ ____
ROOT
ATOM      1  C   UNL     1       6.346   1.472  25.913  0.00  0.00    +0.221 C 
ATOM      2  C   UNL     1       7.454   2.629  25.885  0.00  0.00    +0.340 C 
ATOM      3  O   UNL     1       8.137   2.904  24.648  0.00  0.00    -0.331 OA
ATOM      4  C   UNL     1       8.344   1.889  23.655  0.00  0.00    +0.179 C 
ATOM      5  C   UNL     1       7.150   0.924  23.414  0.00  0.00    +0.177 C 
ATOM      6  C   UNL     1       6.591   0.415  24.776  0.00  0.00    +0.180 C 
ENDROOT
BRANCH   6   7
ATOM      7  O   UNL     1       5.421  -0.394  24.524  0.00  0.00    -0.386 OA
ATOM      8  H   UNL     1       4.728  -0.158  25.169  0.00  0.00    +0.210 HD
ENDBRANCH   6   7
BRANCH   5   9
ATOM      9  O   UNL     1       6.118   1.417  22.528  0.00  0.00    -0.386 OA
ATOM     10  H   UNL     1       5.722   2.188  22.995  0.00  0.00    +0.210 HD
ENDBRANCH   5   9
BRANCH   4  11
ATOM     11  C   UNL     1       8.791   2.610  22.351  0.00  0.00    +0.190 C 
BRANCH  11  12
ATOM     12  O   UNL     1       8.789   1.730  21.232  0.00  0.00    -0.392 OA
ATOM     13  H   UNL     1       9.719   1.568  20.991  0.00  0.00    +0.210 HD
ENDBRANCH  11  12
ENDBRANCH   4  11
BRANCH   2  14
ATOM     14  O   UNL     1       6.956   3.950  26.428  0.00  0.00    -0.453 OA
BRANCH  14  15
ATOM     15  C   UNL     1       6.532   4.901  25.496  0.00  0.00    +0.214 A 
ATOM     16  C   UNL     1       5.308   4.645  24.782  0.00  0.00    +0.238 A 
ATOM     17  O   UNL     1       5.199   3.606  24.135  0.00  0.00    -0.283 OA
ATOM     18  C   UNL     1       4.389   5.632  24.353  0.00  0.00    +0.109 A 
ATOM     19  C   UNL     1       5.130   6.464  23.527  0.00  0.00    +0.147 A 
ATOM     20  C   UNL     1       4.556   6.783  22.298  0.00  0.00    +0.092 A 
ATOM     21  C   UNL     1       3.304   6.218  21.926  0.00  0.00    +0.124 A 
ATOM     22  C   UNL     1       2.565   5.402  22.786  0.00  0.00    +0.091 A 
ATOM     23  O   UNL     1       6.492   6.664  23.785  0.00  0.00    -0.451 OA
ATOM     24  C   UNL     1       3.096   5.157  24.033  0.00  0.00    +0.135 A 
ATOM     25  C   UNL     1       7.197   5.877  24.801  0.00  0.00    +0.181 A 
BRANCH  25  26
ATOM     26  C   UNL     1       8.693   6.161  24.814  0.00  0.00    +0.025 A 
ATOM     27  C   UNL     1       9.409   6.710  25.901  0.00  0.00    +0.015 A 
ATOM     28  C   UNL     1      10.817   6.898  25.878  0.00  0.00    +0.050 A 
ATOM     29  C   UNL     1      11.547   6.490  24.779  0.00  0.00    +0.158 A 
ATOM     30  C   UNL     1      10.882   5.913  23.712  0.00  0.00    +0.159 A 
ATOM     31  C   UNL     1       9.487   5.777  23.709  0.00  0.00    +0.060 A 
BRANCH  30  32
ATOM     32  O   UNL     1      11.662   5.438  22.680  0.00  0.00    -0.503 OA
ATOM     33  H   UNL     1      11.683   6.128  22.000  0.00  0.00    +0.292 HD
ENDBRANCH  30  32
BRANCH  29  34
ATOM     34  O   UNL     1      12.905   6.622  24.755  0.00  0.00    -0.503 OA
ATOM     35  H   UNL     1      13.176   6.589  25.696  0.00  0.00    +0.292 HD
ENDBRANCH  29  34
ENDBRANCH  25  26
BRANCH  24  36
ATOM     36  O   UNL     1       2.493   4.194  24.806  0.00  0.00    -0.506 OA
ATOM     37  H   UNL     1       1.994   3.589  24.199  0.00  0.00    +0.292 HD
ENDBRANCH  24  36
BRANCH  21  38
ATOM     38  O   UNL     1       2.777   6.363  20.683  0.00  0.00    -0.507 OA
ATOM     39  H   UNL     1       2.920   7.262  20.364  0.00  0.00    +0.292 HD
ENDBRANCH  21  38
ENDBRANCH  14  15
ENDBRANCH   2  14
BRANCH   1  40
ATOM     40  O   UNL     1       6.134   0.769  27.212  0.00  0.00    -0.337 OA
BRANCH  40  43
ATOM     41  C   UNL     1       2.802  -0.515  27.597  0.00  0.00    +0.190 C 
ATOM     42  O   UNL     1       4.114  -0.274  27.104  0.00  0.00    -0.339 OA
ATOM     43  C   UNL     1       4.783   0.822  27.726  0.00  0.00    +0.282 C 
ATOM     44  C   UNL     1       3.946   2.135  27.431  0.00  0.00    +0.201 C 
ATOM     45  C   UNL     1       2.490   1.923  27.919  0.00  0.00    +0.179 C 
ATOM     46  C   UNL     1       1.874   0.670  27.315  0.00  0.00    +0.178 C 
BRANCH  46  47
ATOM     47  O   UNL     1       0.566   0.513  27.878  0.00  0.00    -0.386 OA
ATOM     48  H   UNL     1       0.458   1.219  28.543  0.00  0.00    +0.210 HD
ENDBRANCH  46  47
BRANCH  45  49
ATOM     49  O   UNL     1       1.635   3.042  27.591  0.00  0.00    -0.386 OA
ATOM     50  H   UNL     1       1.502   3.511  28.451  0.00  0.00    +0.210 HD
ENDBRANCH  45  49
BRANCH  44  51
ATOM     51  O   UNL     1       4.443   3.295  28.117  0.00  0.00    -0.384 OA
ATOM     52  H   UNL     1       5.412   3.296  27.945  0.00  0.00    +0.210 HD
ENDBRANCH  44  51
BRANCH  41  53
ATOM     53  C   UNL     1       2.285  -1.778  26.893  0.00  0.00    +0.266 C 
BRANCH  53  54
ATOM     54  O   UNL     1       3.129  -2.145  25.791  0.00  0.00    -0.459 OA
BRANCH  54  55
ATOM     55  C   UNL     1       3.033  -3.467  25.498  0.00  0.00    +0.332 C 
ATOM     56  O   UNL     1       1.989  -4.089  25.416  0.00  0.00    -0.246 OA
BRANCH  55  58
ATOM     57  C   UNL     1       5.398  -3.514  25.837  0.00  0.00    +0.015 C 
ATOM     58  C   UNL     1       4.353  -4.015  25.157  0.00  0.00    +0.092 C 
BRANCH  57  61
ATOM     59  C   UNL     1       8.986  -3.698  24.674  0.00  0.00    +0.162 A 
ATOM     60  C   UNL     1       7.685  -3.214  24.867  0.00  0.00    +0.057 A 
ATOM     61  C   UNL     1       6.803  -3.915  25.702  0.00  0.00    -0.021 A 
ATOM     62  C   UNL     1       7.214  -5.091  26.332  0.00  0.00    +0.012 A 
ATOM     63  C   UNL     1       8.527  -5.558  26.178  0.00  0.00    +0.050 A 
ATOM     64  C   UNL     1       9.394  -4.856  25.350  0.00  0.00    +0.158 A 
BRANCH  64  65
ATOM     65  O   UNL     1      10.663  -5.346  25.195  0.00  0.00    -0.503 OA
ATOM     66  H   UNL     1      10.857  -5.823  26.013  0.00  0.00    +0.292 HD
ENDBRANCH  64  65
BRANCH  59  68
ATOM     67  C   UNL     1       9.569  -1.824  23.371  0.00  0.00    +0.277 C 
ATOM     68  O   UNL     1       9.931  -3.113  23.868  0.00  0.00    -0.491 OA
ENDBRANCH  59  68
ENDBRANCH  57  61
ENDBRANCH  55  58
ENDBRANCH  54  55
ENDBRANCH  53  54
ENDBRANCH  41  53
ENDBRANCH  40  43
ENDBRANCH   1  40
TORSDOF 23
ENDMDL
MODEL 5
REMARK VINA RESULT:      -6.6      2.933      8.901
REMARK  Name = 
REMARK  24 active torsions:
REMARK  status: ('A' for Active; 'I' for Inactive)
REMARK    1  A    between atoms: C_1  and  O_2
REMARK    2  A    between atoms: O_2  and  C_3
REMARK    3  A    between atoms: C_4  and  O_67
REMARK    4  A    between atoms: C_7  and  C_9
REMARK    5  A    between atoms: C_10  and  C_11
REMARK    6  A    between atoms: C_11  and  O_13
REMARK    7  A    between atoms: O_13  and  C_14
REMARK    8  A    between atoms: C_14  and  C_15
REMARK    9  A    between atoms: C_17  and  O_66
REMARK   10  A    between atoms: C_19  and  O_65
REMARK   11  A    between atoms: C_21  and  O_64
REMARK   12  A    between atoms: C_23  and  O_26
REMARK   13  A    between atoms: O_26  and  C_27
REMARK   14  A    between atoms: C_29  and  O_63
REMARK   15  A    between atoms: C_31  and  O_62
REMARK   16  A    between atoms: C_33  and  C_60
REMARK   17  A    between atoms: C_36  and  O_38
REMARK   18  A    between atoms: O_38  and  C_39
REMARK   19  A    between atoms: C_40  and  C_52
REMARK   20  A    between atoms: C_44  and  O_51
REMARK   21  A    between atoms: C_46  and  O_50
REMARK   22  A    between atoms: C_54  and  O_59
REMARK   23  A    between atoms: C_55  and  O_58
REMARK   24  A    between atoms: C_60  and  O_61
REMARK                            x       y       z     vdW  Elec       q    Type
REMARK                         _______ _______ _______ _____ _____    ______ ____
ROOT
ATOM      1  C   UNL     1       7.484  -2.131  23.987  0.00  0.00    +0.221 C 
ATOM      2  C   UNL     1       6.010  -2.164  23.360  0.00  0.00    +0.340 C 
ATOM      3  O   UNL     1       5.601  -3.324  22.613  0.00  0.00    -0.331 OA
ATOM      4  C   UNL     1       6.545  -4.138  21.900  0.00  0.00    +0.179 C 
ATOM      5  C   UNL     1       7.892  -4.405  22.626  0.00  0.00    +0.177 C 
ATOM      6  C   UNL     1       8.464  -3.075  23.200  0.00  0.00    +0.180 C 
ENDROOT
BRANCH   6   7
ATOM      7  O   UNL     1       9.658  -3.371  23.955  0.00  0.00    -0.386 OA
ATOM      8  H   UNL     1       9.542  -3.051  24.870  0.00  0.00    +0.210 HD
ENDBRANCH   6   7
BRANCH   5   9
ATOM      9  O   UNL     1       7.875  -5.479  23.596  0.00  0.00    -0.386 OA
ATOM     10  H   UNL     1       8.758  -5.907  23.525  0.00  0.00    +0.210 HD
ENDBRANCH   5   9
BRANCH   4  11
ATOM     11  C   UNL     1       5.811  -5.454  21.513  0.00  0.00    +0.190 C 
BRANCH  11  12
ATOM     12  O   UNL     1       4.750  -5.753  22.415  0.00  0.00    -0.392 OA
ATOM     13  H   UNL     1       4.427  -6.645  22.193  0.00  0.00    +0.210 HD
ENDBRANCH  11  12
ENDBRANCH   4  11
BRANCH   2  14
ATOM     14  O   UNL     1       4.923  -1.871  24.370  0.00  0.00    -0.453 OA
BRANCH  14  15
ATOM     15  C   UNL     1       5.025  -2.500  25.614  0.00  0.00    +0.214 A 
ATOM     16  C   UNL     1       4.825  -3.925  25.667  0.00  0.00    +0.238 A 
ATOM     17  O   UNL     1       3.773  -4.398  25.241  0.00  0.00    -0.283 OA
ATOM     18  C   UNL     1       5.481  -4.811  26.555  0.00  0.00    +0.109 A 
ATOM     19  C   UNL     1       5.151  -4.346  27.819  0.00  0.00    +0.147 A 
ATOM     20  C   UNL     1       4.712  -5.302  28.732  0.00  0.00    +0.092 A 
ATOM     21  C   UNL     1       4.568  -6.660  28.331  0.00  0.00    +0.124 A 
ATOM     22  C   UNL     1       4.929  -7.108  27.058  0.00  0.00    +0.091 A 
ATOM     23  O   UNL     1       4.949  -2.975  28.023  0.00  0.00    -0.451 OA
ATOM     24  C   UNL     1       5.444  -6.176  26.185  0.00  0.00    +0.135 A 
ATOM     25  C   UNL     1       4.903  -2.037  26.898  0.00  0.00    +0.181 A 
BRANCH  25  26
ATOM     26  C   UNL     1       4.534  -0.627  27.339  0.00  0.00    +0.025 A 
ATOM     27  C   UNL     1       5.075   0.045  28.457  0.00  0.00    +0.015 A 
ATOM     28  C   UNL     1       4.736   1.385  28.786  0.00  0.00    +0.050 A 
ATOM     29  C   UNL     1       3.884   2.101  27.967  0.00  0.00    +0.158 A 
ATOM     30  C   UNL     1       3.367   1.485  26.842  0.00  0.00    +0.159 A 
ATOM     31  C   UNL     1       3.655   0.146  26.545  0.00  0.00    +0.060 A 
BRANCH  30  32
ATOM     32  O   UNL     1       2.598   2.267  26.007  0.00  0.00    -0.503 OA
ATOM     33  H   UNL     1       2.757   3.189  26.259  0.00  0.00    +0.292 HD
ENDBRANCH  30  32
BRANCH  29  34
ATOM     34  O   UNL     1       3.582   3.402  28.242  0.00  0.00    -0.503 OA
ATOM     35  H   UNL     1       2.609   3.414  28.356  0.00  0.00    +0.292 HD
ENDBRANCH  29  34
ENDBRANCH  25  26
BRANCH  24  36
ATOM     36  O   UNL     1       5.604  -6.550  24.872  0.00  0.00    -0.506 OA
ATOM     37  H   UNL     1       5.983  -7.467  24.865  0.00  0.00    +0.292 HD
ENDBRANCH  24  36
BRANCH  21  38
ATOM     38  O   UNL     1       3.993  -7.599  29.125  0.00  0.00    -0.507 OA
ATOM     39  H   UNL     1       3.479  -8.217  28.591  0.00  0.00    +0.292 HD
ENDBRANCH  21  38
ENDBRANCH  14  15
ENDBRANCH   2  14
BRANCH   1  40
ATOM     40  O   UNL     1       8.116  -0.790  24.162  0.00  0.00    -0.337 OA
BRANCH  40  43
ATOM     41  C   UNL     1       5.820   1.970  24.215  0.00  0.00    +0.190 C 
ATOM     42  O   UNL     1       6.795   1.025  23.792  0.00  0.00    -0.339 OA
ATOM     43  C   UNL     1       7.296   0.192  24.837  0.00  0.00    +0.282 C 
ATOM     44  C   UNL     1       8.008   1.122  25.903  0.00  0.00    +0.201 C 
ATOM     45  C   UNL     1       7.003   2.200  26.382  0.00  0.00    +0.179 C 
ATOM     46  C   UNL     1       6.411   2.971  25.212  0.00  0.00    +0.178 C 
BRANCH  46  47
ATOM     47  O   UNL     1       5.441   3.886  25.740  0.00  0.00    -0.386 OA
ATOM     48  H   UNL     1       4.611   3.385  25.850  0.00  0.00    +0.210 HD
ENDBRANCH  46  47
BRANCH  45  49
ATOM     49  O   UNL     1       7.611   3.154  27.283  0.00  0.00    -0.386 OA
ATOM     50  H   UNL     1       7.129   3.027  28.137  0.00  0.00    +0.210 HD
ENDBRANCH  45  49
BRANCH  44  51
ATOM     51  O   UNL     1       8.442   0.416  27.077  0.00  0.00    -0.384 OA
ATOM     52  H   UNL     1       8.941  -0.360  26.737  0.00  0.00    +0.210 HD
ENDBRANCH  44  51
BRANCH  41  53
ATOM     53  C   UNL     1       5.327   2.698  22.956  0.00  0.00    +0.266 C 
BRANCH  53  54
ATOM     54  O   UNL     1       6.426   3.152  22.150  0.00  0.00    -0.459 OA
BRANCH  54  55
ATOM     55  C   UNL     1       6.657   4.480  22.311  0.00  0.00    +0.332 C 
ATOM     56  O   UNL     1       5.805   5.348  22.250  0.00  0.00    -0.246 OA
BRANCH  55  58
ATOM     57  C   UNL     1       8.258   5.697  23.601  0.00  0.00    +0.015 C 
ATOM     58  C   UNL     1       8.052   4.714  22.708  0.00  0.00    +0.092 C 
BRANCH  57  61
ATOM     59  C   UNL     1      11.970   6.042  24.213  0.00  0.00    +0.162 A 
ATOM     60  C   UNL     1      10.761   5.736  23.573  0.00  0.00    +0.057 A 
ATOM     61  C   UNL     1       9.548   6.102  24.173  0.00  0.00    -0.021 A 
ATOM     62  C   UNL     1       9.541   6.760  25.405  0.00  0.00    +0.012 A 
ATOM     63  C   UNL     1      10.747   7.107  26.031  0.00  0.00    +0.050 A 
ATOM     64  C   UNL     1      11.944   6.742  25.427  0.00  0.00    +0.158 A 
BRANCH  64  65
ATOM     65  O   UNL     1      13.107   7.069  26.070  0.00  0.00    -0.503 OA
ATOM     66  H   UNL     1      13.782   7.107  25.379  0.00  0.00    +0.292 HD
ENDBRANCH  64  65
BRANCH  59  68
ATOM     67  C   UNL     1      13.293   5.601  22.315  0.00  0.00    +0.277 C 
ATOM     68  O   UNL     1      13.216   5.719  23.737  0.00  0.00    -0.491 OA
ENDBRANCH  59  68
ENDBRANCH  57  61
ENDBRANCH  55  58
ENDBRANCH  54  55
ENDBRANCH  53  54
ENDBRANCH  41  53
ENDBRANCH  40  43
ENDBRANCH   1  40
TORSDOF 23
ENDMDL
MODEL 6
REMARK VINA RESULT:      -6.5      2.590      6.974
REMARK  Name = 
REMARK  24 active torsions:
REMARK  status: ('A' for Active; 'I' for Inactive)
REMARK    1  A    between atoms: C_1  and  O_2
REMARK    2  A    between atoms: O_2  and  C_3
REMARK    3  A    between atoms: C_4  and  O_67
REMARK    4  A    between atoms: C_7  and  C_9
REMARK    5  A    between atoms: C_10  and  C_11
REMARK    6  A    between atoms: C_11  and  O_13
REMARK    7  A    between atoms: O_13  and  C_14
REMARK    8  A    between atoms: C_14  and  C_15
REMARK    9  A    between atoms: C_17  and  O_66
REMARK   10  A    between atoms: C_19  and  O_65
REMARK   11  A    between atoms: C_21  and  O_64
REMARK   12  A    between atoms: C_23  and  O_26
REMARK   13  A    between atoms: O_26  and  C_27
REMARK   14  A    between atoms: C_29  and  O_63
REMARK   15  A    between atoms: C_31  and  O_62
REMARK   16  A    between atoms: C_33  and  C_60
REMARK   17  A    between atoms: C_36  and  O_38
REMARK   18  A    between atoms: O_38  and  C_39
REMARK   19  A    between atoms: C_40  and  C_52
REMARK   20  A    between atoms: C_44  and  O_51
REMARK   21  A    between atoms: C_46  and  O_50
REMARK   22  A    between atoms: C_54  and  O_59
REMARK   23  A    between atoms: C_55  and  O_58
REMARK   24  A    between atoms: C_60  and  O_61
REMARK                            x       y       z     vdW  Elec       q    Type
REMARK                         _______ _______ _______ _____ _____    ______ ____
ROOT
ATOM      1  C   UNL     1       7.059   0.344  25.605  0.00  0.00    +0.221 C 
ATOM      2  C   UNL     1       7.993   1.644  25.538  0.00  0.00    +0.340 C 
ATOM      3  O   UNL     1       8.497   2.069  24.258  0.00  0.00    -0.331 OA
ATOM      4  C   UNL     1       8.730   1.140  23.189  0.00  0.00    +0.179 C 
ATOM      5  C   UNL     1       7.658   0.029  23.011  0.00  0.00    +0.177 C 
ATOM      6  C   UNL     1       7.321  -0.615  24.388  0.00  0.00    +0.180 C 
ENDROOT
BRANCH   6   7
ATOM      7  O   UNL     1       6.250  -1.567  24.205  0.00  0.00    -0.386 OA
ATOM      8  H   UNL     1       6.634  -2.456  24.083  0.00  0.00    +0.210 HD
ENDBRANCH   6   7
BRANCH   5   9
ATOM      9  O   UNL     1       6.481   0.414  22.263  0.00  0.00    -0.386 OA
ATOM     10  H   UNL     1       5.807   0.647  22.941  0.00  0.00    +0.210 HD
ENDBRANCH   5   9
BRANCH   4  11
ATOM     11  C   UNL     1       8.935   1.976  21.893  0.00  0.00    +0.190 C 
BRANCH  11  12
ATOM     12  O   UNL     1      10.314   2.214  21.631  0.00  0.00    -0.392 OA
ATOM     13  H   UNL     1      10.775   1.361  21.721  0.00  0.00    +0.210 HD
ENDBRANCH  11  12
ENDBRANCH   4  11
BRANCH   2  14
ATOM     14  O   UNL     1       7.382   2.856  26.207  0.00  0.00    -0.453 OA
BRANCH  14  15
ATOM     15  C   UNL     1       6.759   3.794  25.378  0.00  0.00    +0.214 A 
ATOM     16  C   UNL     1       5.544   3.402  24.712  0.00  0.00    +0.238 A 
ATOM     17  O   UNL     1       5.550   2.406  23.991  0.00  0.00    -0.283 OA
ATOM     18  C   UNL     1       4.461   4.262  24.414  0.00  0.00    +0.109 A 
ATOM     19  C   UNL     1       5.012   5.255  23.619  0.00  0.00    +0.147 A 
ATOM     20  C   UNL     1       4.318   5.567  22.452  0.00  0.00    +0.092 A 
ATOM     21  C   UNL     1       3.143   4.843  22.104  0.00  0.00    +0.124 A 
ATOM     22  C   UNL     1       2.593   3.863  22.934  0.00  0.00    +0.091 A 
ATOM     23  O   UNL     1       6.343   5.645  23.818  0.00  0.00    -0.451 OA
ATOM     24  C   UNL     1       3.235   3.616  24.128  0.00  0.00    +0.135 A 
ATOM     25  C   UNL     1       7.223   4.907  24.728  0.00  0.00    +0.181 A 
BRANCH  25  26
ATOM     26  C   UNL     1       8.656   5.418  24.683  0.00  0.00    +0.025 A 
ATOM     27  C   UNL     1       9.225   6.334  25.595  0.00  0.00    +0.015 A 
ATOM     28  C   UNL     1      10.588   6.730  25.539  0.00  0.00    +0.050 A 
ATOM     29  C   UNL     1      11.428   6.174  24.594  0.00  0.00    +0.158 A 
ATOM     30  C   UNL     1      10.913   5.244  23.708  0.00  0.00    +0.159 A 
ATOM     31  C   UNL     1       9.556   4.894  23.726  0.00  0.00    +0.060 A 
BRANCH  30  32
ATOM     32  O   UNL     1      11.808   4.649  22.846  0.00  0.00    -0.503 OA
ATOM     33  H   UNL     1      11.469   3.761  22.656  0.00  0.00    +0.292 HD
ENDBRANCH  30  32
BRANCH  29  34
ATOM     34  O   UNL     1      12.750   6.508  24.551  0.00  0.00    -0.503 OA
ATOM     35  H   UNL     1      12.878   7.117  25.308  0.00  0.00    +0.292 HD
ENDBRANCH  29  34
ENDBRANCH  25  26
BRANCH  24  36
ATOM     36  O   UNL     1       2.836   2.519  24.853  0.00  0.00    -0.506 OA
ATOM     37  H   UNL     1       3.633   2.163  25.323  0.00  0.00    +0.292 HD
ENDBRANCH  24  36
BRANCH  21  38
ATOM     38  O   UNL     1       2.520   4.991  20.907  0.00  0.00    -0.507 OA
ATOM     39  H   UNL     1       1.638   4.603  20.941  0.00  0.00    +0.292 HD
ENDBRANCH  21  38
ENDBRANCH  14  15
ENDBRANCH   2  14
BRANCH   1  40
ATOM     40  O   UNL     1       7.083  -0.442  26.874  0.00  0.00    -0.337 OA
BRANCH  40  43
ATOM     41  C   UNL     1       4.439  -2.439  28.259  0.00  0.00    +0.190 C 
ATOM     42  O   UNL     1       5.582  -2.025  27.519  0.00  0.00    -0.339 OA
ATOM     43  C   UNL     1       5.797  -0.615  27.514  0.00  0.00    +0.282 C 
ATOM     44  C   UNL     1       4.545   0.068  26.823  0.00  0.00    +0.201 C 
ATOM     45  C   UNL     1       3.259  -0.372  27.567  0.00  0.00    +0.179 C 
ATOM     46  C   UNL     1       3.149  -1.887  27.646  0.00  0.00    +0.178 C 
BRANCH  46  47
ATOM     47  O   UNL     1       1.978  -2.199  28.413  0.00  0.00    -0.386 OA
ATOM     48  H   UNL     1       1.477  -2.865  27.905  0.00  0.00    +0.210 HD
ENDBRANCH  46  47
BRANCH  45  49
ATOM     49  O   UNL     1       2.060   0.129  26.930  0.00  0.00    -0.386 OA
ATOM     50  H   UNL     1       1.343  -0.038  27.589  0.00  0.00    +0.210 HD
ENDBRANCH  45  49
BRANCH  44  51
ATOM     51  O   UNL     1       4.578   1.503  26.873  0.00  0.00    -0.384 OA
ATOM     52  H   UNL     1       5.320   1.762  26.282  0.00  0.00    +0.210 HD
ENDBRANCH  44  51
BRANCH  41  53
ATOM     53  C   UNL     1       4.426  -3.974  28.239  0.00  0.00    +0.266 C 
BRANCH  53  54
ATOM     54  O   UNL     1       5.492  -4.517  29.033  0.00  0.00    -0.459 OA
BRANCH  54  55
ATOM     55  C   UNL     1       6.097  -5.565  28.420  0.00  0.00    +0.332 C 
ATOM     56  O   UNL     1       6.829  -6.369  28.971  0.00  0.00    -0.246 OA
BRANCH  55  58
ATOM     57  C   UNL     1       6.496  -5.257  26.084  0.00  0.00    +0.015 C 
ATOM     58  C   UNL     1       5.639  -5.681  27.029  0.00  0.00    +0.092 C 
BRANCH  57  61
ATOM     59  C   UNL     1       4.890  -5.707  22.696  0.00  0.00    +0.162 A 
ATOM     60  C   UNL     1       5.024  -5.564  24.083  0.00  0.00    +0.057 A 
ATOM     61  C   UNL     1       6.286  -5.293  24.632  0.00  0.00    -0.021 A 
ATOM     62  C   UNL     1       7.404  -5.175  23.805  0.00  0.00    +0.012 A 
ATOM     63  C   UNL     1       7.270  -5.274  22.412  0.00  0.00    +0.050 A 
ATOM     64  C   UNL     1       6.016  -5.541  21.877  0.00  0.00    +0.158 A 
BRANCH  64  65
ATOM     65  O   UNL     1       5.915  -5.659  20.518  0.00  0.00    -0.503 OA
ATOM     66  H   UNL     1       6.814  -5.544  20.181  0.00  0.00    +0.292 HD
ENDBRANCH  64  65
BRANCH  59  68
ATOM     67  C   UNL     1       2.606  -6.245  22.908  0.00  0.00    +0.277 C 
ATOM     68  O   UNL     1       3.715  -5.991  22.044  0.00  0.00    -0.491 OA
ENDBRANCH  59  68
ENDBRANCH  57  61
ENDBRANCH  55  58
ENDBRANCH  54  55
ENDBRANCH  53  54
ENDBRANCH  41  53
ENDBRANCH  40  43
ENDBRANCH   1  40
TORSDOF 23
ENDMDL
MODEL 7
REMARK VINA RESULT:      -6.5      2.497      7.890
REMARK  Name = 
REMARK  24 active torsions:
REMARK  status: ('A' for Active; 'I' for Inactive)
REMARK    1  A    between atoms: C_1  and  O_2
REMARK    2  A    between atoms: O_2  and  C_3
REMARK    3  A    between atoms: C_4  and  O_67
REMARK    4  A    between atoms: C_7  and  C_9
REMARK    5  A    between atoms: C_10  and  C_11
REMARK    6  A    between atoms: C_11  and  O_13
REMARK    7  A    between atoms: O_13  and  C_14
REMARK    8  A    between atoms: C_14  and  C_15
REMARK    9  A    between atoms: C_17  and  O_66
REMARK   10  A    between atoms: C_19  and  O_65
REMARK   11  A    between atoms: C_21  and  O_64
REMARK   12  A    between atoms: C_23  and  O_26
REMARK   13  A    between atoms: O_26  and  C_27
REMARK   14  A    between atoms: C_29  and  O_63
REMARK   15  A    between atoms: C_31  and  O_62
REMARK   16  A    between atoms: C_33  and  C_60
REMARK   17  A    between atoms: C_36  and  O_38
REMARK   18  A    between atoms: O_38  and  C_39
REMARK   19  A    between atoms: C_40  and  C_52
REMARK   20  A    between atoms: C_44  and  O_51
REMARK   21  A    between atoms: C_46  and  O_50
REMARK   22  A    between atoms: C_54  and  O_59
REMARK   23  A    between atoms: C_55  and  O_58
REMARK   24  A    between atoms: C_60  and  O_61
REMARK                            x       y       z     vdW  Elec       q    Type
REMARK                         _______ _______ _______ _____ _____    ______ ____
ROOT
ATOM      1  C   UNL     1       5.171  -1.618  26.266  0.00  0.00    +0.221 C 
ATOM      2  C   UNL     1       6.538  -2.247  26.816  0.00  0.00    +0.340 C 
ATOM      3  O   UNL     1       6.504  -3.548  27.431  0.00  0.00    -0.331 OA
ATOM      4  C   UNL     1       5.336  -4.035  28.108  0.00  0.00    +0.179 C 
ATOM      5  C   UNL     1       3.976  -3.720  27.425  0.00  0.00    +0.177 C 
ATOM      6  C   UNL     1       3.923  -2.221  27.006  0.00  0.00    +0.180 C 
ENDROOT
BRANCH   6   7
ATOM      7  O   UNL     1       2.695  -1.984  26.284  0.00  0.00    -0.386 OA
ATOM      8  H   UNL     1       2.104  -1.435  26.834  0.00  0.00    +0.210 HD
ENDBRANCH   6   7
BRANCH   5   9
ATOM      9  O   UNL     1       3.591  -4.619  26.359  0.00  0.00    -0.386 OA
ATOM     10  H   UNL     1       2.884  -4.146  25.863  0.00  0.00    +0.210 HD
ENDBRANCH   5   9
BRANCH   4  11
ATOM     11  C   UNL     1       5.543  -5.561  28.335  0.00  0.00    +0.190 C 
BRANCH  11  12
ATOM     12  O   UNL     1       6.003  -6.213  27.155  0.00  0.00    -0.392 OA
ATOM     13  H   UNL     1       5.978  -7.171  27.329  0.00  0.00    +0.210 HD
ENDBRANCH  11  12
ENDBRANCH   4  11
BRANCH   2  14
ATOM     14  O   UNL     1       7.647  -2.264  25.787  0.00  0.00    -0.453 OA
BRANCH  14  15
ATOM     15  C   UNL     1       7.275  -2.459  24.454  0.00  0.00    +0.214 A 
ATOM     16  C   UNL     1       6.904  -3.789  24.047  0.00  0.00    +0.238 A 
ATOM     17  O   UNL     1       7.701  -4.710  24.214  0.00  0.00    -0.283 OA
ATOM     18  C   UNL     1       5.932  -4.104  23.068  0.00  0.00    +0.109 A 
ATOM     19  C   UNL     1       6.382  -3.477  21.915  0.00  0.00    +0.147 A 
ATOM     20  C   UNL     1       6.390  -4.251  20.757  0.00  0.00    +0.092 A 
ATOM     21  C   UNL     1       6.007  -5.621  20.809  0.00  0.00    +0.124 A 
ATOM     22  C   UNL     1       5.534  -6.223  21.978  0.00  0.00    +0.091 A 
ATOM     23  O   UNL     1       7.094  -2.275  22.011  0.00  0.00    -0.451 OA
ATOM     24  C   UNL     1       5.446  -5.432  23.102  0.00  0.00    +0.135 A 
ATOM     25  C   UNL     1       7.532  -1.753  23.308  0.00  0.00    +0.181 A 
BRANCH  25  26
ATOM     26  C   UNL     1       8.407  -0.515  23.165  0.00  0.00    +0.025 A 
ATOM     27  C   UNL     1       9.097  -0.136  21.992  0.00  0.00    +0.015 A 
ATOM     28  C   UNL     1       9.852   1.063  21.899  0.00  0.00    +0.050 A 
ATOM     29  C   UNL     1       9.890   1.938  22.967  0.00  0.00    +0.158 A 
ATOM     30  C   UNL     1       9.194   1.617  24.118  0.00  0.00    +0.159 A 
ATOM     31  C   UNL     1       8.494   0.408  24.233  0.00  0.00    +0.060 A 
BRANCH  30  32
ATOM     32  O   UNL     1       9.184   2.562  25.120  0.00  0.00    -0.503 OA
ATOM     33  H   UNL     1       8.255   2.763  25.310  0.00  0.00    +0.292 HD
ENDBRANCH  30  32
BRANCH  29  34
ATOM     34  O   UNL     1      10.574   3.116  22.881  0.00  0.00    -0.503 OA
ATOM     35  H   UNL     1       9.981   3.780  23.290  0.00  0.00    +0.292 HD
ENDBRANCH  29  34
ENDBRANCH  25  26
BRANCH  24  36
ATOM     36  O   UNL     1       5.189  -6.053  24.301  0.00  0.00    -0.506 OA
ATOM     37  H   UNL     1       5.692  -5.568  25.005  0.00  0.00    +0.292 HD
ENDBRANCH  24  36
BRANCH  21  38
ATOM     38  O   UNL     1       6.149  -6.461  19.752  0.00  0.00    -0.507 OA
ATOM     39  H   UNL     1       5.753  -6.073  18.963  0.00  0.00    +0.292 HD
ENDBRANCH  21  38
ENDBRANCH  14  15
ENDBRANCH   2  14
BRANCH   1  40
ATOM     40  O   UNL     1       5.070  -0.129  26.247  0.00  0.00    -0.337 OA
BRANCH  40  43
ATOM     41  C   UNL     1       4.163   2.110  28.903  0.00  0.00    +0.190 C 
ATOM     42  O   UNL     1       4.236   1.468  27.636  0.00  0.00    -0.339 OA
ATOM     43  C   UNL     1       5.294   0.518  27.521  0.00  0.00    +0.282 C 
ATOM     44  C   UNL     1       6.665   1.289  27.711  0.00  0.00    +0.201 C 
ATOM     45  C   UNL     1       6.635   2.041  29.066  0.00  0.00    +0.179 C 
ATOM     46  C   UNL     1       5.417   2.945  29.178  0.00  0.00    +0.178 C 
BRANCH  46  47
ATOM     47  O   UNL     1       5.431   3.535  30.484  0.00  0.00    -0.386 OA
ATOM     48  H   UNL     1       5.534   4.497  30.358  0.00  0.00    +0.210 HD
ENDBRANCH  46  47
BRANCH  45  49
ATOM     49  O   UNL     1       7.814   2.855  29.267  0.00  0.00    -0.386 OA
ATOM     50  H   UNL     1       8.554   2.203  29.338  0.00  0.00    +0.210 HD
ENDBRANCH  45  49
BRANCH  44  51
ATOM     51  O   UNL     1       7.809   0.420  27.749  0.00  0.00    -0.384 OA
ATOM     52  H   UNL     1       7.754  -0.108  26.921  0.00  0.00    +0.210 HD
ENDBRANCH  44  51
BRANCH  41  53
ATOM     53  C   UNL     1       2.918   3.010  28.877  0.00  0.00    +0.266 C 
BRANCH  53  54
ATOM     54  O   UNL     1       3.232   4.324  28.391  0.00  0.00    -0.459 OA
BRANCH  54  55
ATOM     55  C   UNL     1       2.511   4.641  27.286  0.00  0.00    +0.332 C 
ATOM     56  O   UNL     1       1.303   4.522  27.184  0.00  0.00    -0.246 OA
BRANCH  55  58
ATOM     57  C   UNL     1       4.270   4.481  25.676  0.00  0.00    +0.015 C 
ATOM     58  C   UNL     1       3.370   5.277  26.278  0.00  0.00    +0.092 C 
BRANCH  57  61
ATOM     59  C   UNL     1       7.469   5.272  23.831  0.00  0.00    +0.162 A 
ATOM     60  C   UNL     1       6.601   4.782  24.816  0.00  0.00    +0.057 A 
ATOM     61  C   UNL     1       5.215   4.869  24.622  0.00  0.00    -0.021 A 
ATOM     62  C   UNL     1       4.700   5.448  23.460  0.00  0.00    +0.012 A 
ATOM     63  C   UNL     1       5.563   5.901  22.451  0.00  0.00    +0.050 A 
ATOM     64  C   UNL     1       6.934   5.809  22.652  0.00  0.00    +0.158 A 
BRANCH  64  65
ATOM     65  O   UNL     1       7.755   6.281  21.664  0.00  0.00    -0.503 OA
ATOM     66  H   UNL     1       7.869   5.545  21.048  0.00  0.00    +0.292 HD
ENDBRANCH  64  65
BRANCH  59  68
ATOM     67  C   UNL     1       9.372   6.004  25.011  0.00  0.00    +0.277 C 
ATOM     68  O   UNL     1       8.839   5.260  23.914  0.00  0.00    -0.491 OA
ENDBRANCH  59  68
ENDBRANCH  57  61
ENDBRANCH  55  58
ENDBRANCH  54  55
ENDBRANCH  53  54
ENDBRANCH  41  53
ENDBRANCH  40  43
ENDBRANCH   1  40
TORSDOF 23
ENDMDL
MODEL 8
REMARK VINA RESULT:      -6.4      2.326      8.766
REMARK  Name = 
REMARK  24 active torsions:
REMARK  status: ('A' for Active; 'I' for Inactive)
REMARK    1  A    between atoms: C_1  and  O_2
REMARK    2  A    between atoms: O_2  and  C_3
REMARK    3  A    between atoms: C_4  and  O_67
REMARK    4  A    between atoms: C_7  and  C_9
REMARK    5  A    between atoms: C_10  and  C_11
REMARK    6  A    between atoms: C_11  and  O_13
REMARK    7  A    between atoms: O_13  and  C_14
REMARK    8  A    between atoms: C_14  and  C_15
REMARK    9  A    between atoms: C_17  and  O_66
REMARK   10  A    between atoms: C_19  and  O_65
REMARK   11  A    between atoms: C_21  and  O_64
REMARK   12  A    between atoms: C_23  and  O_26
REMARK   13  A    between atoms: O_26  and  C_27
REMARK   14  A    between atoms: C_29  and  O_63
REMARK   15  A    between atoms: C_31  and  O_62
REMARK   16  A    between atoms: C_33  and  C_60
REMARK   17  A    between atoms: C_36  and  O_38
REMARK   18  A    between atoms: O_38  and  C_39
REMARK   19  A    between atoms: C_40  and  C_52
REMARK   20  A    between atoms: C_44  and  O_51
REMARK   21  A    between atoms: C_46  and  O_50
REMARK   22  A    between atoms: C_54  and  O_59
REMARK   23  A    between atoms: C_55  and  O_58
REMARK   24  A    between atoms: C_60  and  O_61
REMARK                            x       y       z     vdW  Elec       q    Type
REMARK                         _______ _______ _______ _____ _____    ______ ____
ROOT
ATOM      1  C   UNL     1       7.057  -0.931  24.946  0.00  0.00    +0.221 C 
ATOM      2  C   UNL     1       6.444  -2.024  23.947  0.00  0.00    +0.340 C 
ATOM      3  O   UNL     1       7.040  -3.334  23.905  0.00  0.00    -0.331 OA
ATOM      4  C   UNL     1       8.428  -3.545  24.204  0.00  0.00    +0.179 C 
ATOM      5  C   UNL     1       8.995  -2.727  25.398  0.00  0.00    +0.177 C 
ATOM      6  C   UNL     1       8.563  -1.236  25.278  0.00  0.00    +0.180 C 
ENDROOT
BRANCH   6   7
ATOM      7  O   UNL     1       9.015  -0.526  26.452  0.00  0.00    -0.386 OA
ATOM      8  H   UNL     1       9.625  -1.100  26.954  0.00  0.00    +0.210 HD
ENDBRANCH   6   7
BRANCH   5   9
ATOM      9  O   UNL     1       8.748  -3.285  26.709  0.00  0.00    -0.386 OA
ATOM     10  H   UNL     1       8.747  -4.261  26.581  0.00  0.00    +0.210 HD
ENDBRANCH   5   9
BRANCH   4  11
ATOM     11  C   UNL     1       8.627  -5.077  24.391  0.00  0.00    +0.190 C 
BRANCH  11  12
ATOM     12  O   UNL     1       9.942  -5.388  24.839  0.00  0.00    -0.392 OA
ATOM     13  H   UNL     1      10.099  -6.328  24.639  0.00  0.00    +0.210 HD
ENDBRANCH  11  12
ENDBRANCH   4  11
BRANCH   2  14
ATOM     14  O   UNL     1       4.952  -2.212  24.107  0.00  0.00    -0.453 OA
BRANCH  14  15
ATOM     15  C   UNL     1       4.526  -3.109  25.090  0.00  0.00    +0.214 A 
ATOM     16  C   UNL     1       4.077  -4.410  24.666  0.00  0.00    +0.238 A 
ATOM     17  O   UNL     1       3.161  -4.490  23.850  0.00  0.00    -0.283 OA
ATOM     18  C   UNL     1       4.238  -5.611  25.398  0.00  0.00    +0.109 A 
ATOM     19  C   UNL     1       3.594  -5.374  26.603  0.00  0.00    +0.147 A 
ATOM     20  C   UNL     1       2.719  -6.366  27.039  0.00  0.00    +0.092 A 
ATOM     21  C   UNL     1       2.483  -7.516  26.234  0.00  0.00    +0.124 A 
ATOM     22  C   UNL     1       3.163  -7.743  25.034  0.00  0.00    +0.091 A 
ATOM     23  O   UNL     1       3.576  -4.080  27.138  0.00  0.00    -0.451 OA
ATOM     24  C   UNL     1       4.091  -6.801  24.648  0.00  0.00    +0.135 A 
ATOM     25  C   UNL     1       4.068  -2.933  26.370  0.00  0.00    +0.181 A 
BRANCH  25  26
ATOM     26  C   UNL     1       3.823  -1.612  27.087  0.00  0.00    +0.025 A 
ATOM     27  C   UNL     1       2.591  -0.923  27.129  0.00  0.00    +0.015 A 
ATOM     28  C   UNL     1       2.406   0.278  27.865  0.00  0.00    +0.050 A 
ATOM     29  C   UNL     1       3.444   0.789  28.620  0.00  0.00    +0.158 A 
ATOM     30  C   UNL     1       4.654   0.118  28.632  0.00  0.00    +0.159 A 
ATOM     31  C   UNL     1       4.856  -1.036  27.863  0.00  0.00    +0.060 A 
BRANCH  30  32
ATOM     32  O   UNL     1       5.627   0.613  29.472  0.00  0.00    -0.503 OA
ATOM     33  H   UNL     1       5.546   1.579  29.460  0.00  0.00    +0.292 HD
ENDBRANCH  30  32
BRANCH  29  34
ATOM     34  O   UNL     1       3.273   1.917  29.368  0.00  0.00    -0.503 OA
ATOM     35  H   UNL     1       2.643   2.464  28.855  0.00  0.00    +0.292 HD
ENDBRANCH  29  34
ENDBRANCH  25  26
BRANCH  24  36
ATOM     36  O   UNL     1       4.610  -6.899  23.379  0.00  0.00    -0.506 OA
ATOM     37  H   UNL     1       4.519  -7.842  23.089  0.00  0.00    +0.292 HD
ENDBRANCH  24  36
BRANCH  21  38
ATOM     38  O   UNL     1       1.525  -8.431  26.529  0.00  0.00    -0.507 OA
ATOM     39  H   UNL     1       1.795  -8.964  27.285  0.00  0.00    +0.292 HD
ENDBRANCH  21  38
ENDBRANCH  14  15
ENDBRANCH   2  14
BRANCH   1  40
ATOM     40  O   UNL     1       6.913   0.502  24.553  0.00  0.00    -0.337 OA
BRANCH  40  43
ATOM     41  C   UNL     1       4.140   2.702  25.158  0.00  0.00    +0.190 C 
ATOM     42  O   UNL     1       5.187   1.984  24.516  0.00  0.00    -0.339 OA
ATOM     43  C   UNL     1       6.057   1.292  25.410  0.00  0.00    +0.282 C 
ATOM     44  C   UNL     1       6.756   2.367  26.342  0.00  0.00    +0.201 C 
ATOM     45  C   UNL     1       5.662   3.207  27.048  0.00  0.00    +0.179 C 
ATOM     46  C   UNL     1       4.693   3.819  26.048  0.00  0.00    +0.178 C 
BRANCH  46  47
ATOM     47  O   UNL     1       3.679   4.508  26.789  0.00  0.00    -0.386 OA
ATOM     48  H   UNL     1       3.882   5.461  26.727  0.00  0.00    +0.210 HD
ENDBRANCH  46  47
BRANCH  45  49
ATOM     49  O   UNL     1       6.223   4.280  27.839  0.00  0.00    -0.386 OA
ATOM     50  H   UNL     1       7.147   4.377  27.503  0.00  0.00    +0.210 HD
ENDBRANCH  45  49
BRANCH  44  51
ATOM     51  O   UNL     1       7.561   1.785  27.380  0.00  0.00    -0.384 OA
ATOM     52  H   UNL     1       8.100   2.529  27.730  0.00  0.00    +0.210 HD
ENDBRANCH  44  51
BRANCH  41  53
ATOM     53  C   UNL     1       3.257   3.291  24.048  0.00  0.00    +0.266 C 
BRANCH  53  54
ATOM     54  O   UNL     1       4.018   3.556  22.859  0.00  0.00    -0.459 OA
BRANCH  54  55
ATOM     55  C   UNL     1       4.116   4.886  22.608  0.00  0.00    +0.332 C 
ATOM     56  O   UNL     1       3.188   5.605  22.282  0.00  0.00    -0.246 OA
BRANCH  55  58
ATOM     57  C   UNL     1       6.459   4.466  22.814  0.00  0.00    +0.015 C 
ATOM     58  C   UNL     1       5.469   5.368  22.917  0.00  0.00    +0.092 C 
BRANCH  57  61
ATOM     59  C   UNL     1      10.124   3.918  23.545  0.00  0.00    +0.162 A 
ATOM     60  C   UNL     1       8.790   3.646  23.214  0.00  0.00    +0.057 A 
ATOM     61  C   UNL     1       7.890   4.707  23.040  0.00  0.00    -0.021 A 
ATOM     62  C   UNL     1       8.315   6.026  23.203  0.00  0.00    +0.012 A 
ATOM     63  C   UNL     1       9.658   6.309  23.491  0.00  0.00    +0.050 A 
ATOM     64  C   UNL     1      10.543   5.251  23.660  0.00  0.00    +0.158 A 
BRANCH  64  65
ATOM     65  O   UNL     1      11.843   5.551  23.966  0.00  0.00    -0.503 OA
ATOM     66  H   UNL     1      12.248   5.825  23.132  0.00  0.00    +0.292 HD
ENDBRANCH  64  65
BRANCH  59  68
ATOM     67  C   UNL     1      10.586   1.674  24.092  0.00  0.00    +0.277 C 
ATOM     68  O   UNL     1      11.091   2.968  23.759  0.00  0.00    -0.491 OA
ENDBRANCH  59  68
ENDBRANCH  57  61
ENDBRANCH  55  58
ENDBRANCH  54  55
ENDBRANCH  53  54
ENDBRANCH  41  53
ENDBRANCH  40  43
ENDBRANCH   1  40
TORSDOF 23
ENDMDL
MODEL 9
REMARK VINA RESULT:      -6.4      2.301      6.851
REMARK  Name = 
REMARK  24 active torsions:
REMARK  status: ('A' for Active; 'I' for Inactive)
REMARK    1  A    between atoms: C_1  and  O_2
REMARK    2  A    between atoms: O_2  and  C_3
REMARK    3  A    between atoms: C_4  and  O_67
REMARK    4  A    between atoms: C_7  and  C_9
REMARK    5  A    between atoms: C_10  and  C_11
REMARK    6  A    between atoms: C_11  and  O_13
REMARK    7  A    between atoms: O_13  and  C_14
REMARK    8  A    between atoms: C_14  and  C_15
REMARK    9  A    between atoms: C_17  and  O_66
REMARK   10  A    between atoms: C_19  and  O_65
REMARK   11  A    between atoms: C_21  and  O_64
REMARK   12  A    between atoms: C_23  and  O_26
REMARK   13  A    between atoms: O_26  and  C_27
REMARK   14  A    between atoms: C_29  and  O_63
REMARK   15  A    between atoms: C_31  and  O_62
REMARK   16  A    between atoms: C_33  and  C_60
REMARK   17  A    between atoms: C_36  and  O_38
REMARK   18  A    between atoms: O_38  and  C_39
REMARK   19  A    between atoms: C_40  and  C_52
REMARK   20  A    between atoms: C_44  and  O_51
REMARK   21  A    between atoms: C_46  and  O_50
REMARK   22  A    between atoms: C_54  and  O_59
REMARK   23  A    between atoms: C_55  and  O_58
REMARK   24  A    between atoms: C_60  and  O_61
REMARK                            x       y       z     vdW  Elec       q    Type
REMARK                         _______ _______ _______ _____ _____    ______ ____
ROOT
ATOM      1  C   UNL     1       4.458  -0.579  28.658  0.00  0.00    +0.221 C 
ATOM      2  C   UNL     1       4.553  -2.090  28.133  0.00  0.00    +0.340 C 
ATOM      3  O   UNL     1       3.578  -3.045  28.592  0.00  0.00    -0.331 OA
ATOM      4  C   UNL     1       2.943  -2.922  29.874  0.00  0.00    +0.179 C 
ATOM      5  C   UNL     1       2.534  -1.482  30.292  0.00  0.00    +0.177 C 
ATOM      6  C   UNL     1       3.713  -0.496  30.039  0.00  0.00    +0.180 C 
ENDROOT
BRANCH   6   7
ATOM      7  O   UNL     1       3.268   0.844  30.338  0.00  0.00    -0.386 OA
ATOM      8  H   UNL     1       2.970   1.271  29.512  0.00  0.00    +0.210 HD
ENDBRANCH   6   7
BRANCH   5   9
ATOM      9  O   UNL     1       1.277  -1.011  29.753  0.00  0.00    -0.386 OA
ATOM     10  H   UNL     1       1.069  -1.618  29.007  0.00  0.00    +0.210 HD
ENDBRANCH   5   9
BRANCH   4  11
ATOM     11  C   UNL     1       1.736  -3.904  29.881  0.00  0.00    +0.190 C 
BRANCH  11  12
ATOM     12  O   UNL     1       2.123  -5.219  29.495  0.00  0.00    -0.392 OA
ATOM     13  H   UNL     1       2.062  -5.781  30.289  0.00  0.00    +0.210 HD
ENDBRANCH  11  12
ENDBRANCH   4  11
BRANCH   2  14
ATOM     14  O   UNL     1       4.613  -2.197  26.625  0.00  0.00    -0.453 OA
BRANCH  14  15
ATOM     15  C   UNL     1       5.789  -2.710  26.071  0.00  0.00    +0.214 A 
ATOM     16  C   UNL     1       6.739  -1.776  25.525  0.00  0.00    +0.238 A 
ATOM     17  O   UNL     1       6.376  -0.998  24.645  0.00  0.00    -0.283 OA
ATOM     18  C   UNL     1       8.145  -1.936  25.538  0.00  0.00    +0.109 A 
ATOM     19  C   UNL     1       8.368  -3.126  24.862  0.00  0.00    +0.147 A 
ATOM     20  C   UNL     1       9.354  -3.100  23.878  0.00  0.00    +0.092 A 
ATOM     21  C   UNL     1      10.031  -1.885  23.576  0.00  0.00    +0.124 A 
ATOM     22  C   UNL     1       9.807  -0.705  24.289  0.00  0.00    +0.091 A 
ATOM     23  O   UNL     1       7.421  -4.156  24.938  0.00  0.00    -0.451 OA
ATOM     24  C   UNL     1       8.892  -0.755  25.318  0.00  0.00    +0.135 A 
ATOM     25  C   UNL     1       6.117  -3.943  25.570  0.00  0.00    +0.181 A 
BRANCH  25  26
ATOM     26  C   UNL     1       5.198  -5.148  25.415  0.00  0.00    +0.025 A 
ATOM     27  C   UNL     1       5.042  -5.907  24.234  0.00  0.00    +0.015 A 
ATOM     28  C   UNL     1       4.214  -7.059  24.165  0.00  0.00    +0.050 A 
ATOM     29  C   UNL     1       3.562  -7.507  25.297  0.00  0.00    +0.158 A 
ATOM     30  C   UNL     1       3.724  -6.810  26.481  0.00  0.00    +0.159 A 
ATOM     31  C   UNL     1       4.495  -5.641  26.539  0.00  0.00    +0.060 A 
BRANCH  30  32
ATOM     32  O   UNL     1       3.131  -7.347  27.602  0.00  0.00    -0.503 OA
ATOM     33  H   UNL     1       3.649  -7.050  28.365  0.00  0.00    +0.292 HD
ENDBRANCH  30  32
BRANCH  29  34
ATOM     34  O   UNL     1       2.798  -8.637  25.262  0.00  0.00    -0.503 OA
ATOM     35  H   UNL     1       2.787  -8.961  26.186  0.00  0.00    +0.292 HD
ENDBRANCH  29  34
ENDBRANCH  25  26
BRANCH  24  36
ATOM     36  O   UNL     1       8.504   0.435  25.886  0.00  0.00    -0.506 OA
ATOM     37  H   UNL     1       7.564   0.333  26.186  0.00  0.00    +0.292 HD
ENDBRANCH  24  36
BRANCH  21  38
ATOM     38  O   UNL     1      10.881  -1.764  22.524  0.00  0.00    -0.507 OA
ATOM     39  H   UNL     1      10.566  -1.081  21.920  0.00  0.00    +0.292 HD
ENDBRANCH  21  38
ENDBRANCH  14  15
ENDBRANCH   2  14
BRANCH   1  40
ATOM     40  O   UNL     1       5.734   0.193  28.733  0.00  0.00    -0.337 OA
BRANCH  40  43
ATOM     41  C   UNL     1       4.151   3.255  27.725  0.00  0.00    +0.190 C 
ATOM     42  O   UNL     1       4.584   1.901  27.764  0.00  0.00    -0.339 OA
ATOM     43  C   UNL     1       5.581   1.631  28.748  0.00  0.00    +0.282 C 
ATOM     44  C   UNL     1       6.860   2.500  28.397  0.00  0.00    +0.201 C 
ATOM     45  C   UNL     1       6.446   3.990  28.308  0.00  0.00    +0.179 C 
ATOM     46  C   UNL     1       5.296   4.195  27.334  0.00  0.00    +0.178 C 
BRANCH  46  47
ATOM     47  O   UNL     1       4.931   5.580  27.375  0.00  0.00    -0.386 OA
ATOM     48  H   UNL     1       3.984   5.616  27.608  0.00  0.00    +0.210 HD
ENDBRANCH  46  47
BRANCH  45  49
ATOM     49  O   UNL     1       7.540   4.838  27.890  0.00  0.00    -0.386 OA
ATOM     50  H   UNL     1       8.351   4.362  28.194  0.00  0.00    +0.210 HD
ENDBRANCH  45  49
BRANCH  44  51
ATOM     51  O   UNL     1       7.894   2.420  29.391  0.00  0.00    -0.384 OA
ATOM     52  H   UNL     1       7.936   1.469  29.639  0.00  0.00    +0.210 HD
ENDBRANCH  44  51
BRANCH  41  53
ATOM     53  C   UNL     1       3.019   3.333  26.691  0.00  0.00    +0.266 C 
BRANCH  53  54
ATOM     54  O   UNL     1       3.156   2.316  25.686  0.00  0.00    -0.459 OA
BRANCH  54  55
ATOM     55  C   UNL     1       3.055   2.826  24.433  0.00  0.00    +0.332 C 
ATOM     56  O   UNL     1       2.008   3.093  23.871  0.00  0.00    -0.246 OA
BRANCH  55  58
ATOM     57  C   UNL     1       5.290   2.148  23.928  0.00  0.00    +0.015 C 
ATOM     58  C   UNL     1       4.387   3.142  23.898  0.00  0.00    +0.092 C 
BRANCH  57  61
ATOM     59  C   UNL     1       8.895   3.163  23.436  0.00  0.00    +0.162 A 
ATOM     60  C   UNL     1       7.623   3.051  24.014  0.00  0.00    +0.057 A 
ATOM     61  C   UNL     1       6.670   2.204  23.430  0.00  0.00    -0.021 A 
ATOM     62  C   UNL     1       6.980   1.483  22.276  0.00  0.00    +0.012 A 
ATOM     63  C   UNL     1       8.265   1.556  21.717  0.00  0.00    +0.050 A 
ATOM     64  C   UNL     1       9.203   2.397  22.303  0.00  0.00    +0.158 A 
BRANCH  64  65
ATOM     65  O   UNL     1      10.441   2.471  21.724  0.00  0.00    -0.503 OA
ATOM     66  H   UNL     1      10.377   3.178  21.068  0.00  0.00    +0.292 HD
ENDBRANCH  64  65
BRANCH  59  68
ATOM     67  C   UNL     1       9.657   5.369  23.753  0.00  0.00    +0.277 C 
ATOM     68  O   UNL     1       9.903   3.970  23.902  0.00  0.00    -0.491 OA
ENDBRANCH  59  68
ENDBRANCH  57  61
ENDBRANCH  55  58
ENDBRANCH  54  55
ENDBRANCH  53  54
ENDBRANCH  41  53
ENDBRANCH  40  43
ENDBRANCH   1  40
TORSDOF 23
ENDMDL
