MODEL 1
REMARK VINA RESULT:      -7.2      0.000      0.000
REMARK  Name = 
REMARK  16 active torsions:
REMARK  status: ('A' for Active; 'I' for Inactive)
REMARK    1  A    between atoms: C_3  and  O_44
REMARK    2  A    between atoms: C_4  and  O_43
REMARK    3  A    between atoms: C_6  and  C_7
REMARK    4  A    between atoms: C_8  and  O_20
REMARK    5  A    between atoms: C_12  and  O_19
REMARK    6  A    between atoms: C_14  and  O_18
REMARK    7  A    between atoms: O_20  and  C_21
REMARK    8  A    between atoms: C_23  and  O_42
REMARK    9  A    between atoms: C_25  and  O_41
REMARK   10  A    between atoms: C_27  and  O_40
REMARK   11  A    between atoms: C_29  and  C_32
REMARK   12  A    between atoms: C_32  and  O_33
REMARK   13  A    between atoms: O_33  and  C_34
REMARK   14  A    between atoms: C_34  and  C_36
REMARK   15  A    between atoms: C_36  and  C_37
REMARK   16  A    between atoms: C_37  and  O_39
REMARK                            x       y       z     vdW  Elec       q    Type
REMARK                         _______ _______ _______ _____ _____    ______ ____
ROOT
ATOM      1  C   UNL     1       6.097  -2.189  24.996  0.00  0.00    +0.181 A 
ATOM      2  O   UNL     1       5.478  -3.279  25.640  0.00  0.00    -0.451 OA
ATOM      3  C   UNL     1       5.229  -4.442  24.965  0.00  0.00    +0.147 A 
ATOM      4  C   UNL     1       5.451  -4.574  23.612  0.00  0.00    +0.109 A 
ATOM      5  C   UNL     1       5.146  -5.757  22.930  0.00  0.00    +0.135 A 
ATOM      6  C   UNL     1       4.627  -6.836  23.625  0.00  0.00    +0.091 A 
ATOM      7  C   UNL     1       4.421  -6.713  24.994  0.00  0.00    +0.124 A 
ATOM      8  C   UNL     1       6.030  -3.451  22.909  0.00  0.00    +0.238 A 
ATOM      9  O   UNL     1       6.128  -3.574  21.689  0.00  0.00    -0.283 OA
ATOM     10  C   UNL     1       4.713  -5.525  25.669  0.00  0.00    +0.092 A 
ATOM     11  C   UNL     1       6.449  -2.235  23.683  0.00  0.00    +0.214 A 
ENDROOT
BRANCH   1  13
ATOM     12  C   UNL     1       5.398   0.115  25.780  0.00  0.00    +0.015 A 
ATOM     13  C   UNL     1       6.244  -1.014  25.951  0.00  0.00    +0.025 A 
ATOM     14  C   UNL     1       7.235  -0.905  26.939  0.00  0.00    +0.060 A 
ATOM     15  C   UNL     1       7.403   0.283  27.658  0.00  0.00    +0.159 A 
ATOM     16  C   UNL     1       6.599   1.391  27.422  0.00  0.00    +0.158 A 
ATOM     17  C   UNL     1       5.575   1.308  26.499  0.00  0.00    +0.050 A 
BRANCH  16  18
ATOM     18  O   UNL     1       6.869   2.540  28.109  0.00  0.00    -0.503 OA
ATOM     19  H   UNL     1       6.039   2.870  28.496  0.00  0.00    +0.292 HD
ENDBRANCH  16  18
BRANCH  15  20
ATOM     20  O   UNL     1       8.402   0.363  28.593  0.00  0.00    -0.503 OA
ATOM     21  H   UNL     1       8.366  -0.499  29.068  0.00  0.00    +0.292 HD
ENDBRANCH  15  20
ENDBRANCH   1  13
BRANCH   7  22
ATOM     22  O   UNL     1       3.913  -7.759  25.706  0.00  0.00    -0.507 OA
ATOM     23  H   UNL     1       3.405  -7.408  26.450  0.00  0.00    +0.292 HD
ENDBRANCH   7  22
BRANCH   5  24
ATOM     24  O   UNL     1       5.306  -5.923  21.581  0.00  0.00    -0.506 OA
ATOM     25  H   UNL     1       5.785  -5.137  21.235  0.00  0.00    +0.292 HD
ENDBRANCH   5  24
BRANCH  11  26
ATOM     26  O   UNL     1       7.128  -1.204  23.041  0.00  0.00    -0.453 OA
BRANCH  26  27
ATOM     27  C   UNL     1       8.577  -1.217  23.066  0.00  0.00    +0.340 C 
ATOM     28  O   UNL     1       8.979  -0.219  23.997  0.00  0.00    -0.330 OA
ATOM     29  C   UNL     1       9.944   0.789  23.674  0.00  0.00    +0.191 C 
ATOM     30  C   UNL     1      10.120   1.168  22.174  0.00  0.00    +0.178 C 
ATOM     31  C   UNL     1       9.092   0.472  21.301  0.00  0.00    +0.180 C 
ATOM     32  C   UNL     1       9.120  -1.004  21.636  0.00  0.00    +0.214 C 
BRANCH  32  33
ATOM     33  O   UNL     1      10.462  -1.508  21.527  0.00  0.00    -0.383 OA
ATOM     34  H   UNL     1      10.396  -2.482  21.586  0.00  0.00    +0.210 HD
ENDBRANCH  32  33
BRANCH  31  35
ATOM     35  O   UNL     1       7.804   1.081  21.489  0.00  0.00    -0.386 OA
ATOM     36  H   UNL     1       7.424   0.765  22.334  0.00  0.00    +0.210 HD
ENDBRANCH  31  35
BRANCH  30  37
ATOM     37  O   UNL     1      10.078   2.562  21.870  0.00  0.00    -0.386 OA
ATOM     38  H   UNL     1      10.545   3.014  22.605  0.00  0.00    +0.210 HD
ENDBRANCH  30  37
BRANCH  29  39
ATOM     39  C   UNL     1       9.514   1.938  24.592  0.00  0.00    +0.266 C 
BRANCH  39  40
ATOM     40  O   UNL     1       8.244   2.467  24.239  0.00  0.00    -0.462 OA
BRANCH  40  41
ATOM     41  C   UNL     1       7.922   3.644  24.842  0.00  0.00    +0.318 C 
ATOM     42  O   UNL     1       8.353   4.040  25.919  0.00  0.00    -0.250 OA
BRANCH  41  43
ATOM     43  C   UNL     1       6.820   4.324  24.102  0.00  0.00    +0.240 C 
BRANCH  43  44
ATOM     44  C   UNL     1       6.678   3.864  22.686  0.00  0.00    +0.316 C 
ATOM     45  O   UNL     1       5.725   3.267  22.217  0.00  0.00    -0.250 OA
BRANCH  44  46
ATOM     46  O   UNL     1       7.775   4.155  21.942  0.00  0.00    -0.480 OA
ATOM     47  H   UNL     1       8.088   5.074  22.035  0.00  0.00    +0.295 HD
ENDBRANCH  44  46
ENDBRANCH  43  44
ENDBRANCH  41  43
ENDBRANCH  40  41
ENDBRANCH  39  40
ENDBRANCH  29  39
ENDBRANCH  26  27
ENDBRANCH  11  26
TORSDOF 16
ENDMDL
MODEL 2
REMARK VINA RESULT:      -6.8      2.161      7.765
REMARK  Name = 
REMARK  16 active torsions:
REMARK  status: ('A' for Active; 'I' for Inactive)
REMARK    1  A    between atoms: C_3  and  O_44
REMARK    2  A    between atoms: C_4  and  O_43
REMARK    3  A    between atoms: C_6  and  C_7
REMARK    4  A    between atoms: C_8  and  O_20
REMARK    5  A    between atoms: C_12  and  O_19
REMARK    6  A    between atoms: C_14  and  O_18
REMARK    7  A    between atoms: O_20  and  C_21
REMARK    8  A    between atoms: C_23  and  O_42
REMARK    9  A    between atoms: C_25  and  O_41
REMARK   10  A    between atoms: C_27  and  O_40
REMARK   11  A    between atoms: C_29  and  C_32
REMARK   12  A    between atoms: C_32  and  O_33
REMARK   13  A    between atoms: O_33  and  C_34
REMARK   14  A    between atoms: C_34  and  C_36
REMARK   15  A    between atoms: C_36  and  C_37
REMARK   16  A    between atoms: C_37  and  O_39
REMARK                            x       y       z     vdW  Elec       q    Type
REMARK                         _______ _______ _______ _____ _____    ______ ____
ROOT
ATOM      1  C   UNL     1       7.993  -1.915  24.744  0.00  0.00    +0.181 A 
ATOM      2  O   UNL     1       8.135  -0.642  25.332  0.00  0.00    -0.451 OA
ATOM      3  C   UNL     1       8.391   0.459  24.563  0.00  0.00    +0.147 A 
ATOM      4  C   UNL     1       8.643   0.376  23.211  0.00  0.00    +0.109 A 
ATOM      5  C   UNL     1       8.950   1.509  22.451  0.00  0.00    +0.135 A 
ATOM      6  C   UNL     1       8.983   2.754  23.055  0.00  0.00    +0.091 A 
ATOM      7  C   UNL     1       8.709   2.844  24.414  0.00  0.00    +0.124 A 
ATOM      8  C   UNL     1       8.566  -0.927  22.589  0.00  0.00    +0.238 A 
ATOM      9  O   UNL     1       8.887  -0.975  21.401  0.00  0.00    -0.283 OA
ATOM     10  C   UNL     1       8.418   1.708  25.175  0.00  0.00    +0.092 A 
ATOM     11  C   UNL     1       8.128  -2.108  23.405  0.00  0.00    +0.214 A 
ENDROOT
BRANCH   1  13
ATOM     12  C   UNL     1       8.625  -4.075  25.908  0.00  0.00    +0.015 A 
ATOM     13  C   UNL     1       7.734  -2.972  25.807  0.00  0.00    +0.025 A 
ATOM     14  C   UNL     1       6.608  -3.004  26.645  0.00  0.00    +0.060 A 
ATOM     15  C   UNL     1       6.363  -4.103  27.476  0.00  0.00    +0.159 A 
ATOM     16  C   UNL     1       7.222  -5.194  27.502  0.00  0.00    +0.158 A 
ATOM     17  C   UNL     1       8.371  -5.179  26.738  0.00  0.00    +0.050 A 
BRANCH  16  18
ATOM     18  O   UNL     1       6.880  -6.262  28.281  0.00  0.00    -0.503 OA
ATOM     19  H   UNL     1       6.358  -6.883  27.742  0.00  0.00    +0.292 HD
ENDBRANCH  16  18
BRANCH  15  20
ATOM     20  O   UNL     1       5.236  -4.113  28.255  0.00  0.00    -0.503 OA
ATOM     21  H   UNL     1       4.673  -4.823  27.868  0.00  0.00    +0.292 HD
ENDBRANCH  15  20
ENDBRANCH   1  13
BRANCH   7  22
ATOM     22  O   UNL     1       8.732   4.057  25.038  0.00  0.00    -0.507 OA
ATOM     23  H   UNL     1       7.934   4.143  25.576  0.00  0.00    +0.292 HD
ENDBRANCH   7  22
BRANCH   5  24
ATOM     24  O   UNL     1       9.251   1.474  21.116  0.00  0.00    -0.506 OA
ATOM     25  H   UNL     1       9.377   2.400  20.810  0.00  0.00    +0.292 HD
ENDBRANCH   5  24
BRANCH  11  26
ATOM     26  O   UNL     1       7.921  -3.338  22.788  0.00  0.00    -0.453 OA
BRANCH  26  27
ATOM     27  C   UNL     1       6.701  -3.528  22.028  0.00  0.00    +0.340 C 
ATOM     28  O   UNL     1       5.622  -3.366  22.940  0.00  0.00    -0.330 OA
ATOM     29  C   UNL     1       4.567  -4.329  23.060  0.00  0.00    +0.191 C 
ATOM     30  C   UNL     1       4.878  -5.798  22.648  0.00  0.00    +0.178 C 
ATOM     31  C   UNL     1       6.347  -5.982  22.315  0.00  0.00    +0.180 C 
ATOM     32  C   UNL     1       6.739  -4.903  21.327  0.00  0.00    +0.214 C 
BRANCH  32  33
ATOM     33  O   UNL     1       5.845  -4.919  20.201  0.00  0.00    -0.383 OA
ATOM     34  H   UNL     1       5.730  -3.987  19.929  0.00  0.00    +0.210 HD
ENDBRANCH  32  33
BRANCH  31  35
ATOM     35  O   UNL     1       7.124  -5.967  23.524  0.00  0.00    -0.386 OA
ATOM     36  H   UNL     1       8.012  -6.332  23.335  0.00  0.00    +0.210 HD
ENDBRANCH  31  35
BRANCH  30  37
ATOM     37  O   UNL     1       4.516  -6.804  23.594  0.00  0.00    -0.386 OA
ATOM     38  H   UNL     1       4.959  -6.558  24.434  0.00  0.00    +0.210 HD
ENDBRANCH  30  37
BRANCH  29  39
ATOM     39  C   UNL     1       4.133  -4.135  24.516  0.00  0.00    +0.266 C 
BRANCH  39  40
ATOM     40  O   UNL     1       3.016  -4.942  24.861  0.00  0.00    -0.462 OA
BRANCH  40  41
ATOM     41  C   UNL     1       2.608  -4.841  26.156  0.00  0.00    +0.318 C 
ATOM     42  O   UNL     1       2.555  -3.807  26.813  0.00  0.00    -0.250 OA
BRANCH  41  43
ATOM     43  C   UNL     1       2.400  -6.195  26.743  0.00  0.00    +0.240 C 
BRANCH  43  44
ATOM     44  C   UNL     1       3.636  -6.783  27.345  0.00  0.00    +0.316 C 
ATOM     45  O   UNL     1       3.891  -6.857  28.534  0.00  0.00    -0.250 OA
BRANCH  44  46
ATOM     46  O   UNL     1       4.507  -7.216  26.400  0.00  0.00    -0.480 OA
ATOM     47  H   UNL     1       4.082  -7.545  25.585  0.00  0.00    +0.295 HD
ENDBRANCH  44  46
ENDBRANCH  43  44
ENDBRANCH  41  43
ENDBRANCH  40  41
ENDBRANCH  39  40
ENDBRANCH  29  39
ENDBRANCH  26  27
ENDBRANCH  11  26
TORSDOF 16
ENDMDL
MODEL 3
REMARK VINA RESULT:      -6.7      2.542      8.655
REMARK  Name = 
REMARK  16 active torsions:
REMARK  status: ('A' for Active; 'I' for Inactive)
REMARK    1  A    between atoms: C_3  and  O_44
REMARK    2  A    between atoms: C_4  and  O_43
REMARK    3  A    between atoms: C_6  and  C_7
REMARK    4  A    between atoms: C_8  and  O_20
REMARK    5  A    between atoms: C_12  and  O_19
REMARK    6  A    between atoms: C_14  and  O_18
REMARK    7  A    between atoms: O_20  and  C_21
REMARK    8  A    between atoms: C_23  and  O_42
REMARK    9  A    between atoms: C_25  and  O_41
REMARK   10  A    between atoms: C_27  and  O_40
REMARK   11  A    between atoms: C_29  and  C_32
REMARK   12  A    between atoms: C_32  and  O_33
REMARK   13  A    between atoms: O_33  and  C_34
REMARK   14  A    between atoms: C_34  and  C_36
REMARK   15  A    between atoms: C_36  and  C_37
REMARK   16  A    between atoms: C_37  and  O_39
REMARK                            x       y       z     vdW  Elec       q    Type
REMARK                         _______ _______ _______ _____ _____    ______ ____
ROOT
ATOM      1  C   UNL     1       9.266   1.817  23.730  0.00  0.00    +0.181 A 
ATOM      2  O   UNL     1      10.523   2.264  23.275  0.00  0.00    -0.451 OA
ATOM      3  C   UNL     1      10.943   3.542  23.521  0.00  0.00    +0.147 A 
ATOM      4  C   UNL     1      10.131   4.488  24.107  0.00  0.00    +0.109 A 
ATOM      5  C   UNL     1      10.563   5.803  24.307  0.00  0.00    +0.135 A 
ATOM      6  C   UNL     1      11.843   6.171  23.930  0.00  0.00    +0.091 A 
ATOM      7  C   UNL     1      12.672   5.214  23.358  0.00  0.00    +0.124 A 
ATOM      8  C   UNL     1       8.811   4.076  24.530  0.00  0.00    +0.238 A 
ATOM      9  O   UNL     1       8.084   4.969  24.964  0.00  0.00    -0.283 OA
ATOM     10  C   UNL     1      12.233   3.904  23.145  0.00  0.00    +0.092 A 
ATOM     11  C   UNL     1       8.414   2.634  24.403  0.00  0.00    +0.214 A 
ENDROOT
BRANCH   1  13
ATOM     12  C   UNL     1       7.751   0.011  22.806  0.00  0.00    +0.015 A 
ATOM     13  C   UNL     1       9.027   0.374  23.315  0.00  0.00    +0.025 A 
ATOM     14  C   UNL     1       9.946  -0.673  23.493  0.00  0.00    +0.060 A 
ATOM     15  C   UNL     1       9.580  -1.999  23.241  0.00  0.00    +0.159 A 
ATOM     16  C   UNL     1       8.302  -2.326  22.805  0.00  0.00    +0.158 A 
ATOM     17  C   UNL     1       7.386  -1.323  22.561  0.00  0.00    +0.050 A 
BRANCH  16  18
ATOM     18  O   UNL     1       7.994  -3.648  22.650  0.00  0.00    -0.503 OA
ATOM     19  H   UNL     1       8.793  -4.174  22.832  0.00  0.00    +0.292 HD
ENDBRANCH  16  18
BRANCH  15  20
ATOM     20  O   UNL     1      10.494  -2.997  23.458  0.00  0.00    -0.503 OA
ATOM     21  H   UNL     1      10.785  -2.869  24.391  0.00  0.00    +0.292 HD
ENDBRANCH  15  20
ENDBRANCH   1  13
BRANCH   7  22
ATOM     22  O   UNL     1      13.940   5.546  22.978  0.00  0.00    -0.507 OA
ATOM     23  H   UNL     1      14.152   6.416  23.341  0.00  0.00    +0.292 HD
ENDBRANCH   7  22
BRANCH   5  24
ATOM     24  O   UNL     1       9.780   6.790  24.843  0.00  0.00    -0.506 OA
ATOM     25  H   UNL     1       9.207   6.381  25.530  0.00  0.00    +0.292 HD
ENDBRANCH   5  24
BRANCH  11  26
ATOM     26  O   UNL     1       7.200   2.202  24.928  0.00  0.00    -0.453 OA
BRANCH  26  27
ATOM     27  C   UNL     1       7.161   1.786  26.316  0.00  0.00    +0.340 C 
ATOM     28  O   UNL     1       7.719   0.478  26.367  0.00  0.00    -0.330 OA
ATOM     29  C   UNL     1       7.055  -0.615  27.014  0.00  0.00    +0.191 C 
ATOM     30  C   UNL     1       5.505  -0.544  27.145  0.00  0.00    +0.178 C 
ATOM     31  C   UNL     1       4.938   0.653  26.406  0.00  0.00    +0.180 C 
ATOM     32  C   UNL     1       5.713   1.879  26.843  0.00  0.00    +0.214 C 
BRANCH  32  33
ATOM     33  O   UNL     1       5.705   1.981  28.277  0.00  0.00    -0.383 OA
ATOM     34  H   UNL     1       6.585   2.319  28.534  0.00  0.00    +0.210 HD
ENDBRANCH  32  33
BRANCH  31  35
ATOM     35  O   UNL     1       4.987   0.416  24.989  0.00  0.00    -0.386 OA
ATOM     36  H   UNL     1       4.075   0.295  24.656  0.00  0.00    +0.210 HD
ENDBRANCH  31  35
BRANCH  30  37
ATOM     37  O   UNL     1       4.786  -1.701  26.717  0.00  0.00    -0.386 OA
ATOM     38  H   UNL     1       4.029  -1.368  26.187  0.00  0.00    +0.210 HD
ENDBRANCH  30  37
BRANCH  29  39
ATOM     39  C   UNL     1       7.591  -1.815  26.227  0.00  0.00    +0.266 C 
BRANCH  39  40
ATOM     40  O   UNL     1       7.154  -3.055  26.764  0.00  0.00    -0.462 OA
BRANCH  40  41
ATOM     41  C   UNL     1       6.827  -4.001  25.842  0.00  0.00    +0.318 C 
ATOM     42  O   UNL     1       5.946  -3.902  24.994  0.00  0.00    -0.250 OA
BRANCH  41  43
ATOM     43  C   UNL     1       7.566  -5.267  26.110  0.00  0.00    +0.240 C 
BRANCH  43  44
ATOM     44  C   UNL     1       9.004  -5.220  25.700  0.00  0.00    +0.316 C 
ATOM     45  O   UNL     1       9.443  -5.469  24.592  0.00  0.00    -0.250 OA
BRANCH  44  46
ATOM     46  O   UNL     1       9.818  -4.892  26.735  0.00  0.00    -0.480 OA
ATOM     47  H   UNL     1       9.386  -4.361  27.431  0.00  0.00    +0.295 HD
ENDBRANCH  44  46
ENDBRANCH  43  44
ENDBRANCH  41  43
ENDBRANCH  40  41
ENDBRANCH  39  40
ENDBRANCH  29  39
ENDBRANCH  26  27
ENDBRANCH  11  26
TORSDOF 16
ENDMDL
MODEL 4
REMARK VINA RESULT:      -6.5      1.717      4.702
REMARK  Name = 
REMARK  16 active torsions:
REMARK  status: ('A' for Active; 'I' for Inactive)
REMARK    1  A    between atoms: C_3  and  O_44
REMARK    2  A    between atoms: C_4  and  O_43
REMARK    3  A    between atoms: C_6  and  C_7
REMARK    4  A    between atoms: C_8  and  O_20
REMARK    5  A    between atoms: C_12  and  O_19
REMARK    6  A    between atoms: C_14  and  O_18
REMARK    7  A    between atoms: O_20  and  C_21
REMARK    8  A    between atoms: C_23  and  O_42
REMARK    9  A    between atoms: C_25  and  O_41
REMARK   10  A    between atoms: C_27  and  O_40
REMARK   11  A    between atoms: C_29  and  C_32
REMARK   12  A    between atoms: C_32  and  O_33
REMARK   13  A    between atoms: O_33  and  C_34
REMARK   14  A    between atoms: C_34  and  C_36
REMARK   15  A    between atoms: C_36  and  C_37
REMARK   16  A    between atoms: C_37  and  O_39
REMARK                            x       y       z     vdW  Elec       q    Type
REMARK                         _______ _______ _______ _____ _____    ______ ____
ROOT
ATOM      1  C   UNL     1       7.770  -1.609  23.976  0.00  0.00    +0.181 A 
ATOM      2  O   UNL     1       7.648  -2.519  22.907  0.00  0.00    -0.451 OA
ATOM      3  C   UNL     1       6.923  -3.670  23.047  0.00  0.00    +0.147 A 
ATOM      4  C   UNL     1       6.383  -4.062  24.252  0.00  0.00    +0.109 A 
ATOM      5  C   UNL     1       5.685  -5.267  24.386  0.00  0.00    +0.135 A 
ATOM      6  C   UNL     1       5.507  -6.084  23.283  0.00  0.00    +0.091 A 
ATOM      7  C   UNL     1       6.033  -5.682  22.061  0.00  0.00    +0.124 A 
ATOM      8  C   UNL     1       6.544  -3.178  25.385  0.00  0.00    +0.238 A 
ATOM      9  O   UNL     1       6.129  -3.604  26.462  0.00  0.00    -0.283 OA
ATOM     10  C   UNL     1       6.743  -4.485  21.934  0.00  0.00    +0.092 A 
ATOM     11  C   UNL     1       7.201  -1.843  25.188  0.00  0.00    +0.214 A 
ENDROOT
BRANCH   1  13
ATOM     12  C   UNL     1       9.854  -0.201  24.276  0.00  0.00    +0.015 A 
ATOM     13  C   UNL     1       8.637  -0.425  23.576  0.00  0.00    +0.025 A 
ATOM     14  C   UNL     1       8.279   0.546  22.627  0.00  0.00    +0.060 A 
ATOM     15  C   UNL     1       9.058   1.693  22.444  0.00  0.00    +0.159 A 
ATOM     16  C   UNL     1      10.209   1.911  23.190  0.00  0.00    +0.158 A 
ATOM     17  C   UNL     1      10.629   0.956  24.094  0.00  0.00    +0.050 A 
BRANCH  16  18
ATOM     18  O   UNL     1      10.878   3.088  23.010  0.00  0.00    -0.503 OA
ATOM     19  H   UNL     1      11.206   3.119  22.095  0.00  0.00    +0.292 HD
ENDBRANCH  16  18
BRANCH  15  20
ATOM     20  O   UNL     1       8.658   2.633  21.531  0.00  0.00    -0.503 OA
ATOM     21  H   UNL     1       9.497   3.028  21.198  0.00  0.00    +0.292 HD
ENDBRANCH  15  20
ENDBRANCH   1  13
BRANCH   7  22
ATOM     22  O   UNL     1       5.873  -6.465  20.956  0.00  0.00    -0.507 OA
ATOM     23  H   UNL     1       6.449  -6.132  20.256  0.00  0.00    +0.292 HD
ENDBRANCH   7  22
BRANCH   5  24
ATOM     24  O   UNL     1       5.168  -5.722  25.569  0.00  0.00    -0.506 OA
ATOM     25  H   UNL     1       4.650  -6.536  25.378  0.00  0.00    +0.292 HD
ENDBRANCH   5  24
BRANCH  11  26
ATOM     26  O   UNL     1       7.242  -0.930  26.238  0.00  0.00    -0.453 OA
BRANCH  26  27
ATOM     27  C   UNL     1       6.196   0.071  26.318  0.00  0.00    +0.340 C 
ATOM     28  O   UNL     1       6.718   1.256  25.729  0.00  0.00    -0.330 OA
ATOM     29  C   UNL     1       6.667   2.528  26.388  0.00  0.00    +0.191 C 
ATOM     30  C   UNL     1       6.590   2.533  27.943  0.00  0.00    +0.178 C 
ATOM     31  C   UNL     1       6.732   1.134  28.513  0.00  0.00    +0.180 C 
ATOM     32  C   UNL     1       5.752   0.236  27.788  0.00  0.00    +0.214 C 
BRANCH  32  33
ATOM     33  O   UNL     1       4.429   0.796  27.854  0.00  0.00    -0.383 OA
ATOM     34  H   UNL     1       4.246   1.173  26.971  0.00  0.00    +0.210 HD
ENDBRANCH  32  33
BRANCH  31  35
ATOM     35  O   UNL     1       8.099   0.703  28.403  0.00  0.00    -0.386 OA
ATOM     36  H   UNL     1       8.328   0.612  27.456  0.00  0.00    +0.210 HD
ENDBRANCH  31  35
BRANCH  30  37
ATOM     37  O   UNL     1       7.529   3.374  28.615  0.00  0.00    -0.386 OA
ATOM     38  H   UNL     1       7.015   3.868  29.290  0.00  0.00    +0.210 HD
ENDBRANCH  30  37
BRANCH  29  39
ATOM     39  C   UNL     1       7.887   3.236  25.791  0.00  0.00    +0.266 C 
BRANCH  39  40
ATOM     40  O   UNL     1       7.562   4.505  25.242  0.00  0.00    -0.462 OA
BRANCH  40  41
ATOM     41  C   UNL     1       8.204   5.562  25.812  0.00  0.00    +0.318 C 
ATOM     42  O   UNL     1       8.327   5.763  27.015  0.00  0.00    -0.250 OA
BRANCH  41  43
ATOM     43  C   UNL     1       8.592   6.558  24.772  0.00  0.00    +0.240 C 
BRANCH  43  44
ATOM     44  C   UNL     1       9.434   5.984  23.678  0.00  0.00    +0.316 C 
ATOM     45  O   UNL     1      10.639   6.117  23.554  0.00  0.00    -0.250 OA
BRANCH  44  46
ATOM     46  O   UNL     1       8.694   5.297  22.771  0.00  0.00    -0.480 OA
ATOM     47  H   UNL     1       8.996   4.382  22.620  0.00  0.00    +0.295 HD
ENDBRANCH  44  46
ENDBRANCH  43  44
ENDBRANCH  41  43
ENDBRANCH  40  41
ENDBRANCH  39  40
ENDBRANCH  29  39
ENDBRANCH  26  27
ENDBRANCH  11  26
TORSDOF 16
ENDMDL
MODEL 5
REMARK VINA RESULT:      -6.2      2.385      8.230
REMARK  Name = 
REMARK  16 active torsions:
REMARK  status: ('A' for Active; 'I' for Inactive)
REMARK    1  A    between atoms: C_3  and  O_44
REMARK    2  A    between atoms: C_4  and  O_43
REMARK    3  A    between atoms: C_6  and  C_7
REMARK    4  A    between atoms: C_8  and  O_20
REMARK    5  A    between atoms: C_12  and  O_19
REMARK    6  A    between atoms: C_14  and  O_18
REMARK    7  A    between atoms: O_20  and  C_21
REMARK    8  A    between atoms: C_23  and  O_42
REMARK    9  A    between atoms: C_25  and  O_41
REMARK   10  A    between atoms: C_27  and  O_40
REMARK   11  A    between atoms: C_29  and  C_32
REMARK   12  A    between atoms: C_32  and  O_33
REMARK   13  A    between atoms: O_33  and  C_34
REMARK   14  A    between atoms: C_34  and  C_36
REMARK   15  A    between atoms: C_36  and  C_37
REMARK   16  A    between atoms: C_37  and  O_39
REMARK                            x       y       z     vdW  Elec       q    Type
REMARK                         _______ _______ _______ _____ _____    ______ ____
ROOT
ATOM      1  C   UNL     1       7.480  -1.016  24.752  0.00  0.00    +0.181 A 
ATOM      2  O   UNL     1       8.600  -0.226  24.424  0.00  0.00    -0.451 OA
ATOM      3  C   UNL     1       8.469   1.118  24.206  0.00  0.00    +0.147 A 
ATOM      4  C   UNL     1       7.243   1.746  24.173  0.00  0.00    +0.109 A 
ATOM      5  C   UNL     1       7.127   3.113  23.902  0.00  0.00    +0.135 A 
ATOM      6  C   UNL     1       8.264   3.869  23.680  0.00  0.00    +0.091 A 
ATOM      7  C   UNL     1       9.504   3.243  23.734  0.00  0.00    +0.124 A 
ATOM      8  C   UNL     1       6.068   0.949  24.445  0.00  0.00    +0.238 A 
ATOM      9  O   UNL     1       4.987   1.524  24.317  0.00  0.00    -0.283 OA
ATOM     10  C   UNL     1       9.617   1.874  23.990  0.00  0.00    +0.092 A 
ATOM     11  C   UNL     1       6.230  -0.490  24.841  0.00  0.00    +0.214 A 
ENDROOT
BRANCH   1  13
ATOM     12  C   UNL     1       8.502  -2.872  26.139  0.00  0.00    +0.015 A 
ATOM     13  C   UNL     1       7.883  -2.473  24.924  0.00  0.00    +0.025 A 
ATOM     14  C   UNL     1       7.790  -3.453  23.923  0.00  0.00    +0.060 A 
ATOM     15  C   UNL     1       8.341  -4.725  24.110  0.00  0.00    +0.159 A 
ATOM     16  C   UNL     1       8.996  -5.062  25.288  0.00  0.00    +0.158 A 
ATOM     17  C   UNL     1       9.060  -4.148  26.320  0.00  0.00    +0.050 A 
BRANCH  16  18
ATOM     18  O   UNL     1       9.573  -6.297  25.371  0.00  0.00    -0.503 OA
ATOM     19  H   UNL     1       9.791  -6.473  26.303  0.00  0.00    +0.292 HD
ENDBRANCH  16  18
BRANCH  15  20
ATOM     20  O   UNL     1       8.258  -5.644  23.098  0.00  0.00    -0.503 OA
ATOM     21  H   UNL     1       7.707  -5.206  22.408  0.00  0.00    +0.292 HD
ENDBRANCH  15  20
ENDBRANCH   1  13
BRANCH   7  22
ATOM     22  O   UNL     1      10.644   3.962  23.521  0.00  0.00    -0.507 OA
ATOM     23  H   UNL     1      10.604   4.349  22.636  0.00  0.00    +0.292 HD
ENDBRANCH   7  22
BRANCH   5  24
ATOM     24  O   UNL     1       5.931   3.775  23.814  0.00  0.00    -0.506 OA
ATOM     25  H   UNL     1       5.212   3.113  23.918  0.00  0.00    +0.292 HD
ENDBRANCH   5  24
BRANCH  11  26
ATOM     26  O   UNL     1       5.119  -1.229  25.235  0.00  0.00    -0.453 OA
BRANCH  26  27
ATOM     27  C   UNL     1       4.898  -1.435  26.652  0.00  0.00    +0.340 C 
ATOM     28  O   UNL     1       5.437  -2.713  26.969  0.00  0.00    -0.330 OA
ATOM     29  C   UNL     1       4.689  -3.707  27.681  0.00  0.00    +0.191 C 
ATOM     30  C   UNL     1       3.136  -3.639  27.599  0.00  0.00    +0.178 C 
ATOM     31  C   UNL     1       2.676  -2.573  26.623  0.00  0.00    +0.180 C 
ATOM     32  C   UNL     1       3.395  -1.285  26.968  0.00  0.00    +0.214 C 
BRANCH  32  33
ATOM     33  O   UNL     1       3.201  -0.972  28.358  0.00  0.00    -0.383 OA
ATOM     34  H   UNL     1       3.400  -1.790  28.855  0.00  0.00    +0.210 HD
ENDBRANCH  32  33
BRANCH  31  35
ATOM     35  O   UNL     1       2.907  -3.017  25.275  0.00  0.00    -0.386 OA
ATOM     36  H   UNL     1       2.063  -3.336  24.897  0.00  0.00    +0.210 HD
ENDBRANCH  31  35
BRANCH  30  37
ATOM     37  O   UNL     1       2.472  -4.857  27.258  0.00  0.00    -0.386 OA
ATOM     38  H   UNL     1       2.784  -5.092  26.358  0.00  0.00    +0.210 HD
ENDBRANCH  30  37
BRANCH  29  39
ATOM     39  C   UNL     1       5.316  -5.003  27.156  0.00  0.00    +0.266 C 
BRANCH  39  40
ATOM     40  O   UNL     1       5.233  -5.111  25.742  0.00  0.00    -0.462 OA
BRANCH  40  41
ATOM     41  C   UNL     1       4.660  -6.257  25.284  0.00  0.00    +0.318 C 
ATOM     42  O   UNL     1       4.044  -7.072  25.961  0.00  0.00    -0.250 OA
BRANCH  41  43
ATOM     43  C   UNL     1       5.034  -6.493  23.860  0.00  0.00    +0.240 C 
BRANCH  43  44
ATOM     44  C   UNL     1       4.526  -5.442  22.925  0.00  0.00    +0.316 C 
ATOM     45  O   UNL     1       3.440  -4.892  22.985  0.00  0.00    -0.250 OA
BRANCH  44  46
ATOM     46  O   UNL     1       5.412  -5.169  21.935  0.00  0.00    -0.480 OA
ATOM     47  H   UNL     1       6.021  -5.904  21.730  0.00  0.00    +0.295 HD
ENDBRANCH  44  46
ENDBRANCH  43  44
ENDBRANCH  41  43
ENDBRANCH  40  41
ENDBRANCH  39  40
ENDBRANCH  29  39
ENDBRANCH  26  27
ENDBRANCH  11  26
TORSDOF 16
ENDMDL
MODEL 6
REMARK VINA RESULT:      -6.2      2.123      8.532
REMARK  Name = 
REMARK  16 active torsions:
REMARK  status: ('A' for Active; 'I' for Inactive)
REMARK    1  A    between atoms: C_3  and  O_44
REMARK    2  A    between atoms: C_4  and  O_43
REMARK    3  A    between atoms: C_6  and  C_7
REMARK    4  A    between atoms: C_8  and  O_20
REMARK    5  A    between atoms: C_12  and  O_19
REMARK    6  A    between atoms: C_14  and  O_18
REMARK    7  A    between atoms: O_20  and  C_21
REMARK    8  A    between atoms: C_23  and  O_42
REMARK    9  A    between atoms: C_25  and  O_41
REMARK   10  A    between atoms: C_27  and  O_40
REMARK   11  A    between atoms: C_29  and  C_32
REMARK   12  A    between atoms: C_32  and  O_33
REMARK   13  A    between atoms: O_33  and  C_34
REMARK   14  A    between atoms: C_34  and  C_36
REMARK   15  A    between atoms: C_36  and  C_37
REMARK   16  A    between atoms: C_37  and  O_39
REMARK                            x       y       z     vdW  Elec       q    Type
REMARK                         _______ _______ _______ _____ _____    ______ ____
ROOT
ATOM      1  C   UNL     1       7.083  -0.546  24.122  0.00  0.00    +0.181 A 
ATOM      2  O   UNL     1       8.276   0.017  23.626  0.00  0.00    -0.451 OA
ATOM      3  C   UNL     1       8.539   1.350  23.782  0.00  0.00    +0.147 A 
ATOM      4  C   UNL     1       7.619   2.228  24.313  0.00  0.00    +0.109 A 
ATOM      5  C   UNL     1       7.889   3.596  24.421  0.00  0.00    +0.135 A 
ATOM      6  C   UNL     1       9.114   4.090  24.008  0.00  0.00    +0.091 A 
ATOM      7  C   UNL     1      10.052   3.204  23.492  0.00  0.00    +0.124 A 
ATOM      8  C   UNL     1       6.360   1.690  24.775  0.00  0.00    +0.238 A 
ATOM      9  O   UNL     1       5.530   2.515  25.156  0.00  0.00    -0.283 OA
ATOM     10  C   UNL     1       9.774   1.839  23.371  0.00  0.00    +0.092 A 
ATOM     11  C   UNL     1       6.139   0.205  24.748  0.00  0.00    +0.214 A 
ENDROOT
BRANCH   1  13
ATOM     12  C   UNL     1       8.080  -2.872  24.246  0.00  0.00    +0.015 A 
ATOM     13  C   UNL     1       7.020  -2.033  23.806  0.00  0.00    +0.025 A 
ATOM     14  C   UNL     1       6.037  -2.641  23.009  0.00  0.00    +0.060 A 
ATOM     15  C   UNL     1       6.149  -3.982  22.628  0.00  0.00    +0.159 A 
ATOM     16  C   UNL     1       7.232  -4.757  23.024  0.00  0.00    +0.158 A 
ATOM     17  C   UNL     1       8.193  -4.216  23.855  0.00  0.00    +0.050 A 
BRANCH  16  18
ATOM     18  O   UNL     1       7.313  -6.036  22.553  0.00  0.00    -0.503 OA
ATOM     19  H   UNL     1       6.564  -6.191  21.951  0.00  0.00    +0.292 HD
ENDBRANCH  16  18
BRANCH  15  20
ATOM     20  O   UNL     1       5.186  -4.531  21.823  0.00  0.00    -0.503 OA
ATOM     21  H   UNL     1       4.755  -5.216  22.384  0.00  0.00    +0.292 HD
ENDBRANCH  15  20
ENDBRANCH   1  13
BRANCH   7  22
ATOM     22  O   UNL     1      11.269   3.660  23.078  0.00  0.00    -0.507 OA
ATOM     23  H   UNL     1      11.841   3.759  23.851  0.00  0.00    +0.292 HD
ENDBRANCH   7  22
BRANCH   5  24
ATOM     24  O   UNL     1       6.994   4.515  24.898  0.00  0.00    -0.506 OA
ATOM     25  H   UNL     1       6.769   5.128  24.163  0.00  0.00    +0.292 HD
ENDBRANCH   5  24
BRANCH  11  26
ATOM     26  O   UNL     1       4.988  -0.335  25.313  0.00  0.00    -0.453 OA
BRANCH  26  27
ATOM     27  C   UNL     1       4.909  -0.425  26.757  0.00  0.00    +0.340 C 
ATOM     28  O   UNL     1       5.578  -1.623  27.130  0.00  0.00    -0.330 OA
ATOM     29  C   UNL     1       4.980  -2.601  27.991  0.00  0.00    +0.191 C 
ATOM     30  C   UNL     1       3.425  -2.658  28.049  0.00  0.00    +0.178 C 
ATOM     31  C   UNL     1       2.795  -1.725  27.033  0.00  0.00    +0.180 C 
ATOM     32  C   UNL     1       3.431  -0.360  27.198  0.00  0.00    +0.214 C 
BRANCH  32  33
ATOM     33  O   UNL     1       3.332   0.065  28.568  0.00  0.00    -0.383 OA
ATOM     34  H   UNL     1       3.572  -0.709  29.115  0.00  0.00    +0.210 HD
ENDBRANCH  32  33
BRANCH  31  35
ATOM     35  O   UNL     1       2.945  -2.273  25.712  0.00  0.00    -0.386 OA
ATOM     36  H   UNL     1       3.893  -2.460  25.552  0.00  0.00    +0.210 HD
ENDBRANCH  31  35
BRANCH  30  37
ATOM     37  O   UNL     1       2.838  -3.949  27.877  0.00  0.00    -0.386 OA
ATOM     38  H   UNL     1       3.406  -4.573  28.379  0.00  0.00    +0.210 HD
ENDBRANCH  30  37
BRANCH  29  39
ATOM     39  C   UNL     1       5.665  -3.889  27.523  0.00  0.00    +0.266 C 
BRANCH  39  40
ATOM     40  O   UNL     1       5.354  -4.209  26.175  0.00  0.00    -0.462 OA
BRANCH  40  41
ATOM     41  C   UNL     1       5.212  -5.538  25.915  0.00  0.00    +0.318 C 
ATOM     42  O   UNL     1       6.031  -6.411  26.178  0.00  0.00    -0.250 OA
BRANCH  41  43
ATOM     43  C   UNL     1       3.993  -5.780  25.093  0.00  0.00    +0.240 C 
BRANCH  43  44
ATOM     44  C   UNL     1       3.964  -7.129  24.447  0.00  0.00    +0.316 C 
ATOM     45  O   UNL     1       3.241  -8.059  24.757  0.00  0.00    -0.250 OA
BRANCH  44  46
ATOM     46  O   UNL     1       4.887  -7.240  23.458  0.00  0.00    -0.480 OA
ATOM     47  H   UNL     1       5.800  -7.372  23.776  0.00  0.00    +0.295 HD
ENDBRANCH  44  46
ENDBRANCH  43  44
ENDBRANCH  41  43
ENDBRANCH  40  41
ENDBRANCH  39  40
ENDBRANCH  29  39
ENDBRANCH  26  27
ENDBRANCH  11  26
TORSDOF 16
ENDMDL
MODEL 7
REMARK VINA RESULT:      -6.0      2.047      7.505
REMARK  Name = 
REMARK  16 active torsions:
REMARK  status: ('A' for Active; 'I' for Inactive)
REMARK    1  A    between atoms: C_3  and  O_44
REMARK    2  A    between atoms: C_4  and  O_43
REMARK    3  A    between atoms: C_6  and  C_7
REMARK    4  A    between atoms: C_8  and  O_20
REMARK    5  A    between atoms: C_12  and  O_19
REMARK    6  A    between atoms: C_14  and  O_18
REMARK    7  A    between atoms: O_20  and  C_21
REMARK    8  A    between atoms: C_23  and  O_42
REMARK    9  A    between atoms: C_25  and  O_41
REMARK   10  A    between atoms: C_27  and  O_40
REMARK   11  A    between atoms: C_29  and  C_32
REMARK   12  A    between atoms: C_32  and  O_33
REMARK   13  A    between atoms: O_33  and  C_34
REMARK   14  A    between atoms: C_34  and  C_36
REMARK   15  A    between atoms: C_36  and  C_37
REMARK   16  A    between atoms: C_37  and  O_39
REMARK                            x       y       z     vdW  Elec       q    Type
REMARK                         _______ _______ _______ _____ _____    ______ ____
ROOT
ATOM      1  C   UNL     1       6.774  -0.507  25.192  0.00  0.00    +0.181 A 
ATOM      2  O   UNL     1       7.338   0.782  25.108  0.00  0.00    -0.451 OA
ATOM      3  C   UNL     1       8.256   1.083  24.140  0.00  0.00    +0.147 A 
ATOM      4  C   UNL     1       8.765   0.133  23.282  0.00  0.00    +0.109 A 
ATOM      5  C   UNL     1       9.738   0.451  22.329  0.00  0.00    +0.135 A 
ATOM      6  C   UNL     1      10.193   1.754  22.220  0.00  0.00    +0.091 A 
ATOM      7  C   UNL     1       9.666   2.719  23.070  0.00  0.00    +0.124 A 
ATOM      8  C   UNL     1       8.251  -1.214  23.384  0.00  0.00    +0.238 A 
ATOM      9  O   UNL     1       8.795  -2.053  22.666  0.00  0.00    -0.283 OA
ATOM     10  C   UNL     1       8.705   2.395  24.032  0.00  0.00    +0.092 A 
ATOM     11  C   UNL     1       7.130  -1.504  24.340  0.00  0.00    +0.214 A 
ENDROOT
BRANCH   1  13
ATOM     12  C   UNL     1       6.005   0.255  27.482  0.00  0.00    +0.015 A 
ATOM     13  C   UNL     1       5.802  -0.593  26.359  0.00  0.00    +0.025 A 
ATOM     14  C   UNL     1       4.763  -1.530  26.468  0.00  0.00    +0.060 A 
ATOM     15  C   UNL     1       4.025  -1.650  27.651  0.00  0.00    +0.159 A 
ATOM     16  C   UNL     1       4.292  -0.848  28.753  0.00  0.00    +0.158 A 
ATOM     17  C   UNL     1       5.267   0.127  28.670  0.00  0.00    +0.050 A 
BRANCH  16  18
ATOM     18  O   UNL     1       3.582  -1.071  29.898  0.00  0.00    -0.503 OA
ATOM     19  H   UNL     1       3.457  -2.030  30.001  0.00  0.00    +0.292 HD
ENDBRANCH  16  18
BRANCH  15  20
ATOM     20  O   UNL     1       3.040  -2.599  27.731  0.00  0.00    -0.503 OA
ATOM     21  H   UNL     1       2.516  -2.482  26.904  0.00  0.00    +0.292 HD
ENDBRANCH  15  20
ENDBRANCH   1  13
BRANCH   7  22
ATOM     22  O   UNL     1      10.093   4.012  22.985  0.00  0.00    -0.507 OA
ATOM     23  H   UNL     1      11.059   4.016  22.951  0.00  0.00    +0.292 HD
ENDBRANCH   7  22
BRANCH   5  24
ATOM     24  O   UNL     1      10.308  -0.464  21.485  0.00  0.00    -0.506 OA
ATOM     25  H   UNL     1      10.681   0.025  20.718  0.00  0.00    +0.292 HD
ENDBRANCH   5  24
BRANCH  11  26
ATOM     26  O   UNL     1       6.537  -2.763  24.351  0.00  0.00    -0.453 OA
BRANCH  26  27
ATOM     27  C   UNL     1       5.634  -3.106  23.270  0.00  0.00    +0.340 C 
ATOM     28  O   UNL     1       4.412  -3.515  23.872  0.00  0.00    -0.330 OA
ATOM     29  C   UNL     1       3.762  -4.746  23.530  0.00  0.00    +0.191 C 
ATOM     30  C   UNL     1       4.644  -5.896  22.962  0.00  0.00    +0.178 C 
ATOM     31  C   UNL     1       6.118  -5.541  23.007  0.00  0.00    +0.180 C 
ATOM     32  C   UNL     1       6.288  -4.177  22.371  0.00  0.00    +0.214 C 
BRANCH  32  33
ATOM     33  O   UNL     1       5.693  -4.168  21.062  0.00  0.00    -0.383 OA
ATOM     34  H   UNL     1       5.798  -3.259  20.719  0.00  0.00    +0.210 HD
ENDBRANCH  32  33
BRANCH  31  35
ATOM     35  O   UNL     1       6.591  -5.607  24.363  0.00  0.00    -0.386 OA
ATOM     36  H   UNL     1       5.834  -5.475  24.970  0.00  0.00    +0.210 HD
ENDBRANCH  31  35
BRANCH  30  37
ATOM     37  O   UNL     1       4.484  -7.173  23.580  0.00  0.00    -0.386 OA
ATOM     38  H   UNL     1       4.061  -7.002  24.449  0.00  0.00    +0.210 HD
ENDBRANCH  30  37
BRANCH  29  39
ATOM     39  C   UNL     1       3.015  -5.074  24.827  0.00  0.00    +0.266 C 
BRANCH  39  40
ATOM     40  O   UNL     1       3.826  -4.894  25.980  0.00  0.00    -0.462 OA
BRANCH  40  41
ATOM     41  C   UNL     1       4.072  -6.025  26.695  0.00  0.00    +0.318 C 
ATOM     42  O   UNL     1       3.632  -7.142  26.445  0.00  0.00    -0.250 OA
BRANCH  41  43
ATOM     43  C   UNL     1       4.813  -5.698  27.947  0.00  0.00    +0.240 C 
BRANCH  43  44
ATOM     44  C   UNL     1       6.268  -5.432  27.730  0.00  0.00    +0.316 C 
ATOM     45  O   UNL     1       7.193  -6.043  28.235  0.00  0.00    -0.250 OA
BRANCH  44  46
ATOM     46  O   UNL     1       6.476  -4.374  26.906  0.00  0.00    -0.480 OA
ATOM     47  H   UNL     1       7.288  -4.439  26.369  0.00  0.00    +0.295 HD
ENDBRANCH  44  46
ENDBRANCH  43  44
ENDBRANCH  41  43
ENDBRANCH  40  41
ENDBRANCH  39  40
ENDBRANCH  29  39
ENDBRANCH  26  27
ENDBRANCH  11  26
TORSDOF 16
ENDMDL
MODEL 8
REMARK VINA RESULT:      -5.9      2.420      6.640
REMARK  Name = 
REMARK  16 active torsions:
REMARK  status: ('A' for Active; 'I' for Inactive)
REMARK    1  A    between atoms: C_3  and  O_44
REMARK    2  A    between atoms: C_4  and  O_43
REMARK    3  A    between atoms: C_6  and  C_7
REMARK    4  A    between atoms: C_8  and  O_20
REMARK    5  A    between atoms: C_12  and  O_19
REMARK    6  A    between atoms: C_14  and  O_18
REMARK    7  A    between atoms: O_20  and  C_21
REMARK    8  A    between atoms: C_23  and  O_42
REMARK    9  A    between atoms: C_25  and  O_41
REMARK   10  A    between atoms: C_27  and  O_40
REMARK   11  A    between atoms: C_29  and  C_32
REMARK   12  A    between atoms: C_32  and  O_33
REMARK   13  A    between atoms: O_33  and  C_34
REMARK   14  A    between atoms: C_34  and  C_36
REMARK   15  A    between atoms: C_36  and  C_37
REMARK   16  A    between atoms: C_37  and  O_39
REMARK                            x       y       z     vdW  Elec       q    Type
REMARK                         _______ _______ _______ _____ _____    ______ ____
ROOT
ATOM      1  C   UNL     1       6.208   2.598  25.341  0.00  0.00    +0.181 A 
ATOM      2  O   UNL     1       5.129   2.983  26.162  0.00  0.00    -0.451 OA
ATOM      3  C   UNL     1       4.620   2.126  27.098  0.00  0.00    +0.147 A 
ATOM      4  C   UNL     1       5.040   0.819  27.209  0.00  0.00    +0.109 A 
ATOM      5  C   UNL     1       4.474  -0.057  28.142  0.00  0.00    +0.135 A 
ATOM      6  C   UNL     1       3.481   0.395  28.994  0.00  0.00    +0.091 A 
ATOM      7  C   UNL     1       3.070   1.719  28.899  0.00  0.00    +0.124 A 
ATOM      8  C   UNL     1       6.104   0.374  26.338  0.00  0.00    +0.238 A 
ATOM      9  O   UNL     1       6.388  -0.822  26.403  0.00  0.00    -0.283 OA
ATOM     10  C   UNL     1       3.627   2.588  27.956  0.00  0.00    +0.092 A 
ATOM     11  C   UNL     1       6.768   1.362  25.423  0.00  0.00    +0.214 A 
ENDROOT
BRANCH   1  13
ATOM     12  C   UNL     1       5.599   4.154  23.438  0.00  0.00    +0.015 A 
ATOM     13  C   UNL     1       6.573   3.715  24.375  0.00  0.00    +0.025 A 
ATOM     14  C   UNL     1       7.849   4.287  24.259  0.00  0.00    +0.060 A 
ATOM     15  C   UNL     1       8.141   5.188  23.229  0.00  0.00    +0.159 A 
ATOM     16  C   UNL     1       7.183   5.548  22.291  0.00  0.00    +0.158 A 
ATOM     17  C   UNL     1       5.898   5.053  22.401  0.00  0.00    +0.050 A 
BRANCH  16  18
ATOM     18  O   UNL     1       7.560   6.374  21.271  0.00  0.00    -0.503 OA
ATOM     19  H   UNL     1       8.525   6.492  21.311  0.00  0.00    +0.292 HD
ENDBRANCH  16  18
BRANCH  15  20
ATOM     20  O   UNL     1       9.408   5.701  23.129  0.00  0.00    -0.503 OA
ATOM     21  H   UNL     1       9.351   6.588  23.554  0.00  0.00    +0.292 HD
ENDBRANCH  15  20
ENDBRANCH   1  13
BRANCH   7  22
ATOM     22  O   UNL     1       2.096   2.195  29.727  0.00  0.00    -0.507 OA
ATOM     23  H   UNL     1       1.592   2.871  29.253  0.00  0.00    +0.292 HD
ENDBRANCH   7  22
BRANCH   5  24
ATOM     24  O   UNL     1       4.824  -1.375  28.262  0.00  0.00    -0.506 OA
ATOM     25  H   UNL     1       3.996  -1.905  28.295  0.00  0.00    +0.292 HD
ENDBRANCH   5  24
BRANCH  11  26
ATOM     26  O   UNL     1       7.880   0.979  24.679  0.00  0.00    -0.453 OA
BRANCH  26  27
ATOM     27  C   UNL     1       7.701   0.710  23.267  0.00  0.00    +0.340 C 
ATOM     28  O   UNL     1       7.501  -0.693  23.140  0.00  0.00    -0.330 OA
ATOM     29  C   UNL     1       8.254  -1.496  22.221  0.00  0.00    +0.191 C 
ATOM     30  C   UNL     1       9.660  -0.980  21.795  0.00  0.00    +0.178 C 
ATOM     31  C   UNL     1      10.056   0.262  22.571  0.00  0.00    +0.180 C 
ATOM     32  C   UNL     1       8.914   1.252  22.480  0.00  0.00    +0.214 C 
BRANCH  32  33
ATOM     33  O   UNL     1       8.562   1.472  21.103  0.00  0.00    -0.383 OA
ATOM     34  H   UNL     1       8.677   2.429  20.940  0.00  0.00    +0.210 HD
ENDBRANCH  32  33
BRANCH  31  35
ATOM     35  O   UNL     1      10.400  -0.098  23.919  0.00  0.00    -0.386 OA
ATOM     36  H   UNL     1      10.949  -0.908  23.901  0.00  0.00    +0.210 HD
ENDBRANCH  31  35
BRANCH  30  37
ATOM     37  O   UNL     1      10.731  -1.919  21.899  0.00  0.00    -0.386 OA
ATOM     38  H   UNL     1      11.550  -1.386  21.991  0.00  0.00    +0.210 HD
ENDBRANCH  30  37
BRANCH  29  39
ATOM     39  C   UNL     1       8.242  -2.860  22.919  0.00  0.00    +0.266 C 
BRANCH  39  40
ATOM     40  O   UNL     1       9.143  -2.916  24.016  0.00  0.00    -0.462 OA
BRANCH  40  41
ATOM     41  C   UNL     1       9.191  -4.113  24.662  0.00  0.00    +0.318 C 
ATOM     42  O   UNL     1      10.198  -4.786  24.852  0.00  0.00    -0.250 OA
BRANCH  41  43
ATOM     43  C   UNL     1       7.814  -4.600  24.959  0.00  0.00    +0.240 C 
BRANCH  43  44
ATOM     44  C   UNL     1       7.698  -5.301  26.275  0.00  0.00    +0.316 C 
ATOM     45  O   UNL     1       6.797  -6.049  26.613  0.00  0.00    -0.250 OA
BRANCH  44  46
ATOM     46  O   UNL     1       8.718  -4.986  27.113  0.00  0.00    -0.480 OA
ATOM     47  H   UNL     1       8.551  -5.211  28.048  0.00  0.00    +0.295 HD
ENDBRANCH  44  46
ENDBRANCH  43  44
ENDBRANCH  41  43
ENDBRANCH  40  41
ENDBRANCH  39  40
ENDBRANCH  29  39
ENDBRANCH  26  27
ENDBRANCH  11  26
TORSDOF 16
ENDMDL
MODEL 9
REMARK VINA RESULT:      -5.7      2.315      7.531
REMARK  Name = 
REMARK  16 active torsions:
REMARK  status: ('A' for Active; 'I' for Inactive)
REMARK    1  A    between atoms: C_3  and  O_44
REMARK    2  A    between atoms: C_4  and  O_43
REMARK    3  A    between atoms: C_6  and  C_7
REMARK    4  A    between atoms: C_8  and  O_20
REMARK    5  A    between atoms: C_12  and  O_19
REMARK    6  A    between atoms: C_14  and  O_18
REMARK    7  A    between atoms: O_20  and  C_21
REMARK    8  A    between atoms: C_23  and  O_42
REMARK    9  A    between atoms: C_25  and  O_41
REMARK   10  A    between atoms: C_27  and  O_40
REMARK   11  A    between atoms: C_29  and  C_32
REMARK   12  A    between atoms: C_32  and  O_33
REMARK   13  A    between atoms: O_33  and  C_34
REMARK   14  A    between atoms: C_34  and  C_36
REMARK   15  A    between atoms: C_36  and  C_37
REMARK   16  A    between atoms: C_37  and  O_39
REMARK                            x       y       z     vdW  Elec       q    Type
REMARK                         _______ _______ _______ _____ _____    ______ ____
ROOT
ATOM      1  C   UNL     1       6.835   0.392  25.344  0.00  0.00    +0.181 A 
ATOM      2  O   UNL     1       5.773   1.318  25.360  0.00  0.00    -0.451 OA
ATOM      3  C   UNL     1       4.694   1.132  26.179  0.00  0.00    +0.147 A 
ATOM      4  C   UNL     1       4.524  -0.010  26.931  0.00  0.00    +0.109 A 
ATOM      5  C   UNL     1       3.389  -0.203  27.726  0.00  0.00    +0.135 A 
ATOM      6  C   UNL     1       2.416   0.779  27.784  0.00  0.00    +0.091 A 
ATOM      7  C   UNL     1       2.594   1.942  27.043  0.00  0.00    +0.124 A 
ATOM      8  C   UNL     1       5.569  -1.008  26.888  0.00  0.00    +0.238 A 
ATOM      9  O   UNL     1       5.339  -2.052  27.499  0.00  0.00    -0.283 OA
ATOM     10  C   UNL     1       3.721   2.125  26.237  0.00  0.00    +0.092 A 
ATOM     11  C   UNL     1       6.824  -0.728  26.114  0.00  0.00    +0.214 A 
ENDROOT
BRANCH   1  13
ATOM     12  C   UNL     1       9.098   1.404  24.823  0.00  0.00    +0.015 A 
ATOM     13  C   UNL     1       7.899   0.813  24.341  0.00  0.00    +0.025 A 
ATOM     14  C   UNL     1       7.749   0.762  22.946  0.00  0.00    +0.060 A 
ATOM     15  C   UNL     1       8.708   1.327  22.100  0.00  0.00    +0.159 A 
ATOM     16  C   UNL     1       9.839   1.954  22.607  0.00  0.00    +0.158 A 
ATOM     17  C   UNL     1      10.055   1.976  23.971  0.00  0.00    +0.050 A 
BRANCH  16  18
ATOM     18  O   UNL     1      10.695   2.548  21.724  0.00  0.00    -0.503 OA
ATOM     19  H   UNL     1      11.209   3.224  22.200  0.00  0.00    +0.292 HD
ENDBRANCH  16  18
BRANCH  15  20
ATOM     20  O   UNL     1       8.511   1.286  20.745  0.00  0.00    -0.503 OA
ATOM     21  H   UNL     1       9.413   1.381  20.360  0.00  0.00    +0.292 HD
ENDBRANCH  15  20
ENDBRANCH   1  13
BRANCH   7  22
ATOM     22  O   UNL     1       1.653   2.929  27.082  0.00  0.00    -0.507 OA
ATOM     23  H   UNL     1       0.784   2.532  26.938  0.00  0.00    +0.292 HD
ENDBRANCH   7  22
BRANCH   5  24
ATOM     24  O   UNL     1       3.153  -1.336  28.456  0.00  0.00    -0.506 OA
ATOM     25  H   UNL     1       2.181  -1.485  28.476  0.00  0.00    +0.292 HD
ENDBRANCH   5  24
BRANCH  11  26
ATOM     26  O   UNL     1       7.889  -1.621  26.175  0.00  0.00    -0.453 OA
BRANCH  26  27
ATOM     27  C   UNL     1       8.040  -2.584  25.102  0.00  0.00    +0.340 C 
ATOM     28  O   UNL     1       6.728  -2.921  24.668  0.00  0.00    -0.330 OA
ATOM     29  C   UNL     1       6.286  -4.279  24.540  0.00  0.00    +0.191 C 
ATOM     30  C   UNL     1       6.998  -5.356  25.410  0.00  0.00    +0.178 C 
ATOM     31  C   UNL     1       7.977  -4.727  26.383  0.00  0.00    +0.180 C 
ATOM     32  C   UNL     1       8.871  -3.786  25.601  0.00  0.00    +0.214 C 
BRANCH  32  33
ATOM     33  O   UNL     1       9.466  -4.482  24.492  0.00  0.00    -0.383 OA
ATOM     34  H   UNL     1      10.311  -4.849  24.819  0.00  0.00    +0.210 HD
ENDBRANCH  32  33
BRANCH  31  35
ATOM     35  O   UNL     1       7.257  -4.084  27.448  0.00  0.00    -0.386 OA
ATOM     36  H   UNL     1       6.871  -4.771  28.029  0.00  0.00    +0.210 HD
ENDBRANCH  31  35
BRANCH  30  37
ATOM     37  O   UNL     1       6.145  -6.227  26.152  0.00  0.00    -0.386 OA
ATOM     38  H   UNL     1       5.231  -6.036  25.847  0.00  0.00    +0.210 HD
ENDBRANCH  30  37
BRANCH  29  39
ATOM     39  C   UNL     1       4.779  -4.139  24.776  0.00  0.00    +0.266 C 
BRANCH  39  40
ATOM     40  O   UNL     1       4.035  -4.181  23.566  0.00  0.00    -0.462 OA
BRANCH  40  41
ATOM     41  C   UNL     1       4.015  -5.390  22.942  0.00  0.00    +0.318 C 
ATOM     42  O   UNL     1       4.751  -5.736  22.025  0.00  0.00    -0.250 OA
BRANCH  41  43
ATOM     43  C   UNL     1       2.846  -6.194  23.401  0.00  0.00    +0.240 C 
BRANCH  43  44
ATOM     44  C   UNL     1       3.227  -7.474  24.074  0.00  0.00    +0.316 C 
ATOM     45  O   UNL     1       2.457  -8.297  24.538  0.00  0.00    -0.250 OA
BRANCH  44  46
ATOM     46  O   UNL     1       4.572  -7.626  24.157  0.00  0.00    -0.480 OA
ATOM     47  H   UNL     1       5.021  -7.686  23.292  0.00  0.00    +0.295 HD
ENDBRANCH  44  46
ENDBRANCH  43  44
ENDBRANCH  41  43
ENDBRANCH  40  41
ENDBRANCH  39  40
ENDBRANCH  29  39
ENDBRANCH  26  27
ENDBRANCH  11  26
TORSDOF 16
ENDMDL
