MODEL 1
REMARK VINA RESULT:      -8.0      0.000      0.000
REMARK  Name = 
REMARK  12 active torsions:
REMARK  status: ('A' for Active; 'I' for Inactive)
REMARK    1  A    between atoms: C_3  and  O_35
REMARK    2  A    between atoms: C_4  and  O_21
REMARK    3  A    between atoms: C_6  and  C_7
REMARK    4  A    between atoms: C_8  and  O_20
REMARK    5  A    between atoms: C_12  and  O_19
REMARK    6  A    between atoms: C_14  and  O_18
REMARK    7  A    between atoms: O_21  and  C_22
REMARK    8  A    between atoms: C_24  and  O_34
REMARK    9  A    between atoms: C_25  and  O_33
REMARK   10  A    between atoms: C_26  and  O_32
REMARK   11  A    between atoms: C_28  and  C_30
REMARK   12  A    between atoms: C_30  and  O_31
REMARK                            x       y       z     vdW  Elec       q    Type
REMARK                         _______ _______ _______ _____ _____    ______ ____
ROOT
ATOM      1  C   UNL     1       9.395  -2.164  23.016  0.00  0.00    +0.015 A 
ATOM      2  C   UNL     1       8.085  -2.077  23.521  0.00  0.00    +0.025 A 
ATOM      3  C   UNL     1       7.375  -0.901  23.213  0.00  0.00    +0.061 A 
ATOM      4  C   UNL     1       7.953   0.185  22.500  0.00  0.00    +0.166 A 
ATOM      5  C   UNL     1       9.270   0.079  22.079  0.00  0.00    +0.159 A 
ATOM      6  C   UNL     1       9.989  -1.093  22.329  0.00  0.00    +0.050 A 
ENDROOT
BRANCH   2   7
ATOM      7  C   UNL     1       7.486  -3.169  24.361  0.00  0.00    +0.181 A 
ATOM      8  O   UNL     1       6.633  -4.033  23.661  0.00  0.00    -0.451 OA
ATOM      9  C   UNL     1       5.977  -5.034  24.349  0.00  0.00    +0.147 A 
ATOM     10  C   UNL     1       6.204  -5.299  25.696  0.00  0.00    +0.109 A 
ATOM     11  C   UNL     1       5.518  -6.334  26.347  0.00  0.00    +0.135 A 
ATOM     12  C   UNL     1       4.589  -7.106  25.659  0.00  0.00    +0.091 A 
ATOM     13  C   UNL     1       4.362  -6.830  24.316  0.00  0.00    +0.124 A 
ATOM     14  C   UNL     1       7.151  -4.452  26.417  0.00  0.00    +0.238 A 
ATOM     15  O   UNL     1       7.409  -4.694  27.594  0.00  0.00    -0.283 OA
ATOM     16  C   UNL     1       5.045  -5.811  23.654  0.00  0.00    +0.092 A 
ATOM     17  C   UNL     1       7.733  -3.296  25.686  0.00  0.00    +0.208 A 
BRANCH  11  18
ATOM     18  O   UNL     1       5.704  -6.640  27.669  0.00  0.00    -0.506 OA
ATOM     19  H   UNL     1       6.098  -7.537  27.724  0.00  0.00    +0.292 HD
ENDBRANCH  11  18
BRANCH  13  20
ATOM     20  O   UNL     1       3.456  -7.560  23.607  0.00  0.00    -0.507 OA
ATOM     21  H   UNL     1       3.775  -7.659  22.695  0.00  0.00    +0.292 HD
ENDBRANCH  13  20
BRANCH  17  22
ATOM     22  O   UNL     1       8.475  -2.417  26.453  0.00  0.00    -0.501 OA
ATOM     23  H   UNL     1       8.690  -1.640  25.912  0.00  0.00    +0.292 HD
ENDBRANCH  17  22
ENDBRANCH   2   7
BRANCH   5  24
ATOM     24  O   UNL     1       9.881   1.113  21.438  0.00  0.00    -0.503 OA
ATOM     25  H   UNL     1      10.828   1.113  21.655  0.00  0.00    +0.292 HD
ENDBRANCH   5  24
BRANCH   4  26
ATOM     26  O   UNL     1       7.132   1.262  22.404  0.00  0.00    -0.457 OA
BRANCH  26  27
ATOM     27  C   UNL     1       7.397   2.623  22.781  0.00  0.00    +0.339 C 
ATOM     28  O   UNL     1       8.761   3.037  22.967  0.00  0.00    -0.331 OA
ATOM     29  C   UNL     1       8.841   4.177  23.865  0.00  0.00    +0.179 C 
ATOM     30  C   UNL     1       7.944   5.366  23.439  0.00  0.00    +0.177 C 
ATOM     31  C   UNL     1       6.552   4.929  22.983  0.00  0.00    +0.180 C 
ATOM     32  C   UNL     1       6.594   3.711  22.043  0.00  0.00    +0.214 C 
BRANCH  30  33
ATOM     33  O   UNL     1       8.535   6.125  22.376  0.00  0.00    -0.386 OA
ATOM     34  H   UNL     1       8.413   5.567  21.578  0.00  0.00    +0.210 HD
ENDBRANCH  30  33
BRANCH  31  35
ATOM     35  O   UNL     1       5.905   6.044  22.344  0.00  0.00    -0.386 OA
ATOM     36  H   UNL     1       6.426   6.830  22.607  0.00  0.00    +0.210 HD
ENDBRANCH  31  35
BRANCH  32  37
ATOM     37  O   UNL     1       5.226   3.349  21.790  0.00  0.00    -0.383 OA
ATOM     38  H   UNL     1       4.810   4.113  21.349  0.00  0.00    +0.210 HD
ENDBRANCH  32  37
BRANCH  29  39
ATOM     39  C   UNL     1      10.295   4.669  24.032  0.00  0.00    +0.190 C 
BRANCH  39  40
ATOM     40  O   UNL     1      11.119   4.378  22.904  0.00  0.00    -0.392 OA
ATOM     41  H   UNL     1      11.588   5.188  22.651  0.00  0.00    +0.210 HD
ENDBRANCH  39  40
ENDBRANCH  29  39
ENDBRANCH  26  27
ENDBRANCH   4  26
TORSDOF 12
ENDMDL
MODEL 2
REMARK VINA RESULT:      -7.9      1.213      1.721
REMARK  Name = 
REMARK  12 active torsions:
REMARK  status: ('A' for Active; 'I' for Inactive)
REMARK    1  A    between atoms: C_3  and  O_35
REMARK    2  A    between atoms: C_4  and  O_21
REMARK    3  A    between atoms: C_6  and  C_7
REMARK    4  A    between atoms: C_8  and  O_20
REMARK    5  A    between atoms: C_12  and  O_19
REMARK    6  A    between atoms: C_14  and  O_18
REMARK    7  A    between atoms: O_21  and  C_22
REMARK    8  A    between atoms: C_24  and  O_34
REMARK    9  A    between atoms: C_25  and  O_33
REMARK   10  A    between atoms: C_26  and  O_32
REMARK   11  A    between atoms: C_28  and  C_30
REMARK   12  A    between atoms: C_30  and  O_31
REMARK                            x       y       z     vdW  Elec       q    Type
REMARK                         _______ _______ _______ _____ _____    ______ ____
ROOT
ATOM      1  C   UNL     1       9.564  -1.432  23.151  0.00  0.00    +0.015 A 
ATOM      2  C   UNL     1       8.187  -1.545  23.410  0.00  0.00    +0.025 A 
ATOM      3  C   UNL     1       7.374  -0.501  22.928  0.00  0.00    +0.061 A 
ATOM      4  C   UNL     1       7.900   0.650  22.281  0.00  0.00    +0.166 A 
ATOM      5  C   UNL     1       9.272   0.746  22.106  0.00  0.00    +0.159 A 
ATOM      6  C   UNL     1      10.103  -0.293  22.532  0.00  0.00    +0.050 A 
ENDROOT
BRANCH   2   7
ATOM      7  C   UNL     1       7.619  -2.704  24.180  0.00  0.00    +0.181 A 
ATOM      8  O   UNL     1       6.734  -3.505  23.446  0.00  0.00    -0.451 OA
ATOM      9  C   UNL     1       6.102  -4.560  24.073  0.00  0.00    +0.147 A 
ATOM     10  C   UNL     1       6.383  -4.938  25.382  0.00  0.00    +0.109 A 
ATOM     11  C   UNL     1       5.720  -6.024  25.972  0.00  0.00    +0.135 A 
ATOM     12  C   UNL     1       4.761  -6.734  25.261  0.00  0.00    +0.091 A 
ATOM     13  C   UNL     1       4.480  -6.346  23.956  0.00  0.00    +0.124 A 
ATOM     14  C   UNL     1       7.362  -4.155  26.133  0.00  0.00    +0.238 A 
ATOM     15  O   UNL     1       7.668  -4.496  27.273  0.00  0.00    -0.283 OA
ATOM     16  C   UNL     1       5.139  -5.275  23.355  0.00  0.00    +0.092 A 
ATOM     17  C   UNL     1       7.919  -2.942  25.478  0.00  0.00    +0.208 A 
BRANCH  11  18
ATOM     18  O   UNL     1       5.960  -6.440  27.254  0.00  0.00    -0.506 OA
ATOM     19  H   UNL     1       5.355  -7.187  27.453  0.00  0.00    +0.292 HD
ENDBRANCH  11  18
BRANCH  13  20
ATOM     20  O   UNL     1       3.543  -7.013  23.226  0.00  0.00    -0.507 OA
ATOM     21  H   UNL     1       3.616  -6.744  22.296  0.00  0.00    +0.292 HD
ENDBRANCH  13  20
BRANCH  17  22
ATOM     22  O   UNL     1       8.695  -2.131  26.285  0.00  0.00    -0.501 OA
ATOM     23  H   UNL     1       8.271  -1.260  26.349  0.00  0.00    +0.292 HD
ENDBRANCH  17  22
ENDBRANCH   2   7
BRANCH   5  24
ATOM     24  O   UNL     1       9.825   1.853  21.537  0.00  0.00    -0.503 OA
ATOM     25  H   UNL     1      10.629   1.600  21.053  0.00  0.00    +0.292 HD
ENDBRANCH   5  24
BRANCH   4  26
ATOM     26  O   UNL     1       6.956   1.581  21.992  0.00  0.00    -0.457 OA
BRANCH  26  27
ATOM     27  C   UNL     1       6.706   2.834  22.652  0.00  0.00    +0.339 C 
ATOM     28  O   UNL     1       7.141   4.049  22.019  0.00  0.00    -0.331 OA
ATOM     29  C   UNL     1       7.350   5.101  23.000  0.00  0.00    +0.179 C 
ATOM     30  C   UNL     1       6.123   5.349  23.912  0.00  0.00    +0.177 C 
ATOM     31  C   UNL     1       5.471   4.055  24.400  0.00  0.00    +0.180 C 
ATOM     32  C   UNL     1       5.309   3.015  23.276  0.00  0.00    +0.214 C 
BRANCH  30  33
ATOM     33  O   UNL     1       5.115   6.125  23.251  0.00  0.00    -0.386 OA
ATOM     34  H   UNL     1       5.293   7.048  23.532  0.00  0.00    +0.210 HD
ENDBRANCH  30  33
BRANCH  31  35
ATOM     35  O   UNL     1       4.197   4.374  24.987  0.00  0.00    -0.386 OA
ATOM     36  H   UNL     1       3.533   4.130  24.310  0.00  0.00    +0.210 HD
ENDBRANCH  31  35
BRANCH  32  37
ATOM     37  O   UNL     1       4.793   1.827  23.898  0.00  0.00    -0.383 OA
ATOM     38  H   UNL     1       4.499   2.082  24.792  0.00  0.00    +0.210 HD
ENDBRANCH  32  37
BRANCH  29  39
ATOM     39  C   UNL     1       7.765   6.428  22.330  0.00  0.00    +0.190 C 
BRANCH  39  40
ATOM     40  O   UNL     1       6.974   6.753  21.188  0.00  0.00    -0.392 OA
ATOM     41  H   UNL     1       7.568   6.910  20.439  0.00  0.00    +0.210 HD
ENDBRANCH  39  40
ENDBRANCH  29  39
ENDBRANCH  26  27
ENDBRANCH   4  26
TORSDOF 12
ENDMDL
MODEL 3
REMARK VINA RESULT:      -7.8      1.485      2.553
REMARK  Name = 
REMARK  12 active torsions:
REMARK  status: ('A' for Active; 'I' for Inactive)
REMARK    1  A    between atoms: C_3  and  O_35
REMARK    2  A    between atoms: C_4  and  O_21
REMARK    3  A    between atoms: C_6  and  C_7
REMARK    4  A    between atoms: C_8  and  O_20
REMARK    5  A    between atoms: C_12  and  O_19
REMARK    6  A    between atoms: C_14  and  O_18
REMARK    7  A    between atoms: O_21  and  C_22
REMARK    8  A    between atoms: C_24  and  O_34
REMARK    9  A    between atoms: C_25  and  O_33
REMARK   10  A    between atoms: C_26  and  O_32
REMARK   11  A    between atoms: C_28  and  C_30
REMARK   12  A    between atoms: C_30  and  O_31
REMARK                            x       y       z     vdW  Elec       q    Type
REMARK                         _______ _______ _______ _____ _____    ______ ____
ROOT
ATOM      1  C   UNL     1       9.413  -2.190  23.667  0.00  0.00    +0.015 A 
ATOM      2  C   UNL     1       8.077  -2.042  24.075  0.00  0.00    +0.025 A 
ATOM      3  C   UNL     1       7.697  -0.759  24.514  0.00  0.00    +0.061 A 
ATOM      4  C   UNL     1       8.614   0.322  24.621  0.00  0.00    +0.166 A 
ATOM      5  C   UNL     1       9.938   0.109  24.268  0.00  0.00    +0.159 A 
ATOM      6  C   UNL     1      10.338  -1.140  23.786  0.00  0.00    +0.050 A 
ENDROOT
BRANCH   2   7
ATOM      7  C   UNL     1       7.113  -3.195  24.065  0.00  0.00    +0.181 A 
ATOM      8  O   UNL     1       6.934  -3.808  25.312  0.00  0.00    -0.451 OA
ATOM      9  C   UNL     1       6.120  -4.919  25.406  0.00  0.00    +0.147 A 
ATOM     10  C   UNL     1       5.376  -5.403  24.334  0.00  0.00    +0.109 A 
ATOM     11  C   UNL     1       4.556  -6.530  24.482  0.00  0.00    +0.135 A 
ATOM     12  C   UNL     1       4.482  -7.192  25.702  0.00  0.00    +0.091 A 
ATOM     13  C   UNL     1       5.234  -6.708  26.766  0.00  0.00    +0.124 A 
ATOM     14  C   UNL     1       5.497  -4.723  23.046  0.00  0.00    +0.238 A 
ATOM     15  O   UNL     1       4.813  -5.096  22.095  0.00  0.00    -0.283 OA
ATOM     16  C   UNL     1       6.045  -5.582  26.634  0.00  0.00    +0.092 A 
ATOM     17  C   UNL     1       6.487  -3.620  22.942  0.00  0.00    +0.208 A 
BRANCH  11  18
ATOM     18  O   UNL     1       3.801  -7.047  23.463  0.00  0.00    -0.506 OA
ATOM     19  H   UNL     1       4.383  -7.174  22.684  0.00  0.00    +0.292 HD
ENDBRANCH  11  18
BRANCH  13  20
ATOM     20  O   UNL     1       5.194  -7.330  27.977  0.00  0.00    -0.507 OA
ATOM     21  H   UNL     1       5.597  -6.751  28.644  0.00  0.00    +0.292 HD
ENDBRANCH  13  20
BRANCH  17  22
ATOM     22  O   UNL     1       6.703  -3.129  21.667  0.00  0.00    -0.501 OA
ATOM     23  H   UNL     1       7.048  -3.848  21.113  0.00  0.00    +0.292 HD
ENDBRANCH  17  22
ENDBRANCH   2   7
BRANCH   5  24
ATOM     24  O   UNL     1      10.862   1.100  24.403  0.00  0.00    -0.503 OA
ATOM     25  H   UNL     1      10.484   1.824  24.929  0.00  0.00    +0.292 HD
ENDBRANCH   5  24
BRANCH   4  26
ATOM     26  O   UNL     1       8.066   1.439  25.165  0.00  0.00    -0.457 OA
BRANCH  26  27
ATOM     27  C   UNL     1       7.833   2.713  24.542  0.00  0.00    +0.339 C 
ATOM     28  O   UNL     1       8.954   3.578  24.293  0.00  0.00    -0.331 OA
ATOM     29  C   UNL     1       8.534   4.967  24.223  0.00  0.00    +0.179 C 
ATOM     30  C   UNL     1       7.391   5.219  23.209  0.00  0.00    +0.177 C 
ATOM     31  C   UNL     1       6.293   4.158  23.272  0.00  0.00    +0.180 C 
ATOM     32  C   UNL     1       6.858   2.728  23.349  0.00  0.00    +0.214 C 
BRANCH  30  33
ATOM     33  O   UNL     1       7.876   5.269  21.861  0.00  0.00    -0.386 OA
ATOM     34  H   UNL     1       7.100   5.549  21.331  0.00  0.00    +0.210 HD
ENDBRANCH  30  33
BRANCH  31  35
ATOM     35  O   UNL     1       5.441   4.308  22.122  0.00  0.00    -0.386 OA
ATOM     36  H   UNL     1       4.562   4.543  22.481  0.00  0.00    +0.210 HD
ENDBRANCH  31  35
BRANCH  32  37
ATOM     37  O   UNL     1       5.727   1.856  23.515  0.00  0.00    -0.383 OA
ATOM     38  H   UNL     1       5.265   2.146  24.323  0.00  0.00    +0.210 HD
ENDBRANCH  32  37
BRANCH  29  39
ATOM     39  C   UNL     1       9.719   5.903  23.901  0.00  0.00    +0.190 C 
BRANCH  39  40
ATOM     40  O   UNL     1      10.690   5.306  23.044  0.00  0.00    -0.392 OA
ATOM     41  H   UNL     1      10.768   5.851  22.245  0.00  0.00    +0.210 HD
ENDBRANCH  39  40
ENDBRANCH  29  39
ENDBRANCH  26  27
ENDBRANCH   4  26
TORSDOF 12
ENDMDL
MODEL 4
REMARK VINA RESULT:      -7.8      1.398      9.514
REMARK  Name = 
REMARK  12 active torsions:
REMARK  status: ('A' for Active; 'I' for Inactive)
REMARK    1  A    between atoms: C_3  and  O_35
REMARK    2  A    between atoms: C_4  and  O_21
REMARK    3  A    between atoms: C_6  and  C_7
REMARK    4  A    between atoms: C_8  and  O_20
REMARK    5  A    between atoms: C_12  and  O_19
REMARK    6  A    between atoms: C_14  and  O_18
REMARK    7  A    between atoms: O_21  and  C_22
REMARK    8  A    between atoms: C_24  and  O_34
REMARK    9  A    between atoms: C_25  and  O_33
REMARK   10  A    between atoms: C_26  and  O_32
REMARK   11  A    between atoms: C_28  and  C_30
REMARK   12  A    between atoms: C_30  and  O_31
REMARK                            x       y       z     vdW  Elec       q    Type
REMARK                         _______ _______ _______ _____ _____    ______ ____
ROOT
ATOM      1  C   UNL     1       9.893  -0.977  23.130  0.00  0.00    +0.015 A 
ATOM      2  C   UNL     1       8.849  -0.333  23.817  0.00  0.00    +0.025 A 
ATOM      3  C   UNL     1       8.220  -1.075  24.834  0.00  0.00    +0.061 A 
ATOM      4  C   UNL     1       8.550  -2.428  25.119  0.00  0.00    +0.166 A 
ATOM      5  C   UNL     1       9.543  -3.042  24.370  0.00  0.00    +0.159 A 
ATOM      6  C   UNL     1      10.218  -2.320  23.383  0.00  0.00    +0.050 A 
ENDROOT
BRANCH   2   7
ATOM      7  C   UNL     1       8.415   1.063  23.467  0.00  0.00    +0.181 A 
ATOM      8  O   UNL     1       9.360   2.053  23.768  0.00  0.00    -0.451 OA
ATOM      9  C   UNL     1       9.041   3.378  23.548  0.00  0.00    +0.147 A 
ATOM     10  C   UNL     1       7.856   3.778  22.938  0.00  0.00    +0.109 A 
ATOM     11  C   UNL     1       7.582   5.137  22.729  0.00  0.00    +0.135 A 
ATOM     12  C   UNL     1       8.485   6.109  23.140  0.00  0.00    +0.091 A 
ATOM     13  C   UNL     1       9.663   5.702  23.756  0.00  0.00    +0.124 A 
ATOM     14  C   UNL     1       6.896   2.747  22.550  0.00  0.00    +0.238 A 
ATOM     15  O   UNL     1       5.864   3.067  21.964  0.00  0.00    -0.283 OA
ATOM     16  C   UNL     1       9.952   4.354  23.960  0.00  0.00    +0.092 A 
ATOM     17  C   UNL     1       7.206   1.343  22.928  0.00  0.00    +0.208 A 
BRANCH  11  18
ATOM     18  O   UNL     1       6.434   5.586  22.132  0.00  0.00    -0.506 OA
ATOM     19  H   UNL     1       6.004   4.827  21.683  0.00  0.00    +0.292 HD
ENDBRANCH  11  18
BRANCH  13  20
ATOM     20  O   UNL     1      10.573   6.624  24.178  0.00  0.00    -0.507 OA
ATOM     21  H   UNL     1      10.434   7.452  23.691  0.00  0.00    +0.292 HD
ENDBRANCH  13  20
BRANCH  17  22
ATOM     22  O   UNL     1       6.192   0.428  22.710  0.00  0.00    -0.501 OA
ATOM     23  H   UNL     1       5.941   0.036  23.562  0.00  0.00    +0.292 HD
ENDBRANCH  17  22
ENDBRANCH   2   7
BRANCH   5  24
ATOM     24  O   UNL     1       9.857  -4.351  24.573  0.00  0.00    -0.503 OA
ATOM     25  H   UNL     1       9.767  -4.838  23.737  0.00  0.00    +0.292 HD
ENDBRANCH   5  24
BRANCH   4  26
ATOM     26  O   UNL     1       7.752  -2.988  26.063  0.00  0.00    -0.457 OA
BRANCH  26  27
ATOM     27  C   UNL     1       6.636  -3.876  25.877  0.00  0.00    +0.339 C 
ATOM     28  O   UNL     1       6.003  -3.931  24.588  0.00  0.00    -0.331 OA
ATOM     29  C   UNL     1       4.625  -4.378  24.703  0.00  0.00    +0.179 C 
ATOM     30  C   UNL     1       4.469  -5.717  25.466  0.00  0.00    +0.177 C 
ATOM     31  C   UNL     1       5.338  -5.792  26.722  0.00  0.00    +0.180 C 
ATOM     32  C   UNL     1       6.772  -5.287  26.478  0.00  0.00    +0.214 C 
BRANCH  30  33
ATOM     33  O   UNL     1       4.795  -6.842  24.640  0.00  0.00    -0.386 OA
ATOM     34  H   UNL     1       5.679  -6.630  24.273  0.00  0.00    +0.210 HD
ENDBRANCH  30  33
BRANCH  31  35
ATOM     35  O   UNL     1       5.350  -7.152  27.193  0.00  0.00    -0.386 OA
ATOM     36  H   UNL     1       6.292  -7.363  27.349  0.00  0.00    +0.210 HD
ENDBRANCH  31  35
BRANCH  32  37
ATOM     37  O   UNL     1       7.430  -5.312  27.756  0.00  0.00    -0.383 OA
ATOM     38  H   UNL     1       7.219  -6.172  28.165  0.00  0.00    +0.210 HD
ENDBRANCH  32  37
BRANCH  29  39
ATOM     39  C   UNL     1       3.948  -4.496  23.321  0.00  0.00    +0.190 C 
BRANCH  39  40
ATOM     40  O   UNL     1       4.786  -5.093  22.334  0.00  0.00    -0.392 OA
ATOM     41  H   UNL     1       4.229  -5.384  21.595  0.00  0.00    +0.210 HD
ENDBRANCH  39  40
ENDBRANCH  29  39
ENDBRANCH  26  27
ENDBRANCH   4  26
TORSDOF 12
ENDMDL
MODEL 5
REMARK VINA RESULT:      -7.7      1.776      2.118
REMARK  Name = 
REMARK  12 active torsions:
REMARK  status: ('A' for Active; 'I' for Inactive)
REMARK    1  A    between atoms: C_3  and  O_35
REMARK    2  A    between atoms: C_4  and  O_21
REMARK    3  A    between atoms: C_6  and  C_7
REMARK    4  A    between atoms: C_8  and  O_20
REMARK    5  A    between atoms: C_12  and  O_19
REMARK    6  A    between atoms: C_14  and  O_18
REMARK    7  A    between atoms: O_21  and  C_22
REMARK    8  A    between atoms: C_24  and  O_34
REMARK    9  A    between atoms: C_25  and  O_33
REMARK   10  A    between atoms: C_26  and  O_32
REMARK   11  A    between atoms: C_28  and  C_30
REMARK   12  A    between atoms: C_30  and  O_31
REMARK                            x       y       z     vdW  Elec       q    Type
REMARK                         _______ _______ _______ _____ _____    ______ ____
ROOT
ATOM      1  C   UNL     1       9.219  -1.396  22.564  0.00  0.00    +0.015 A 
ATOM      2  C   UNL     1       7.992  -1.379  23.248  0.00  0.00    +0.025 A 
ATOM      3  C   UNL     1       7.250  -0.185  23.169  0.00  0.00    +0.061 A 
ATOM      4  C   UNL     1       7.728   0.978  22.506  0.00  0.00    +0.166 A 
ATOM      5  C   UNL     1       8.975   0.933  21.900  0.00  0.00    +0.159 A 
ATOM      6  C   UNL     1       9.717  -0.250  21.922  0.00  0.00    +0.050 A 
ENDROOT
BRANCH   2   7
ATOM      7  C   UNL     1       7.510  -2.562  24.039  0.00  0.00    +0.181 A 
ATOM      8  O   UNL     1       6.603  -3.382  23.355  0.00  0.00    -0.451 OA
ATOM      9  C   UNL     1       6.045  -4.463  24.010  0.00  0.00    +0.147 A 
ATOM     10  C   UNL     1       6.423  -4.845  25.293  0.00  0.00    +0.109 A 
ATOM     11  C   UNL     1       5.833  -5.956  25.912  0.00  0.00    +0.135 A 
ATOM     12  C   UNL     1       4.851  -6.688  25.257  0.00  0.00    +0.091 A 
ATOM     13  C   UNL     1       4.473  -6.295  23.978  0.00  0.00    +0.124 A 
ATOM     14  C   UNL     1       7.426  -4.040  25.987  0.00  0.00    +0.238 A 
ATOM     15  O   UNL     1       7.816  -4.383  27.101  0.00  0.00    -0.283 OA
ATOM     16  C   UNL     1       5.059  -5.199  23.348  0.00  0.00    +0.092 A 
ATOM     17  C   UNL     1       7.902  -2.804  25.312  0.00  0.00    +0.208 A 
BRANCH  11  18
ATOM     18  O   UNL     1       6.169  -6.378  27.171  0.00  0.00    -0.506 OA
ATOM     19  H   UNL     1       6.452  -5.597  27.692  0.00  0.00    +0.292 HD
ENDBRANCH  11  18
BRANCH  13  20
ATOM     20  O   UNL     1       3.510  -6.983  23.303  0.00  0.00    -0.507 OA
ATOM     21  H   UNL     1       2.661  -6.869  23.760  0.00  0.00    +0.292 HD
ENDBRANCH  13  20
BRANCH  17  22
ATOM     22  O   UNL     1       8.705  -1.978  26.076  0.00  0.00    -0.501 OA
ATOM     23  H   UNL     1       8.495  -1.055  25.860  0.00  0.00    +0.292 HD
ENDBRANCH  17  22
ENDBRANCH   2   7
BRANCH   5  24
ATOM     24  O   UNL     1       9.495   2.037  21.297  0.00  0.00    -0.503 OA
ATOM     25  H   UNL     1       9.033   2.829  21.620  0.00  0.00    +0.292 HD
ENDBRANCH   5  24
BRANCH   4  26
ATOM     26  O   UNL     1       6.905   2.049  22.639  0.00  0.00    -0.457 OA
BRANCH  26  27
ATOM     27  C   UNL     1       6.931   3.075  23.645  0.00  0.00    +0.339 C 
ATOM     28  O   UNL     1       6.878   2.690  25.029  0.00  0.00    -0.331 OA
ATOM     29  C   UNL     1       6.341   3.763  25.848  0.00  0.00    +0.179 C 
ATOM     30  C   UNL     1       7.081   5.111  25.666  0.00  0.00    +0.177 C 
ATOM     31  C   UNL     1       7.386   5.432  24.203  0.00  0.00    +0.180 C 
ATOM     32  C   UNL     1       7.943   4.218  23.437  0.00  0.00    +0.214 C 
BRANCH  30  33
ATOM     33  O   UNL     1       8.319   5.141  26.389  0.00  0.00    -0.386 OA
ATOM     34  H   UNL     1       8.805   5.906  26.012  0.00  0.00    +0.210 HD
ENDBRANCH  30  33
BRANCH  31  35
ATOM     35  O   UNL     1       8.311   6.533  24.156  0.00  0.00    -0.386 OA
ATOM     36  H   UNL     1       8.129   6.987  23.309  0.00  0.00    +0.210 HD
ENDBRANCH  31  35
BRANCH  32  37
ATOM     37  O   UNL     1       8.074   4.632  22.067  0.00  0.00    -0.383 OA
ATOM     38  H   UNL     1       8.805   5.277  22.037  0.00  0.00    +0.210 HD
ENDBRANCH  32  37
BRANCH  29  39
ATOM     39  C   UNL     1       6.329   3.384  27.345  0.00  0.00    +0.190 C 
BRANCH  39  40
ATOM     40  O   UNL     1       7.516   2.713  27.764  0.00  0.00    -0.392 OA
ATOM     41  H   UNL     1       7.260   1.896  28.219  0.00  0.00    +0.210 HD
ENDBRANCH  39  40
ENDBRANCH  29  39
ENDBRANCH  26  27
ENDBRANCH   4  26
TORSDOF 12
ENDMDL
MODEL 6
REMARK VINA RESULT:      -7.6      1.832      2.841
REMARK  Name = 
REMARK  12 active torsions:
REMARK  status: ('A' for Active; 'I' for Inactive)
REMARK    1  A    between atoms: C_3  and  O_35
REMARK    2  A    between atoms: C_4  and  O_21
REMARK    3  A    between atoms: C_6  and  C_7
REMARK    4  A    between atoms: C_8  and  O_20
REMARK    5  A    between atoms: C_12  and  O_19
REMARK    6  A    between atoms: C_14  and  O_18
REMARK    7  A    between atoms: O_21  and  C_22
REMARK    8  A    between atoms: C_24  and  O_34
REMARK    9  A    between atoms: C_25  and  O_33
REMARK   10  A    between atoms: C_26  and  O_32
REMARK   11  A    between atoms: C_28  and  C_30
REMARK   12  A    between atoms: C_30  and  O_31
REMARK                            x       y       z     vdW  Elec       q    Type
REMARK                         _______ _______ _______ _____ _____    ______ ____
ROOT
ATOM      1  C   UNL     1       8.790  -1.480  22.118  0.00  0.00    +0.015 A 
ATOM      2  C   UNL     1       7.573  -1.310  22.800  0.00  0.00    +0.025 A 
ATOM      3  C   UNL     1       7.124   0.016  22.952  0.00  0.00    +0.061 A 
ATOM      4  C   UNL     1       7.877   1.140  22.519  0.00  0.00    +0.166 A 
ATOM      5  C   UNL     1       9.104   0.924  21.909  0.00  0.00    +0.159 A 
ATOM      6  C   UNL     1       9.558  -0.380  21.702  0.00  0.00    +0.050 A 
ENDROOT
BRANCH   2   7
ATOM      7  C   UNL     1       6.807  -2.477  23.355  0.00  0.00    +0.181 A 
ATOM      8  O   UNL     1       7.234  -2.897  24.622  0.00  0.00    -0.451 OA
ATOM      9  C   UNL     1       6.642  -4.003  25.200  0.00  0.00    +0.147 A 
ATOM     10  C   UNL     1       5.560  -4.665  24.629  0.00  0.00    +0.109 A 
ATOM     11  C   UNL     1       4.989  -5.779  25.260  0.00  0.00    +0.135 A 
ATOM     12  C   UNL     1       5.503  -6.248  26.462  0.00  0.00    +0.091 A 
ATOM     13  C   UNL     1       6.589  -5.586  27.023  0.00  0.00    +0.124 A 
ATOM     14  C   UNL     1       5.058  -4.188  23.343  0.00  0.00    +0.238 A 
ATOM     15  O   UNL     1       4.071  -4.721  22.839  0.00  0.00    -0.283 OA
ATOM     16  C   UNL     1       7.160  -4.471  26.411  0.00  0.00    +0.092 A 
ATOM     17  C   UNL     1       5.804  -3.086  22.680  0.00  0.00    +0.208 A 
BRANCH  11  18
ATOM     18  O   UNL     1       3.922  -6.466  24.745  0.00  0.00    -0.506 OA
ATOM     19  H   UNL     1       4.267  -7.199  24.192  0.00  0.00    +0.292 HD
ENDBRANCH  11  18
BRANCH  13  20
ATOM     20  O   UNL     1       7.126  -6.017  28.198  0.00  0.00    -0.507 OA
ATOM     21  H   UNL     1       7.505  -6.902  28.068  0.00  0.00    +0.292 HD
ENDBRANCH  13  20
BRANCH  17  22
ATOM     22  O   UNL     1       5.410  -2.791  21.388  0.00  0.00    -0.501 OA
ATOM     23  H   UNL     1       4.474  -2.533  21.401  0.00  0.00    +0.292 HD
ENDBRANCH  17  22
ENDBRANCH   2   7
BRANCH   5  24
ATOM     24  O   UNL     1       9.883   1.972  21.523  0.00  0.00    -0.503 OA
ATOM     25  H   UNL     1       9.348   2.784  21.509  0.00  0.00    +0.292 HD
ENDBRANCH   5  24
BRANCH   4  26
ATOM     26  O   UNL     1       7.313   2.327  22.857  0.00  0.00    -0.457 OA
BRANCH  26  27
ATOM     27  C   UNL     1       7.819   3.335  23.749  0.00  0.00    +0.339 C 
ATOM     28  O   UNL     1       8.718   4.330  23.230  0.00  0.00    -0.331 OA
ATOM     29  C   UNL     1       9.558   4.873  24.284  0.00  0.00    +0.179 C 
ATOM     30  C   UNL     1       8.760   5.412  25.496  0.00  0.00    +0.177 C 
ATOM     31  C   UNL     1       7.617   4.488  25.917  0.00  0.00    +0.180 C 
ATOM     32  C   UNL     1       6.803   3.971  24.716  0.00  0.00    +0.214 C 
BRANCH  30  33
ATOM     33  O   UNL     1       8.202   6.707  25.234  0.00  0.00    -0.386 OA
ATOM     34  H   UNL     1       8.596   6.975  24.377  0.00  0.00    +0.210 HD
ENDBRANCH  30  33
BRANCH  31  35
ATOM     35  O   UNL     1       6.770   5.194  26.841  0.00  0.00    -0.386 OA
ATOM     36  H   UNL     1       5.999   4.609  26.982  0.00  0.00    +0.210 HD
ENDBRANCH  31  35
BRANCH  32  37
ATOM     37  O   UNL     1       5.848   3.038  25.249  0.00  0.00    -0.383 OA
ATOM     38  H   UNL     1       6.214   2.712  26.092  0.00  0.00    +0.210 HD
ENDBRANCH  32  37
BRANCH  29  39
ATOM     39  C   UNL     1      10.491   5.982  23.752  0.00  0.00    +0.190 C 
BRANCH  39  40
ATOM     40  O   UNL     1      11.344   5.542  22.697  0.00  0.00    -0.392 OA
ATOM     41  H   UNL     1      11.332   6.210  21.995  0.00  0.00    +0.210 HD
ENDBRANCH  39  40
ENDBRANCH  29  39
ENDBRANCH  26  27
ENDBRANCH   4  26
TORSDOF 12
ENDMDL
MODEL 7
REMARK VINA RESULT:      -7.6      2.208      3.541
REMARK  Name = 
REMARK  12 active torsions:
REMARK  status: ('A' for Active; 'I' for Inactive)
REMARK    1  A    between atoms: C_3  and  O_35
REMARK    2  A    between atoms: C_4  and  O_21
REMARK    3  A    between atoms: C_6  and  C_7
REMARK    4  A    between atoms: C_8  and  O_20
REMARK    5  A    between atoms: C_12  and  O_19
REMARK    6  A    between atoms: C_14  and  O_18
REMARK    7  A    between atoms: O_21  and  C_22
REMARK    8  A    between atoms: C_24  and  O_34
REMARK    9  A    between atoms: C_25  and  O_33
REMARK   10  A    between atoms: C_26  and  O_32
REMARK   11  A    between atoms: C_28  and  C_30
REMARK   12  A    between atoms: C_30  and  O_31
REMARK                            x       y       z     vdW  Elec       q    Type
REMARK                         _______ _______ _______ _____ _____    ______ ____
ROOT
ATOM      1  C   UNL     1       8.937  -1.548  22.176  0.00  0.00    +0.015 A 
ATOM      2  C   UNL     1       7.656  -1.406  22.736  0.00  0.00    +0.025 A 
ATOM      3  C   UNL     1       7.131  -0.100  22.772  0.00  0.00    +0.061 A 
ATOM      4  C   UNL     1       7.866   1.038  22.344  0.00  0.00    +0.166 A 
ATOM      5  C   UNL     1       9.153   0.856  21.859  0.00  0.00    +0.159 A 
ATOM      6  C   UNL     1       9.687  -0.432  21.768  0.00  0.00    +0.050 A 
ENDROOT
BRANCH   2   7
ATOM      7  C   UNL     1       6.898  -2.582  23.287  0.00  0.00    +0.181 A 
ATOM      8  O   UNL     1       7.274  -2.954  24.584  0.00  0.00    -0.451 OA
ATOM      9  C   UNL     1       6.689  -4.061  25.164  0.00  0.00    +0.147 A 
ATOM     10  C   UNL     1       5.656  -4.773  24.561  0.00  0.00    +0.109 A 
ATOM     11  C   UNL     1       5.088  -5.887  25.195  0.00  0.00    +0.135 A 
ATOM     12  C   UNL     1       5.556  -6.307  26.433  0.00  0.00    +0.091 A 
ATOM     13  C   UNL     1       6.593  -5.596  27.027  0.00  0.00    +0.124 A 
ATOM     14  C   UNL     1       5.203  -4.345  23.238  0.00  0.00    +0.238 A 
ATOM     15  O   UNL     1       4.259  -4.922  22.703  0.00  0.00    -0.283 OA
ATOM     16  C   UNL     1       7.160  -4.481  26.412  0.00  0.00    +0.092 A 
ATOM     17  C   UNL     1       5.948  -3.239  22.582  0.00  0.00    +0.208 A 
BRANCH  11  18
ATOM     18  O   UNL     1       4.069  -6.620  24.648  0.00  0.00    -0.506 OA
ATOM     19  H   UNL     1       3.536  -6.027  24.076  0.00  0.00    +0.292 HD
ENDBRANCH  11  18
BRANCH  13  20
ATOM     20  O   UNL     1       7.085  -5.978  28.238  0.00  0.00    -0.507 OA
ATOM     21  H   UNL     1       8.050  -6.067  28.175  0.00  0.00    +0.292 HD
ENDBRANCH  13  20
BRANCH  17  22
ATOM     22  O   UNL     1       5.610  -2.991  21.264  0.00  0.00    -0.501 OA
ATOM     23  H   UNL     1       5.764  -3.798  20.748  0.00  0.00    +0.292 HD
ENDBRANCH  17  22
ENDBRANCH   2   7
BRANCH   5  24
ATOM     24  O   UNL     1       9.913   1.921  21.485  0.00  0.00    -0.503 OA
ATOM     25  H   UNL     1      10.419   2.242  22.251  0.00  0.00    +0.292 HD
ENDBRANCH   5  24
BRANCH   4  26
ATOM     26  O   UNL     1       7.218   2.210  22.563  0.00  0.00    -0.457 OA
BRANCH  26  27
ATOM     27  C   UNL     1       7.080   2.939  23.794  0.00  0.00    +0.339 C 
ATOM     28  O   UNL     1       6.309   2.359  24.860  0.00  0.00    -0.331 OA
ATOM     29  C   UNL     1       5.790   3.386  25.746  0.00  0.00    +0.179 C 
ATOM     30  C   UNL     1       6.880   4.340  26.294  0.00  0.00    +0.177 C 
ATOM     31  C   UNL     1       7.882   4.777  25.226  0.00  0.00    +0.180 C 
ATOM     32  C   UNL     1       8.355   3.606  24.345  0.00  0.00    +0.214 C 
BRANCH  30  33
ATOM     33  O   UNL     1       7.618   3.745  27.370  0.00  0.00    -0.386 OA
ATOM     34  H   UNL     1       7.972   2.911  26.993  0.00  0.00    +0.210 HD
ENDBRANCH  30  33
BRANCH  31  35
ATOM     35  O   UNL     1       9.000   5.411  25.874  0.00  0.00    -0.386 OA
ATOM     36  H   UNL     1       8.928   5.157  26.816  0.00  0.00    +0.210 HD
ENDBRANCH  31  35
BRANCH  32  37
ATOM     37  O   UNL     1       9.194   4.179  23.329  0.00  0.00    -0.383 OA
ATOM     38  H   UNL     1       9.787   4.810  23.778  0.00  0.00    +0.210 HD
ENDBRANCH  32  37
BRANCH  29  39
ATOM     39  C   UNL     1       5.005   2.775  26.927  0.00  0.00    +0.190 C 
BRANCH  39  40
ATOM     40  O   UNL     1       5.606   1.590  27.447  0.00  0.00    -0.392 OA
ATOM     41  H   UNL     1       5.381   1.521  28.388  0.00  0.00    +0.210 HD
ENDBRANCH  39  40
ENDBRANCH  29  39
ENDBRANCH  26  27
ENDBRANCH   4  26
TORSDOF 12
ENDMDL
MODEL 8
REMARK VINA RESULT:      -7.6      2.096      9.531
REMARK  Name = 
REMARK  12 active torsions:
REMARK  status: ('A' for Active; 'I' for Inactive)
REMARK    1  A    between atoms: C_3  and  O_35
REMARK    2  A    between atoms: C_4  and  O_21
REMARK    3  A    between atoms: C_6  and  C_7
REMARK    4  A    between atoms: C_8  and  O_20
REMARK    5  A    between atoms: C_12  and  O_19
REMARK    6  A    between atoms: C_14  and  O_18
REMARK    7  A    between atoms: O_21  and  C_22
REMARK    8  A    between atoms: C_24  and  O_34
REMARK    9  A    between atoms: C_25  and  O_33
REMARK   10  A    between atoms: C_26  and  O_32
REMARK   11  A    between atoms: C_28  and  C_30
REMARK   12  A    between atoms: C_30  and  O_31
REMARK                            x       y       z     vdW  Elec       q    Type
REMARK                         _______ _______ _______ _____ _____    ______ ____
ROOT
ATOM      1  C   UNL     1       8.897  -0.772  22.323  0.00  0.00    +0.015 A 
ATOM      2  C   UNL     1       8.949  -0.100  23.556  0.00  0.00    +0.025 A 
ATOM      3  C   UNL     1       8.896  -0.907  24.709  0.00  0.00    +0.061 A 
ATOM      4  C   UNL     1       8.723  -2.317  24.656  0.00  0.00    +0.166 A 
ATOM      5  C   UNL     1       8.612  -2.928  23.416  0.00  0.00    +0.159 A 
ATOM      6  C   UNL     1       8.705  -2.161  22.251  0.00  0.00    +0.050 A 
ENDROOT
BRANCH   2   7
ATOM      7  C   UNL     1       9.032   1.398  23.639  0.00  0.00    +0.181 A 
ATOM      8  O   UNL     1      10.315   1.917  23.421  0.00  0.00    -0.451 OA
ATOM      9  C   UNL     1      10.520   3.278  23.538  0.00  0.00    +0.147 A 
ATOM     10  C   UNL     1       9.485   4.181  23.757  0.00  0.00    +0.109 A 
ATOM     11  C   UNL     1       9.743   5.555  23.859  0.00  0.00    +0.135 A 
ATOM     12  C   UNL     1      11.042   6.037  23.754  0.00  0.00    +0.091 A 
ATOM     13  C   UNL     1      12.072   5.128  23.543  0.00  0.00    +0.124 A 
ATOM     14  C   UNL     1       8.129   3.656  23.909  0.00  0.00    +0.238 A 
ATOM     15  O   UNL     1       7.189   4.434  24.053  0.00  0.00    -0.283 OA
ATOM     16  C   UNL     1      11.827   3.761  23.429  0.00  0.00    +0.092 A 
ATOM     17  C   UNL     1       7.963   2.179  23.920  0.00  0.00    +0.208 A 
BRANCH  11  18
ATOM     18  O   UNL     1       8.764   6.488  24.072  0.00  0.00    -0.506 OA
ATOM     19  H   UNL     1       8.925   6.911  24.942  0.00  0.00    +0.292 HD
ENDBRANCH  11  18
BRANCH  13  20
ATOM     20  O   UNL     1      13.360   5.559  23.439  0.00  0.00    -0.507 OA
ATOM     21  H   UNL     1      13.556   6.152  24.183  0.00  0.00    +0.292 HD
ENDBRANCH  13  20
BRANCH  17  22
ATOM     22  O   UNL     1       6.700   1.723  24.250  0.00  0.00    -0.501 OA
ATOM     23  H   UNL     1       6.747   1.276  25.111  0.00  0.00    +0.292 HD
ENDBRANCH  17  22
ENDBRANCH   2   7
BRANCH   5  24
ATOM     24  O   UNL     1       8.395  -4.268  23.318  0.00  0.00    -0.503 OA
ATOM     25  H   UNL     1       7.699  -4.529  23.944  0.00  0.00    +0.292 HD
ENDBRANCH   5  24
BRANCH   4  26
ATOM     26  O   UNL     1       8.593  -2.888  25.880  0.00  0.00    -0.457 OA
BRANCH  26  27
ATOM     27  C   UNL     1       7.405  -3.410  26.500  0.00  0.00    +0.339 C 
ATOM     28  O   UNL     1       6.144  -2.781  26.219  0.00  0.00    -0.331 OA
ATOM     29  C   UNL     1       5.196  -3.009  27.297  0.00  0.00    +0.179 C 
ATOM     30  C   UNL     1       5.013  -4.504  27.655  0.00  0.00    +0.177 C 
ATOM     31  C   UNL     1       6.335  -5.271  27.708  0.00  0.00    +0.180 C 
ATOM     32  C   UNL     1       7.256  -4.943  26.520  0.00  0.00    +0.214 C 
BRANCH  30  33
ATOM     33  O   UNL     1       4.155  -5.174  26.721  0.00  0.00    -0.386 OA
ATOM     34  H   UNL     1       3.268  -5.146  27.138  0.00  0.00    +0.210 HD
ENDBRANCH  30  33
BRANCH  31  35
ATOM     35  O   UNL     1       6.047  -6.681  27.757  0.00  0.00    -0.386 OA
ATOM     36  H   UNL     1       6.360  -7.037  26.901  0.00  0.00    +0.210 HD
ENDBRANCH  31  35
BRANCH  32  37
ATOM     37  O   UNL     1       8.489  -5.642  26.761  0.00  0.00    -0.383 OA
ATOM     38  H   UNL     1       8.938  -5.725  25.899  0.00  0.00    +0.210 HD
ENDBRANCH  32  37
BRANCH  29  39
ATOM     39  C   UNL     1       3.819  -2.385  26.985  0.00  0.00    +0.190 C 
BRANCH  39  40
ATOM     40  O   UNL     1       3.451  -2.494  25.611  0.00  0.00    -0.392 OA
ATOM     41  H   UNL     1       2.692  -3.093  25.544  0.00  0.00    +0.210 HD
ENDBRANCH  39  40
ENDBRANCH  29  39
ENDBRANCH  26  27
ENDBRANCH   4  26
TORSDOF 12
ENDMDL
MODEL 9
REMARK VINA RESULT:      -7.5      1.640      9.109
REMARK  Name = 
REMARK  12 active torsions:
REMARK  status: ('A' for Active; 'I' for Inactive)
REMARK    1  A    between atoms: C_3  and  O_35
REMARK    2  A    between atoms: C_4  and  O_21
REMARK    3  A    between atoms: C_6  and  C_7
REMARK    4  A    between atoms: C_8  and  O_20
REMARK    5  A    between atoms: C_12  and  O_19
REMARK    6  A    between atoms: C_14  and  O_18
REMARK    7  A    between atoms: O_21  and  C_22
REMARK    8  A    between atoms: C_24  and  O_34
REMARK    9  A    between atoms: C_25  and  O_33
REMARK   10  A    between atoms: C_26  and  O_32
REMARK   11  A    between atoms: C_28  and  C_30
REMARK   12  A    between atoms: C_30  and  O_31
REMARK                            x       y       z     vdW  Elec       q    Type
REMARK                         _______ _______ _______ _____ _____    ______ ____
ROOT
ATOM      1  C   UNL     1      10.018  -1.571  23.520  0.00  0.00    +0.015 A 
ATOM      2  C   UNL     1       9.125  -0.790  24.274  0.00  0.00    +0.025 A 
ATOM      3  C   UNL     1       8.437  -1.451  25.309  0.00  0.00    +0.061 A 
ATOM      4  C   UNL     1       8.563  -2.846  25.550  0.00  0.00    +0.166 A 
ATOM      5  C   UNL     1       9.408  -3.588  24.738  0.00  0.00    +0.159 A 
ATOM      6  C   UNL     1      10.139  -2.954  23.730  0.00  0.00    +0.050 A 
ENDROOT
BRANCH   2   7
ATOM      7  C   UNL     1       8.900   0.666  23.974  0.00  0.00    +0.181 A 
ATOM      8  O   UNL     1       7.581   0.986  23.626  0.00  0.00    -0.451 OA
ATOM      9  C   UNL     1       7.275   2.284  23.268  0.00  0.00    +0.147 A 
ATOM     10  C   UNL     1       8.196   3.324  23.338  0.00  0.00    +0.109 A 
ATOM     11  C   UNL     1       7.834   4.628  22.971  0.00  0.00    +0.135 A 
ATOM     12  C   UNL     1       6.549   4.900  22.519  0.00  0.00    +0.091 A 
ATOM     13  C   UNL     1       5.636   3.855  22.443  0.00  0.00    +0.124 A 
ATOM     14  C   UNL     1       9.556   3.014  23.775  0.00  0.00    +0.238 A 
ATOM     15  O   UNL     1      10.377   3.921  23.896  0.00  0.00    -0.283 OA
ATOM     16  C   UNL     1       5.981   2.556  22.815  0.00  0.00    +0.092 A 
ATOM     17  C   UNL     1       9.891   1.587  24.017  0.00  0.00    +0.208 A 
BRANCH  11  18
ATOM     18  O   UNL     1       8.698   5.688  23.024  0.00  0.00    -0.506 OA
ATOM     19  H   UNL     1       8.977   5.811  23.956  0.00  0.00    +0.292 HD
ENDBRANCH  11  18
BRANCH  13  20
ATOM     20  O   UNL     1       4.368   4.079  22.000  0.00  0.00    -0.507 OA
ATOM     21  H   UNL     1       3.755   3.506  22.490  0.00  0.00    +0.292 HD
ENDBRANCH  13  20
BRANCH  17  22
ATOM     22  O   UNL     1      11.228   1.318  24.246  0.00  0.00    -0.501 OA
ATOM     23  H   UNL     1      11.435   0.443  23.878  0.00  0.00    +0.292 HD
ENDBRANCH  17  22
ENDBRANCH   2   7
BRANCH   5  24
ATOM     24  O   UNL     1       9.521  -4.935  24.899  0.00  0.00    -0.503 OA
ATOM     25  H   UNL     1      10.397  -5.144  25.265  0.00  0.00    +0.292 HD
ENDBRANCH   5  24
BRANCH   4  26
ATOM     26  O   UNL     1       7.735  -3.300  26.525  0.00  0.00    -0.457 OA
BRANCH  26  27
ATOM     27  C   UNL     1       6.537  -4.083  26.386  0.00  0.00    +0.339 C 
ATOM     28  O   UNL     1       5.733  -3.916  25.206  0.00  0.00    -0.331 OA
ATOM     29  C   UNL     1       4.352  -4.291  25.460  0.00  0.00    +0.179 C 
ATOM     30  C   UNL     1       4.196  -5.713  26.052  0.00  0.00    +0.177 C 
ATOM     31  C   UNL     1       5.218  -6.020  27.147  0.00  0.00    +0.180 C 
ATOM     32  C   UNL     1       6.641  -5.572  26.768  0.00  0.00    +0.214 C 
BRANCH  30  33
ATOM     33  O   UNL     1       4.316  -6.727  25.044  0.00  0.00    -0.386 OA
ATOM     34  H   UNL     1       4.523  -7.546  25.543  0.00  0.00    +0.210 HD
ENDBRANCH  30  33
BRANCH  31  35
ATOM     35  O   UNL     1       5.185  -7.431  27.425  0.00  0.00    -0.386 OA
ATOM     36  H   UNL     1       5.088  -7.864  26.553  0.00  0.00    +0.210 HD
ENDBRANCH  31  35
BRANCH  32  37
ATOM     37  O   UNL     1       7.462  -5.818  27.921  0.00  0.00    -0.383 OA
ATOM     38  H   UNL     1       8.366  -5.535  27.689  0.00  0.00    +0.210 HD
ENDBRANCH  32  37
BRANCH  29  39
ATOM     39  C   UNL     1       3.487  -4.169  24.187  0.00  0.00    +0.190 C 
BRANCH  39  40
ATOM     40  O   UNL     1       4.184  -4.533  22.997  0.00  0.00    -0.392 OA
ATOM     41  H   UNL     1       3.540  -4.613  22.277  0.00  0.00    +0.210 HD
ENDBRANCH  39  40
ENDBRANCH  29  39
ENDBRANCH  26  27
ENDBRANCH   4  26
TORSDOF 12
ENDMDL
