MODEL 1
REMARK VINA RESULT:      -7.6      0.000      0.000
REMARK  Name = 
REMARK  8 active torsions:
REMARK  status: ('A' for Active; 'I' for Inactive)
REMARK    1  A    between atoms: C_2  and  C_13
REMARK    2  A    between atoms: C_4  and  S_9
REMARK    3  A    between atoms: C_5  and  O_8
REMARK    4  A    between atoms: C_6  and  O_7
REMARK    5  A    between atoms: S_9  and  O_12
REMARK    6  A    between atoms: C_14  and  O_26
REMARK    7  A    between atoms: C_18  and  O_25
REMARK    8  A    between atoms: C_20  and  O_24
REMARK                            x       y       z     vdW  Elec       q    Type
REMARK                         _______ _______ _______ _____ _____    ______ ____
ROOT
ATOM      1  C   UNL     1       7.844  -2.097  23.992  0.00  0.00    +0.181 A 
ATOM      2  O   UNL     1       6.911  -1.068  23.849  0.00  0.00    -0.451 OA
ATOM      3  C   UNL     1       7.279   0.094  23.220  0.00  0.00    +0.147 A 
ATOM      4  C   UNL     1       8.559   0.312  22.728  0.00  0.00    +0.109 A 
ATOM      5  C   UNL     1       8.881   1.526  22.109  0.00  0.00    +0.135 A 
ATOM      6  C   UNL     1       7.916   2.522  21.967  0.00  0.00    +0.091 A 
ATOM      7  C   UNL     1       6.636   2.290  22.452  0.00  0.00    +0.124 A 
ATOM      8  C   UNL     1       9.552  -0.750  22.878  0.00  0.00    +0.238 A 
ATOM      9  O   UNL     1      10.699  -0.571  22.483  0.00  0.00    -0.283 OA
ATOM     10  C   UNL     1       6.308   1.090  23.082  0.00  0.00    +0.092 A 
ATOM     11  C   UNL     1       9.119  -2.007  23.550  0.00  0.00    +0.208 A 
ENDROOT
BRANCH   1  17
ATOM     12  C   UNL     1       7.867  -3.896  25.793  0.00  0.00    +0.061 A 
ATOM     13  C   UNL     1       7.298  -5.025  26.382  0.00  0.00    +0.161 A 
ATOM     14  C   UNL     1       6.150  -5.621  25.867  0.00  0.00    +0.186 A 
ATOM     15  C   UNL     1       5.547  -5.038  24.763  0.00  0.00    +0.162 A 
ATOM     16  C   UNL     1       6.094  -3.884  24.169  0.00  0.00    +0.045 A 
ATOM     17  C   UNL     1       7.267  -3.291  24.677  0.00  0.00    +0.027 A 
BRANCH  15  18
ATOM     18  S   UNL     1       4.111  -5.752  24.028  0.00  0.00    +0.113 S 
ATOM     19  O   UNL     1       3.915  -5.117  22.747  0.00  0.00    -0.142 OA
ATOM     20  O   UNL     1       3.084  -5.759  25.050  0.00  0.00    -0.142 OA
BRANCH  18  21
ATOM     21  O   UNL     1       4.500  -7.296  23.786  0.00  0.00    -0.250 OA
ATOM     22  H   UNL     1       3.738  -7.745  23.362  0.00  0.00    +0.245 HD
ENDBRANCH  18  21
ENDBRANCH  15  18
BRANCH  13  23
ATOM     23  O   UNL     1       7.899  -5.559  27.487  0.00  0.00    -0.503 OA
ATOM     24  H   UNL     1       8.700  -5.015  27.633  0.00  0.00    +0.292 HD
ENDBRANCH  13  23
BRANCH  14  25
ATOM     25  O   UNL     1       5.727  -6.756  26.505  0.00  0.00    -0.502 OA
ATOM     26  H   UNL     1       5.349  -7.394  25.860  0.00  0.00    +0.292 HD
ENDBRANCH  14  25
ENDBRANCH   1  17
BRANCH   5  27
ATOM     27  O   UNL     1      10.130   1.810  21.623  0.00  0.00    -0.506 OA
ATOM     28  H   UNL     1      10.172   1.498  20.689  0.00  0.00    +0.292 HD
ENDBRANCH   5  27
BRANCH   7  29
ATOM     29  O   UNL     1       5.659   3.234  22.331  0.00  0.00    -0.507 OA
ATOM     30  H   UNL     1       5.239   3.363  23.198  0.00  0.00    +0.292 HD
ENDBRANCH   7  29
BRANCH  11  31
ATOM     31  O   UNL     1      10.089  -2.979  23.695  0.00  0.00    -0.501 OA
ATOM     32  H   UNL     1       9.719  -3.832  23.416  0.00  0.00    +0.292 HD
ENDBRANCH  11  31
TORSDOF 8
ENDMDL
MODEL 2
REMARK VINA RESULT:      -7.5      1.679      3.040
REMARK  Name = 
REMARK  8 active torsions:
REMARK  status: ('A' for Active; 'I' for Inactive)
REMARK    1  A    between atoms: C_2  and  C_13
REMARK    2  A    between atoms: C_4  and  S_9
REMARK    3  A    between atoms: C_5  and  O_8
REMARK    4  A    between atoms: C_6  and  O_7
REMARK    5  A    between atoms: S_9  and  O_12
REMARK    6  A    between atoms: C_14  and  O_26
REMARK    7  A    between atoms: C_18  and  O_25
REMARK    8  A    between atoms: C_20  and  O_24
REMARK                            x       y       z     vdW  Elec       q    Type
REMARK                         _______ _______ _______ _____ _____    ______ ____
ROOT
ATOM      1  C   UNL     1       7.219  -3.727  24.273  0.00  0.00    +0.181 A 
ATOM      2  O   UNL     1       6.502  -2.564  23.984  0.00  0.00    -0.451 OA
ATOM      3  C   UNL     1       7.166  -1.464  23.504  0.00  0.00    +0.147 A 
ATOM      4  C   UNL     1       8.540  -1.438  23.309  0.00  0.00    +0.109 A 
ATOM      5  C   UNL     1       9.166  -0.280  22.832  0.00  0.00    +0.135 A 
ATOM      6  C   UNL     1       8.413   0.855  22.535  0.00  0.00    +0.091 A 
ATOM      7  C   UNL     1       7.037   0.817  22.723  0.00  0.00    +0.124 A 
ATOM      8  C   UNL     1       9.309  -2.643  23.617  0.00  0.00    +0.238 A 
ATOM      9  O   UNL     1      10.528  -2.637  23.486  0.00  0.00    -0.283 OA
ATOM     10  C   UNL     1       6.406  -0.328  23.210  0.00  0.00    +0.092 A 
ATOM     11  C   UNL     1       8.559  -3.828  24.120  0.00  0.00    +0.208 A 
ENDROOT
BRANCH   1  17
ATOM     12  C   UNL     1       5.528  -5.594  23.906  0.00  0.00    +0.061 A 
ATOM     13  C   UNL     1       4.703  -6.596  24.417  0.00  0.00    +0.161 A 
ATOM     14  C   UNL     1       4.612  -6.845  25.784  0.00  0.00    +0.186 A 
ATOM     15  C   UNL     1       5.400  -6.094  26.642  0.00  0.00    +0.162 A 
ATOM     16  C   UNL     1       6.257  -5.094  26.142  0.00  0.00    +0.045 A 
ATOM     17  C   UNL     1       6.337  -4.827  24.761  0.00  0.00    +0.027 A 
BRANCH  15  18
ATOM     18  S   UNL     1       5.316  -6.322  28.388  0.00  0.00    +0.113 S 
ATOM     19  O   UNL     1       3.943  -6.126  28.788  0.00  0.00    -0.142 OA
ATOM     20  O   UNL     1       6.403  -5.551  28.959  0.00  0.00    -0.142 OA
BRANCH  18  21
ATOM     21  O   UNL     1       5.706  -7.868  28.618  0.00  0.00    -0.250 OA
ATOM     22  H   UNL     1       4.884  -8.373  28.791  0.00  0.00    +0.245 HD
ENDBRANCH  18  21
ENDBRANCH  15  18
BRANCH  13  23
ATOM     23  O   UNL     1       3.960  -7.339  23.543  0.00  0.00    -0.503 OA
ATOM     24  H   UNL     1       4.348  -7.165  22.661  0.00  0.00    +0.292 HD
ENDBRANCH  13  23
BRANCH  14  25
ATOM     25  O   UNL     1       3.723  -7.817  26.157  0.00  0.00    -0.502 OA
ATOM     26  H   UNL     1       3.548  -8.431  25.409  0.00  0.00    +0.292 HD
ENDBRANCH  14  25
ENDBRANCH   1  17
BRANCH   5  27
ATOM     27  O   UNL     1      10.519  -0.184  22.639  0.00  0.00    -0.506 OA
ATOM     28  H   UNL     1      10.713  -0.453  21.711  0.00  0.00    +0.292 HD
ENDBRANCH   5  27
BRANCH   7  29
ATOM     29  O   UNL     1       6.261   1.902  22.441  0.00  0.00    -0.507 OA
ATOM     30  H   UNL     1       5.358   1.598  22.244  0.00  0.00    +0.292 HD
ENDBRANCH   7  29
BRANCH  11  31
ATOM     31  O   UNL     1       9.320  -4.940  24.422  0.00  0.00    -0.501 OA
ATOM     32  H   UNL     1       9.738  -5.261  23.606  0.00  0.00    +0.292 HD
ENDBRANCH  11  31
TORSDOF 8
ENDMDL
MODEL 3
REMARK VINA RESULT:      -7.4      2.393      3.645
REMARK  Name = 
REMARK  8 active torsions:
REMARK  status: ('A' for Active; 'I' for Inactive)
REMARK    1  A    between atoms: C_2  and  C_13
REMARK    2  A    between atoms: C_4  and  S_9
REMARK    3  A    between atoms: C_5  and  O_8
REMARK    4  A    between atoms: C_6  and  O_7
REMARK    5  A    between atoms: S_9  and  O_12
REMARK    6  A    between atoms: C_14  and  O_26
REMARK    7  A    between atoms: C_18  and  O_25
REMARK    8  A    between atoms: C_20  and  O_24
REMARK                            x       y       z     vdW  Elec       q    Type
REMARK                         _______ _______ _______ _____ _____    ______ ____
ROOT
ATOM      1  C   UNL     1       8.415  -0.476  23.404  0.00  0.00    +0.181 A 
ATOM      2  O   UNL     1       7.864   0.281  24.440  0.00  0.00    -0.451 OA
ATOM      3  C   UNL     1       8.186   1.609  24.551  0.00  0.00    +0.147 A 
ATOM      4  C   UNL     1       9.064   2.247  23.685  0.00  0.00    +0.109 A 
ATOM      5  C   UNL     1       9.368   3.603  23.858  0.00  0.00    +0.135 A 
ATOM      6  C   UNL     1       8.781   4.330  24.893  0.00  0.00    +0.091 A 
ATOM      7  C   UNL     1       7.896   3.686  25.748  0.00  0.00    +0.124 A 
ATOM      8  C   UNL     1       9.659   1.469  22.601  0.00  0.00    +0.238 A 
ATOM      9  O   UNL     1      10.463   1.998  21.841  0.00  0.00    -0.283 OA
ATOM     10  C   UNL     1       7.597   2.333  25.593  0.00  0.00    +0.092 A 
ATOM     11  C   UNL     1       9.277   0.033  22.495  0.00  0.00    +0.208 A 
ENDROOT
BRANCH   1  17
ATOM     12  C   UNL     1       7.018  -2.398  22.490  0.00  0.00    +0.061 A 
ATOM     13  C   UNL     1       6.587  -3.722  22.566  0.00  0.00    +0.161 A 
ATOM     14  C   UNL     1       7.009  -4.573  23.584  0.00  0.00    +0.186 A 
ATOM     15  C   UNL     1       7.914  -4.086  24.515  0.00  0.00    +0.162 A 
ATOM     16  C   UNL     1       8.378  -2.759  24.440  0.00  0.00    +0.045 A 
ATOM     17  C   UNL     1       7.938  -1.890  23.422  0.00  0.00    +0.027 A 
BRANCH  15  18
ATOM     18  S   UNL     1       8.469  -5.088  25.855  0.00  0.00    +0.113 S 
ATOM     19  O   UNL     1       7.394  -5.987  26.202  0.00  0.00    -0.142 OA
ATOM     20  O   UNL     1       9.066  -4.190  26.823  0.00  0.00    -0.142 OA
BRANCH  18  21
ATOM     21  O   UNL     1       9.686  -5.949  25.246  0.00  0.00    -0.250 OA
ATOM     22  H   UNL     1      10.332  -6.125  25.964  0.00  0.00    +0.245 HD
ENDBRANCH  18  21
ENDBRANCH  15  18
BRANCH  13  23
ATOM     23  O   UNL     1       5.718  -4.182  21.617  0.00  0.00    -0.503 OA
ATOM     24  H   UNL     1       4.854  -3.778  21.841  0.00  0.00    +0.292 HD
ENDBRANCH  13  23
BRANCH  14  25
ATOM     25  O   UNL     1       6.467  -5.831  23.576  0.00  0.00    -0.502 OA
ATOM     26  H   UNL     1       6.156  -6.067  22.674  0.00  0.00    +0.292 HD
ENDBRANCH  14  25
ENDBRANCH   1  17
BRANCH   5  27
ATOM     27  O   UNL     1      10.242   4.283  23.052  0.00  0.00    -0.506 OA
ATOM     28  H   UNL     1      11.152   3.956  23.245  0.00  0.00    +0.292 HD
ENDBRANCH   5  27
BRANCH   7  29
ATOM     29  O   UNL     1       7.295   4.358  26.771  0.00  0.00    -0.507 OA
ATOM     30  H   UNL     1       7.622   5.274  26.778  0.00  0.00    +0.292 HD
ENDBRANCH   7  29
BRANCH  11  31
ATOM     31  O   UNL     1       9.877  -0.677  21.472  0.00  0.00    -0.501 OA
ATOM     32  H   UNL     1       9.410  -0.480  20.643  0.00  0.00    +0.292 HD
ENDBRANCH  11  31
TORSDOF 8
ENDMDL
MODEL 4
REMARK VINA RESULT:      -7.4      2.199      7.439
REMARK  Name = 
REMARK  8 active torsions:
REMARK  status: ('A' for Active; 'I' for Inactive)
REMARK    1  A    between atoms: C_2  and  C_13
REMARK    2  A    between atoms: C_4  and  S_9
REMARK    3  A    between atoms: C_5  and  O_8
REMARK    4  A    between atoms: C_6  and  O_7
REMARK    5  A    between atoms: S_9  and  O_12
REMARK    6  A    between atoms: C_14  and  O_26
REMARK    7  A    between atoms: C_18  and  O_25
REMARK    8  A    between atoms: C_20  and  O_24
REMARK                            x       y       z     vdW  Elec       q    Type
REMARK                         _______ _______ _______ _____ _____    ______ ____
ROOT
ATOM      1  C   UNL     1       7.142  -3.302  24.598  0.00  0.00    +0.181 A 
ATOM      2  O   UNL     1       6.236  -4.101  23.896  0.00  0.00    -0.451 OA
ATOM      3  C   UNL     1       5.626  -5.150  24.535  0.00  0.00    +0.147 A 
ATOM      4  C   UNL     1       5.884  -5.479  25.859  0.00  0.00    +0.109 A 
ATOM      5  C   UNL     1       5.243  -6.574  26.454  0.00  0.00    +0.135 A 
ATOM      6  C   UNL     1       4.329  -7.334  25.726  0.00  0.00    +0.091 A 
ATOM      7  C   UNL     1       4.070  -6.991  24.406  0.00  0.00    +0.124 A 
ATOM      8  C   UNL     1       6.837  -4.662  26.606  0.00  0.00    +0.238 A 
ATOM      9  O   UNL     1       7.110  -4.950  27.767  0.00  0.00    -0.283 OA
ATOM     10  C   UNL     1       4.712  -5.912  23.800  0.00  0.00    +0.092 A 
ATOM     11  C   UNL     1       7.471  -3.518  25.891  0.00  0.00    +0.208 A 
ENDROOT
BRANCH   1  17
ATOM     12  C   UNL     1       8.831  -2.343  22.952  0.00  0.00    +0.061 A 
ATOM     13  C   UNL     1       9.314  -1.270  22.202  0.00  0.00    +0.161 A 
ATOM     14  C   UNL     1       8.720  -0.012  22.255  0.00  0.00    +0.186 A 
ATOM     15  C   UNL     1       7.594   0.149  23.048  0.00  0.00    +0.162 A 
ATOM     16  C   UNL     1       7.078  -0.928  23.793  0.00  0.00    +0.045 A 
ATOM     17  C   UNL     1       7.689  -2.197  23.756  0.00  0.00    +0.027 A 
BRANCH  15  18
ATOM     18  S   UNL     1       6.805   1.719  23.197  0.00  0.00    +0.113 S 
ATOM     19  O   UNL     1       6.680   2.273  21.870  0.00  0.00    -0.142 OA
ATOM     20  O   UNL     1       7.484   2.424  24.266  0.00  0.00    -0.142 OA
BRANCH  18  21
ATOM     21  O   UNL     1       5.332   1.386  23.759  0.00  0.00    -0.250 OA
ATOM     22  H   UNL     1       4.783   2.195  23.691  0.00  0.00    +0.245 HD
ENDBRANCH  18  21
ENDBRANCH  15  18
BRANCH  13  23
ATOM     23  O   UNL     1      10.408  -1.469  21.408  0.00  0.00    -0.503 OA
ATOM     24  H   UNL     1      10.497  -0.647  20.882  0.00  0.00    +0.292 HD
ENDBRANCH  13  23
BRANCH  14  25
ATOM     25  O   UNL     1       9.326   0.967  21.515  0.00  0.00    -0.502 OA
ATOM     26  H   UNL     1       9.651   1.689  22.098  0.00  0.00    +0.292 HD
ENDBRANCH  14  25
ENDBRANCH   1  17
BRANCH   5  27
ATOM     27  O   UNL     1       5.471  -6.962  27.748  0.00  0.00    -0.506 OA
ATOM     28  H   UNL     1       6.012  -6.263  28.184  0.00  0.00    +0.292 HD
ENDBRANCH   5  27
BRANCH   7  29
ATOM     29  O   UNL     1       3.180  -7.704  23.658  0.00  0.00    -0.507 OA
ATOM     30  H   UNL     1       2.315  -7.262  23.696  0.00  0.00    +0.292 HD
ENDBRANCH   7  29
BRANCH  11  31
ATOM     31  O   UNL     1       8.384  -2.782  26.621  0.00  0.00    -0.501 OA
ATOM     32  H   UNL     1       8.704  -2.050  26.069  0.00  0.00    +0.292 HD
ENDBRANCH  11  31
TORSDOF 8
ENDMDL
MODEL 5
REMARK VINA RESULT:      -7.3      2.269      7.576
REMARK  Name = 
REMARK  8 active torsions:
REMARK  status: ('A' for Active; 'I' for Inactive)
REMARK    1  A    between atoms: C_2  and  C_13
REMARK    2  A    between atoms: C_4  and  S_9
REMARK    3  A    between atoms: C_5  and  O_8
REMARK    4  A    between atoms: C_6  and  O_7
REMARK    5  A    between atoms: S_9  and  O_12
REMARK    6  A    between atoms: C_14  and  O_26
REMARK    7  A    between atoms: C_18  and  O_25
REMARK    8  A    between atoms: C_20  and  O_24
REMARK                            x       y       z     vdW  Elec       q    Type
REMARK                         _______ _______ _______ _____ _____    ______ ____
ROOT
ATOM      1  C   UNL     1       6.562  -3.475  23.219  0.00  0.00    +0.181 A 
ATOM      2  O   UNL     1       6.720  -3.848  24.555  0.00  0.00    -0.451 OA
ATOM      3  C   UNL     1       6.037  -4.935  25.038  0.00  0.00    +0.147 A 
ATOM      4  C   UNL     1       5.165  -5.684  24.260  0.00  0.00    +0.109 A 
ATOM      5  C   UNL     1       4.482  -6.774  24.812  0.00  0.00    +0.135 A 
ATOM      6  C   UNL     1       4.682  -7.127  26.146  0.00  0.00    +0.091 A 
ATOM      7  C   UNL     1       5.565  -6.379  26.913  0.00  0.00    +0.124 A 
ATOM      8  C   UNL     1       4.978  -5.302  22.861  0.00  0.00    +0.238 A 
ATOM      9  O   UNL     1       4.188  -5.925  22.160  0.00  0.00    -0.283 OA
ATOM     10  C   UNL     1       6.240  -5.283  26.376  0.00  0.00    +0.092 A 
ATOM     11  C   UNL     1       5.746  -4.127  22.360  0.00  0.00    +0.208 A 
ENDROOT
BRANCH   1  17
ATOM     12  C   UNL     1       8.702  -2.397  22.358  0.00  0.00    +0.061 A 
ATOM     13  C   UNL     1       9.446  -1.255  22.062  0.00  0.00    +0.161 A 
ATOM     14  C   UNL     1       8.949   0.025  22.293  0.00  0.00    +0.186 A 
ATOM     15  C   UNL     1       7.662   0.148  22.794  0.00  0.00    +0.162 A 
ATOM     16  C   UNL     1       6.887  -0.993  23.076  0.00  0.00    +0.045 A 
ATOM     17  C   UNL     1       7.395  -2.289  22.861  0.00  0.00    +0.027 A 
BRANCH  15  18
ATOM     18  S   UNL     1       6.973   1.732  23.149  0.00  0.00    +0.113 S 
ATOM     19  O   UNL     1       6.870   2.453  21.902  0.00  0.00    -0.142 OA
ATOM     20  O   UNL     1       7.705   2.257  24.284  0.00  0.00    -0.142 OA
BRANCH  18  21
ATOM     21  O   UNL     1       5.488   1.421  23.690  0.00  0.00    -0.250 OA
ATOM     22  H   UNL     1       4.974   2.256  23.685  0.00  0.00    +0.245 HD
ENDBRANCH  18  21
ENDBRANCH  15  18
BRANCH  13  23
ATOM     23  O   UNL     1      10.701  -1.410  21.542  0.00  0.00    -0.503 OA
ATOM     24  H   UNL     1      10.922  -0.545  21.140  0.00  0.00    +0.292 HD
ENDBRANCH  13  23
BRANCH  14  25
ATOM     25  O   UNL     1       9.803   1.058  22.012  0.00  0.00    -0.502 OA
ATOM     26  H   UNL     1       9.346   1.748  21.482  0.00  0.00    +0.292 HD
ENDBRANCH  14  25
ENDBRANCH   1  17
BRANCH   5  27
ATOM     27  O   UNL     1       3.593  -7.538  24.103  0.00  0.00    -0.506 OA
ATOM     28  H   UNL     1       2.793  -7.672  24.663  0.00  0.00    +0.292 HD
ENDBRANCH   5  27
BRANCH   7  29
ATOM     29  O   UNL     1       5.795  -6.691  28.221  0.00  0.00    -0.507 OA
ATOM     30  H   UNL     1       6.111  -5.896  28.682  0.00  0.00    +0.292 HD
ENDBRANCH   7  29
BRANCH  11  31
ATOM     31  O   UNL     1       5.527  -3.782  21.041  0.00  0.00    -0.501 OA
ATOM     32  H   UNL     1       5.109  -2.906  21.015  0.00  0.00    +0.292 HD
ENDBRANCH  11  31
TORSDOF 8
ENDMDL
MODEL 6
REMARK VINA RESULT:      -7.3      1.313      2.517
REMARK  Name = 
REMARK  8 active torsions:
REMARK  status: ('A' for Active; 'I' for Inactive)
REMARK    1  A    between atoms: C_2  and  C_13
REMARK    2  A    between atoms: C_4  and  S_9
REMARK    3  A    between atoms: C_5  and  O_8
REMARK    4  A    between atoms: C_6  and  O_7
REMARK    5  A    between atoms: S_9  and  O_12
REMARK    6  A    between atoms: C_14  and  O_26
REMARK    7  A    between atoms: C_18  and  O_25
REMARK    8  A    between atoms: C_20  and  O_24
REMARK                            x       y       z     vdW  Elec       q    Type
REMARK                         _______ _______ _______ _____ _____    ______ ____
ROOT
ATOM      1  C   UNL     1       7.917  -1.836  23.173  0.00  0.00    +0.181 A 
ATOM      2  O   UNL     1       7.010  -0.810  22.895  0.00  0.00    -0.451 OA
ATOM      3  C   UNL     1       7.472   0.469  22.719  0.00  0.00    +0.147 A 
ATOM      4  C   UNL     1       8.814   0.808  22.827  0.00  0.00    +0.109 A 
ATOM      5  C   UNL     1       9.224   2.136  22.654  0.00  0.00    +0.135 A 
ATOM      6  C   UNL     1       8.291   3.128  22.357  0.00  0.00    +0.091 A 
ATOM      7  C   UNL     1       6.952   2.777  22.241  0.00  0.00    +0.124 A 
ATOM      8  C   UNL     1       9.776  -0.249  23.128  0.00  0.00    +0.238 A 
ATOM      9  O   UNL     1      10.963   0.027  23.262  0.00  0.00    -0.283 OA
ATOM     10  C   UNL     1       6.531   1.461  22.425  0.00  0.00    +0.092 A 
ATOM     11  C   UNL     1       9.248  -1.633  23.296  0.00  0.00    +0.208 A 
ENDROOT
BRANCH   1  17
ATOM     12  C   UNL     1       6.700  -3.858  22.218  0.00  0.00    +0.061 A 
ATOM     13  C   UNL     1       6.061  -5.084  22.404  0.00  0.00    +0.161 A 
ATOM     14  C   UNL     1       5.898  -5.640  23.670  0.00  0.00    +0.186 A 
ATOM     15  C   UNL     1       6.427  -4.964  24.758  0.00  0.00    +0.162 A 
ATOM     16  C   UNL     1       7.095  -3.736  24.587  0.00  0.00    +0.045 A 
ATOM     17  C   UNL     1       7.245  -3.161  23.309  0.00  0.00    +0.027 A 
BRANCH  15  18
ATOM     18  S   UNL     1       6.231  -5.583  26.398  0.00  0.00    +0.113 S 
ATOM     19  O   UNL     1       5.439  -6.788  26.317  0.00  0.00    -0.142 OA
ATOM     20  O   UNL     1       5.840  -4.457  27.222  0.00  0.00    -0.142 OA
BRANCH  18  21
ATOM     21  O   UNL     1       7.721  -5.974  26.869  0.00  0.00    -0.250 OA
ATOM     22  H   UNL     1       7.918  -5.499  27.703  0.00  0.00    +0.245 HD
ENDBRANCH  18  21
ENDBRANCH  15  18
BRANCH  13  23
ATOM     23  O   UNL     1       5.576  -5.741  21.309  0.00  0.00    -0.503 OA
ATOM     24  H   UNL     1       5.925  -6.653  21.380  0.00  0.00    +0.292 HD
ENDBRANCH  13  23
BRANCH  14  25
ATOM     25  O   UNL     1       5.204  -6.820  23.720  0.00  0.00    -0.502 OA
ATOM     26  H   UNL     1       5.540  -7.447  23.042  0.00  0.00    +0.292 HD
ENDBRANCH  14  25
ENDBRANCH   1  17
BRANCH   5  27
ATOM     27  O   UNL     1      10.529   2.537  22.768  0.00  0.00    -0.506 OA
ATOM     28  H   UNL     1      11.101   1.740  22.680  0.00  0.00    +0.292 HD
ENDBRANCH   5  27
BRANCH   7  29
ATOM     29  O   UNL     1       6.005   3.714  21.947  0.00  0.00    -0.507 OA
ATOM     30  H   UNL     1       5.977   4.367  22.667  0.00  0.00    +0.292 HD
ENDBRANCH   7  29
BRANCH  11  31
ATOM     31  O   UNL     1      10.183  -2.602  23.603  0.00  0.00    -0.501 OA
ATOM     32  H   UNL     1      10.729  -2.284  24.341  0.00  0.00    +0.292 HD
ENDBRANCH  11  31
TORSDOF 8
ENDMDL
MODEL 7
REMARK VINA RESULT:      -7.1      2.393      4.332
REMARK  Name = 
REMARK  8 active torsions:
REMARK  status: ('A' for Active; 'I' for Inactive)
REMARK    1  A    between atoms: C_2  and  C_13
REMARK    2  A    between atoms: C_4  and  S_9
REMARK    3  A    between atoms: C_5  and  O_8
REMARK    4  A    between atoms: C_6  and  O_7
REMARK    5  A    between atoms: S_9  and  O_12
REMARK    6  A    between atoms: C_14  and  O_26
REMARK    7  A    between atoms: C_18  and  O_25
REMARK    8  A    between atoms: C_20  and  O_24
REMARK                            x       y       z     vdW  Elec       q    Type
REMARK                         _______ _______ _______ _____ _____    ______ ____
ROOT
ATOM      1  C   UNL     1       7.374  -0.164  23.881  0.00  0.00    +0.181 A 
ATOM      2  O   UNL     1       8.608   0.362  23.494  0.00  0.00    -0.451 OA
ATOM      3  C   UNL     1       8.861   1.698  23.678  0.00  0.00    +0.147 A 
ATOM      4  C   UNL     1       7.929   2.573  24.219  0.00  0.00    +0.109 A 
ATOM      5  C   UNL     1       8.238   3.931  24.368  0.00  0.00    +0.135 A 
ATOM      6  C   UNL     1       9.489   4.414  23.988  0.00  0.00    +0.091 A 
ATOM      7  C   UNL     1      10.419   3.528  23.458  0.00  0.00    +0.124 A 
ATOM      8  C   UNL     1       6.628   2.044  24.621  0.00  0.00    +0.238 A 
ATOM      9  O   UNL     1       5.774   2.800  25.070  0.00  0.00    -0.283 OA
ATOM     10  C   UNL     1      10.116   2.177  23.293  0.00  0.00    +0.092 A 
ATOM     11  C   UNL     1       6.388   0.586  24.424  0.00  0.00    +0.208 A 
ENDROOT
BRANCH   1  17
ATOM     12  C   UNL     1       6.584  -2.178  22.540  0.00  0.00    +0.061 A 
ATOM     13  C   UNL     1       6.509  -3.560  22.364  0.00  0.00    +0.161 A 
ATOM     14  C   UNL     1       7.076  -4.447  23.275  0.00  0.00    +0.186 A 
ATOM     15  C   UNL     1       7.765  -3.924  24.359  0.00  0.00    +0.162 A 
ATOM     16  C   UNL     1       7.871  -2.532  24.540  0.00  0.00    +0.045 A 
ATOM     17  C   UNL     1       7.282  -1.632  23.630  0.00  0.00    +0.027 A 
BRANCH  15  18
ATOM     18  S   UNL     1       8.480  -4.979  25.577  0.00  0.00    +0.113 S 
ATOM     19  O   UNL     1       7.443  -5.866  26.050  0.00  0.00    -0.142 OA
ATOM     20  O   UNL     1       9.232  -4.125  26.474  0.00  0.00    -0.142 OA
BRANCH  18  21
ATOM     21  O   UNL     1       9.576  -5.846  24.776  0.00  0.00    -0.250 OA
ATOM     22  H   UNL     1      10.179  -6.263  25.427  0.00  0.00    +0.245 HD
ENDBRANCH  18  21
ENDBRANCH  15  18
BRANCH  13  23
ATOM     23  O   UNL     1       5.848  -4.044  21.270  0.00  0.00    -0.503 OA
ATOM     24  H   UNL     1       4.961  -3.632  21.302  0.00  0.00    +0.292 HD
ENDBRANCH  13  23
BRANCH  14  25
ATOM     25  O   UNL     1       6.882  -5.777  23.015  0.00  0.00    -0.502 OA
ATOM     26  H   UNL     1       6.012  -6.073  23.362  0.00  0.00    +0.292 HD
ENDBRANCH  14  25
ENDBRANCH   1  17
BRANCH   5  27
ATOM     27  O   UNL     1       7.356   4.849  24.874  0.00  0.00    -0.506 OA
ATOM     28  H   UNL     1       7.660   5.097  25.778  0.00  0.00    +0.292 HD
ENDBRANCH   5  27
BRANCH   7  29
ATOM     29  O   UNL     1      11.657   3.956  23.078  0.00  0.00    -0.507 OA
ATOM     30  H   UNL     1      12.163   4.194  23.872  0.00  0.00    +0.292 HD
ENDBRANCH   7  29
BRANCH  11  31
ATOM     31  O   UNL     1       5.139   0.125  24.793  0.00  0.00    -0.501 OA
ATOM     32  H   UNL     1       4.521   0.287  24.063  0.00  0.00    +0.292 HD
ENDBRANCH  11  31
TORSDOF 8
ENDMDL
MODEL 8
REMARK VINA RESULT:      -7.0      2.870      7.229
REMARK  Name = 
REMARK  8 active torsions:
REMARK  status: ('A' for Active; 'I' for Inactive)
REMARK    1  A    between atoms: C_2  and  C_13
REMARK    2  A    between atoms: C_4  and  S_9
REMARK    3  A    between atoms: C_5  and  O_8
REMARK    4  A    between atoms: C_6  and  O_7
REMARK    5  A    between atoms: S_9  and  O_12
REMARK    6  A    between atoms: C_14  and  O_26
REMARK    7  A    between atoms: C_18  and  O_25
REMARK    8  A    between atoms: C_20  and  O_24
REMARK                            x       y       z     vdW  Elec       q    Type
REMARK                         _______ _______ _______ _____ _____    ______ ____
ROOT
ATOM      1  C   UNL     1       6.545  -3.964  25.644  0.00  0.00    +0.181 A 
ATOM      2  O   UNL     1       5.545  -3.834  24.678  0.00  0.00    -0.451 OA
ATOM      3  C   UNL     1       4.546  -4.771  24.610  0.00  0.00    +0.147 A 
ATOM      4  C   UNL     1       4.488  -5.873  25.453  0.00  0.00    +0.109 A 
ATOM      5  C   UNL     1       3.452  -6.807  25.326  0.00  0.00    +0.135 A 
ATOM      6  C   UNL     1       2.460  -6.631  24.362  0.00  0.00    +0.091 A 
ATOM      7  C   UNL     1       2.520  -5.520  23.532  0.00  0.00    +0.124 A 
ATOM      8  C   UNL     1       5.532  -6.032  26.463  0.00  0.00    +0.238 A 
ATOM      9  O   UNL     1       5.524  -7.014  27.198  0.00  0.00    -0.283 OA
ATOM     10  C   UNL     1       3.555  -4.591  23.640  0.00  0.00    +0.092 A 
ATOM     11  C   UNL     1       6.595  -4.990  26.524  0.00  0.00    +0.208 A 
ENDROOT
BRANCH   1  17
ATOM     12  C   UNL     1       7.849  -2.049  26.699  0.00  0.00    +0.061 A 
ATOM     13  C   UNL     1       8.763  -1.002  26.586  0.00  0.00    +0.161 A 
ATOM     14  C   UNL     1       9.359  -0.677  25.370  0.00  0.00    +0.186 A 
ATOM     15  C   UNL     1       9.055  -1.453  24.262  0.00  0.00    +0.162 A 
ATOM     16  C   UNL     1       8.153  -2.529  24.362  0.00  0.00    +0.045 A 
ATOM     17  C   UNL     1       7.533  -2.847  25.587  0.00  0.00    +0.027 A 
BRANCH  15  18
ATOM     18  S   UNL     1       9.740  -1.085  22.679  0.00  0.00    +0.113 S 
ATOM     19  O   UNL     1      10.917  -1.904  22.512  0.00  0.00    -0.142 OA
ATOM     20  O   UNL     1       9.785   0.360  22.573  0.00  0.00    -0.142 OA
BRANCH  18  21
ATOM     21  O   UNL     1       8.621  -1.568  21.626  0.00  0.00    -0.250 OA
ATOM     22  H   UNL     1       9.057  -1.732  20.763  0.00  0.00    +0.245 HD
ENDBRANCH  18  21
ENDBRANCH  15  18
BRANCH  13  23
ATOM     23  O   UNL     1       9.064  -0.273  27.702  0.00  0.00    -0.503 OA
ATOM     24  H   UNL     1       8.231  -0.233  28.216  0.00  0.00    +0.292 HD
ENDBRANCH  13  23
BRANCH  14  25
ATOM     25  O   UNL     1      10.194   0.408  25.384  0.00  0.00    -0.502 OA
ATOM     26  H   UNL     1      10.682   0.458  26.236  0.00  0.00    +0.292 HD
ENDBRANCH  14  25
ENDBRANCH   1  17
BRANCH   5  27
ATOM     27  O   UNL     1       3.350  -7.925  26.111  0.00  0.00    -0.506 OA
ATOM     28  H   UNL     1       2.676  -8.520  25.708  0.00  0.00    +0.292 HD
ENDBRANCH   5  27
BRANCH   7  29
ATOM     29  O   UNL     1       1.569  -5.305  22.578  0.00  0.00    -0.507 OA
ATOM     30  H   UNL     1       1.187  -6.160  22.319  0.00  0.00    +0.292 HD
ENDBRANCH   7  29
BRANCH  11  31
ATOM     31  O   UNL     1       7.577  -5.185  27.475  0.00  0.00    -0.501 OA
ATOM     32  H   UNL     1       8.127  -4.386  27.522  0.00  0.00    +0.292 HD
ENDBRANCH  11  31
TORSDOF 8
ENDMDL
MODEL 9
REMARK VINA RESULT:      -6.9      2.721      7.255
REMARK  Name = 
REMARK  8 active torsions:
REMARK  status: ('A' for Active; 'I' for Inactive)
REMARK    1  A    between atoms: C_2  and  C_13
REMARK    2  A    between atoms: C_4  and  S_9
REMARK    3  A    between atoms: C_5  and  O_8
REMARK    4  A    between atoms: C_6  and  O_7
REMARK    5  A    between atoms: S_9  and  O_12
REMARK    6  A    between atoms: C_14  and  O_26
REMARK    7  A    between atoms: C_18  and  O_25
REMARK    8  A    between atoms: C_20  and  O_24
REMARK                            x       y       z     vdW  Elec       q    Type
REMARK                         _______ _______ _______ _____ _____    ______ ____
ROOT
ATOM      1  C   UNL     1       8.194  -1.370  24.245  0.00  0.00    +0.181 A 
ATOM      2  O   UNL     1       7.151  -1.604  25.144  0.00  0.00    -0.451 OA
ATOM      3  C   UNL     1       7.111  -2.787  25.838  0.00  0.00    +0.147 A 
ATOM      4  C   UNL     1       8.058  -3.789  25.675  0.00  0.00    +0.109 A 
ATOM      5  C   UNL     1       7.956  -4.983  26.399  0.00  0.00    +0.135 A 
ATOM      6  C   UNL     1       6.911  -5.171  27.303  0.00  0.00    +0.091 A 
ATOM      7  C   UNL     1       5.975  -4.159  27.467  0.00  0.00    +0.124 A 
ATOM      8  C   UNL     1       9.151  -3.566  24.731  0.00  0.00    +0.238 A 
ATOM      9  O   UNL     1       9.982  -4.448  24.542  0.00  0.00    -0.283 OA
ATOM     10  C   UNL     1       6.060  -2.971  26.741  0.00  0.00    +0.092 A 
ATOM     11  C   UNL     1       9.178  -2.265  24.004  0.00  0.00    +0.208 A 
ENDROOT
BRANCH   1  17
ATOM     12  C   UNL     1       9.147   0.557  22.881  0.00  0.00    +0.061 A 
ATOM     13  C   UNL     1       9.006   1.824  22.316  0.00  0.00    +0.161 A 
ATOM     14  C   UNL     1       7.844   2.574  22.477  0.00  0.00    +0.186 A 
ATOM     15  C   UNL     1       6.794   2.012  23.187  0.00  0.00    +0.162 A 
ATOM     16  C   UNL     1       6.909   0.724  23.745  0.00  0.00    +0.045 A 
ATOM     17  C   UNL     1       8.091  -0.029  23.599  0.00  0.00    +0.027 A 
BRANCH  15  18
ATOM     18  S   UNL     1       5.302   2.911  23.468  0.00  0.00    +0.113 S 
ATOM     19  O   UNL     1       4.478   2.123  24.354  0.00  0.00    -0.142 OA
ATOM     20  O   UNL     1       4.835   3.352  22.169  0.00  0.00    -0.142 OA
BRANCH  18  21
ATOM     21  O   UNL     1       5.767   4.244  24.243  0.00  0.00    -0.250 OA
ATOM     22  H   UNL     1       6.733   4.190  24.402  0.00  0.00    +0.245 HD
ENDBRANCH  18  21
ENDBRANCH  15  18
BRANCH  13  23
ATOM     23  O   UNL     1      10.048   2.339  21.597  0.00  0.00    -0.503 OA
ATOM     24  H   UNL     1      10.272   1.650  20.938  0.00  0.00    +0.292 HD
ENDBRANCH  13  23
BRANCH  14  25
ATOM     25  O   UNL     1       7.856   3.824  21.920  0.00  0.00    -0.502 OA
ATOM     26  H   UNL     1       6.951   4.207  21.911  0.00  0.00    +0.292 HD
ENDBRANCH  14  25
ENDBRANCH   1  17
BRANCH   5  27
ATOM     27  O   UNL     1       8.845  -6.017  26.267  0.00  0.00    -0.506 OA
ATOM     28  H   UNL     1       9.158  -6.266  27.168  0.00  0.00    +0.292 HD
ENDBRANCH   5  27
BRANCH   7  29
ATOM     29  O   UNL     1       4.939  -4.297  28.343  0.00  0.00    -0.507 OA
ATOM     30  H   UNL     1       4.950  -3.547  28.961  0.00  0.00    +0.292 HD
ENDBRANCH   7  29
BRANCH  11  31
ATOM     31  O   UNL     1      10.212  -2.099  23.103  0.00  0.00    -0.501 OA
ATOM     32  H   UNL     1      10.203  -1.181  22.787  0.00  0.00    +0.292 HD
ENDBRANCH  11  31
TORSDOF 8
ENDMDL
