MODEL 1
REMARK VINA RESULT:      -7.2      0.000      0.000
REMARK  Name = 
REMARK  17 active torsions:
REMARK  status: ('A' for Active; 'I' for Inactive)
REMARK    1  A    between atoms: C_1  and  O_2
REMARK    2  A    between atoms: O_2  and  C_3
REMARK    3  A    between atoms: C_4  and  O_48
REMARK    4  A    between atoms: C_7  and  C_9
REMARK    5  A    between atoms: C_10  and  O_22
REMARK    6  A    between atoms: C_14  and  O_21
REMARK    7  A    between atoms: C_16  and  O_20
REMARK    8  A    between atoms: O_22  and  C_23
REMARK    9  A    between atoms: C_25  and  O_35
REMARK   10  A    between atoms: C_26  and  O_34
REMARK   11  A    between atoms: C_27  and  O_33
REMARK   12  A    between atoms: C_29  and  C_31
REMARK   13  A    between atoms: C_31  and  O_32
REMARK   14  A    between atoms: O_35  and  C_36
REMARK   15  A    between atoms: C_38  and  O_47
REMARK   16  A    between atoms: C_40  and  O_46
REMARK   17  A    between atoms: C_41  and  O_45
REMARK                            x       y       z     vdW  Elec       q    Type
REMARK                         _______ _______ _______ _____ _____    ______ ____
ROOT
ATOM      1  O   UNL     1       7.157   0.237  24.725  0.00  0.00    -0.453 OA
ENDROOT
BRANCH   1  12
ATOM      2  C   UNL     1       6.071   2.378  25.349  0.00  0.00    +0.181 A 
ATOM      3  O   UNL     1       4.975   2.876  26.133  0.00  0.00    -0.451 OA
ATOM      4  C   UNL     1       4.251   1.993  26.930  0.00  0.00    +0.147 A 
ATOM      5  C   UNL     1       4.294   0.627  26.749  0.00  0.00    +0.109 A 
ATOM      6  C   UNL     1       3.627  -0.300  27.586  0.00  0.00    +0.135 A 
ATOM      7  C   UNL     1       2.844   0.173  28.623  0.00  0.00    +0.091 A 
ATOM      8  C   UNL     1       2.727   1.553  28.781  0.00  0.00    +0.124 A 
ATOM      9  C   UNL     1       5.106   0.146  25.658  0.00  0.00    +0.238 A 
ATOM     10  O   UNL     1       4.964  -1.002  25.246  0.00  0.00    -0.283 OA
ATOM     11  C   UNL     1       3.414   2.464  27.951  0.00  0.00    +0.092 A 
ATOM     12  C   UNL     1       6.209   1.036  25.192  0.00  0.00    +0.214 A 
BRANCH   2  15
ATOM     13  C   UNL     1       7.587   5.141  23.065  0.00  0.00    +0.162 A 
ATOM     14  C   UNL     1       6.650   4.386  23.788  0.00  0.00    +0.061 A 
ATOM     15  C   UNL     1       7.008   3.461  24.804  0.00  0.00    +0.025 A 
ATOM     16  C   UNL     1       8.323   3.608  25.285  0.00  0.00    +0.015 A 
ATOM     17  C   UNL     1       9.254   4.469  24.661  0.00  0.00    +0.050 A 
ATOM     18  C   UNL     1       8.898   5.157  23.512  0.00  0.00    +0.158 A 
BRANCH  18  19
ATOM     19  O   UNL     1       9.845   5.875  22.831  0.00  0.00    -0.503 OA
ATOM     20  H   UNL     1       9.438   6.080  21.968  0.00  0.00    +0.292 HD
ENDBRANCH  18  19
BRANCH  13  22
ATOM     21  C   UNL     1       6.542   6.994  21.915  0.00  0.00    +0.277 C 
ATOM     22  O   UNL     1       7.385   5.851  21.909  0.00  0.00    -0.491 OA
ENDBRANCH  13  22
ENDBRANCH   2  15
BRANCH   8  23
ATOM     23  O   UNL     1       1.921   2.042  29.769  0.00  0.00    -0.507 OA
ATOM     24  H   UNL     1       1.378   1.313  30.121  0.00  0.00    +0.292 HD
ENDBRANCH   8  23
BRANCH   6  25
ATOM     25  O   UNL     1       3.717  -1.654  27.457  0.00  0.00    -0.506 OA
ATOM     26  H   UNL     1       3.705  -2.042  28.366  0.00  0.00    +0.292 HD
ENDBRANCH   6  25
ENDBRANCH   1  12
BRANCH   1  27
ATOM     27  C   UNL     1       8.379  -0.382  24.989  0.00  0.00    +0.340 C 
ATOM     28  O   UNL     1       9.388   0.337  24.258  0.00  0.00    -0.331 OA
ATOM     29  C   UNL     1       9.034   0.536  22.863  0.00  0.00    +0.179 C 
ATOM     30  C   UNL     1       8.718  -0.789  22.144  0.00  0.00    +0.177 C 
ATOM     31  C   UNL     1       7.767  -1.678  22.973  0.00  0.00    +0.180 C 
ATOM     32  C   UNL     1       8.307  -1.813  24.425  0.00  0.00    +0.221 C 
BRANCH  31  33
ATOM     33  O   UNL     1       7.610  -2.929  22.303  0.00  0.00    -0.386 OA
ATOM     34  H   UNL     1       7.185  -2.740  21.444  0.00  0.00    +0.210 HD
ENDBRANCH  31  33
BRANCH  30  35
ATOM     35  O   UNL     1       9.920  -1.526  21.887  0.00  0.00    -0.386 OA
ATOM     36  H   UNL     1       9.817  -2.375  22.361  0.00  0.00    +0.210 HD
ENDBRANCH  30  35
BRANCH  32  37
ATOM     37  O   UNL     1       7.705  -2.763  25.339  0.00  0.00    -0.337 OA
BRANCH  37  38
ATOM     38  C   UNL     1       8.117  -4.121  25.416  0.00  0.00    +0.282 C 
ATOM     39  O   UNL     1       7.345  -4.931  24.504  0.00  0.00    -0.346 OA
ATOM     40  C   UNL     1       5.929  -4.953  24.751  0.00  0.00    +0.197 C 
ATOM     41  C   UNL     1       5.535  -5.225  26.210  0.00  0.00    +0.171 C 
ATOM     42  C   UNL     1       6.440  -4.476  27.185  0.00  0.00    +0.178 C 
ATOM     43  C   UNL     1       7.917  -4.692  26.818  0.00  0.00    +0.201 C 
BRANCH  43  44
ATOM     44  O   UNL     1       8.287  -6.075  26.912  0.00  0.00    -0.384 OA
ATOM     45  H   UNL     1       8.580  -6.354  26.014  0.00  0.00    +0.210 HD
ENDBRANCH  43  44
BRANCH  42  46
ATOM     46  O   UNL     1       6.184  -4.924  28.525  0.00  0.00    -0.386 OA
ATOM     47  H   UNL     1       6.908  -5.530  28.766  0.00  0.00    +0.210 HD
ENDBRANCH  42  46
BRANCH  41  48
ATOM     48  O   UNL     1       5.654  -6.628  26.504  0.00  0.00    -0.387 OA
ATOM     49  H   UNL     1       5.488  -6.683  27.471  0.00  0.00    +0.210 HD
ENDBRANCH  41  48
ENDBRANCH  37  38
ENDBRANCH  32  37
BRANCH  29  50
ATOM     50  C   UNL     1      10.174   1.311  22.190  0.00  0.00    +0.190 C 
BRANCH  50  51
ATOM     51  O   UNL     1       9.672   2.403  21.409  0.00  0.00    -0.392 OA
ATOM     52  H   UNL     1       8.721   2.493  21.590  0.00  0.00    +0.210 HD
ENDBRANCH  50  51
ENDBRANCH  29  50
ENDBRANCH   1  27
TORSDOF 16
ENDMDL
MODEL 2
REMARK VINA RESULT:      -6.9      2.355      6.578
REMARK  Name = 
REMARK  17 active torsions:
REMARK  status: ('A' for Active; 'I' for Inactive)
REMARK    1  A    between atoms: C_1  and  O_2
REMARK    2  A    between atoms: O_2  and  C_3
REMARK    3  A    between atoms: C_4  and  O_48
REMARK    4  A    between atoms: C_7  and  C_9
REMARK    5  A    between atoms: C_10  and  O_22
REMARK    6  A    between atoms: C_14  and  O_21
REMARK    7  A    between atoms: C_16  and  O_20
REMARK    8  A    between atoms: O_22  and  C_23
REMARK    9  A    between atoms: C_25  and  O_35
REMARK   10  A    between atoms: C_26  and  O_34
REMARK   11  A    between atoms: C_27  and  O_33
REMARK   12  A    between atoms: C_29  and  C_31
REMARK   13  A    between atoms: C_31  and  O_32
REMARK   14  A    between atoms: O_35  and  C_36
REMARK   15  A    between atoms: C_38  and  O_47
REMARK   16  A    between atoms: C_40  and  O_46
REMARK   17  A    between atoms: C_41  and  O_45
REMARK                            x       y       z     vdW  Elec       q    Type
REMARK                         _______ _______ _______ _____ _____    ______ ____
ROOT
ATOM      1  O   UNL     1       6.823  -3.215  24.609  0.00  0.00    -0.453 OA
ENDROOT
BRANCH   1  12
ATOM      2  C   UNL     1       6.959  -0.945  25.599  0.00  0.00    +0.181 A 
ATOM      3  O   UNL     1       7.665   0.295  25.432  0.00  0.00    -0.451 OA
ATOM      4  C   UNL     1       8.519   0.452  24.343  0.00  0.00    +0.147 A 
ATOM      5  C   UNL     1       8.995  -0.618  23.617  0.00  0.00    +0.109 A 
ATOM      6  C   UNL     1       9.807  -0.489  22.464  0.00  0.00    +0.135 A 
ATOM      7  C   UNL     1      10.193   0.774  22.052  0.00  0.00    +0.091 A 
ATOM      8  C   UNL     1       9.783   1.867  22.813  0.00  0.00    +0.124 A 
ATOM      9  C   UNL     1       8.594  -1.931  24.063  0.00  0.00    +0.238 A 
ATOM     10  O   UNL     1       9.200  -2.924  23.671  0.00  0.00    -0.283 OA
ATOM     11  C   UNL     1       8.959   1.723  23.948  0.00  0.00    +0.092 A 
ATOM     12  C   UNL     1       7.336  -2.019  24.859  0.00  0.00    +0.214 A 
BRANCH   2  15
ATOM     13  C   UNL     1       3.367  -1.057  27.093  0.00  0.00    +0.162 A 
ATOM     14  C   UNL     1       4.499  -1.399  26.336  0.00  0.00    +0.061 A 
ATOM     15  C   UNL     1       5.797  -0.887  26.597  0.00  0.00    +0.025 A 
ATOM     16  C   UNL     1       5.945  -0.299  27.867  0.00  0.00    +0.015 A 
ATOM     17  C   UNL     1       4.838  -0.066  28.715  0.00  0.00    +0.050 A 
ATOM     18  C   UNL     1       3.558  -0.372  28.281  0.00  0.00    +0.158 A 
BRANCH  18  19
ATOM     19  O   UNL     1       2.480  -0.012  29.046  0.00  0.00    -0.503 OA
ATOM     20  H   UNL     1       2.618  -0.455  29.905  0.00  0.00    +0.292 HD
ENDBRANCH  18  19
BRANCH  13  22
ATOM     21  C   UNL     1       1.502  -2.581  26.879  0.00  0.00    +0.277 C 
ATOM     22  O   UNL     1       2.049  -1.275  26.782  0.00  0.00    -0.491 OA
ENDBRANCH  13  22
ENDBRANCH   2  15
BRANCH   8  23
ATOM     23  O   UNL     1      10.193   3.118  22.451  0.00  0.00    -0.507 OA
ATOM     24  H   UNL     1      10.286   3.663  23.253  0.00  0.00    +0.292 HD
ENDBRANCH   8  23
BRANCH   6  25
ATOM     25  O   UNL     1      10.228  -1.536  21.699  0.00  0.00    -0.506 OA
ATOM     26  H   UNL     1      11.216  -1.523  21.693  0.00  0.00    +0.292 HD
ENDBRANCH   6  25
ENDBRANCH   1  12
BRANCH   1  27
ATOM     27  C   UNL     1       6.804  -4.562  24.970  0.00  0.00    +0.340 C 
ATOM     28  O   UNL     1       7.173  -5.321  23.805  0.00  0.00    -0.331 OA
ATOM     29  C   UNL     1       6.415  -4.941  22.626  0.00  0.00    +0.179 C 
ATOM     30  C   UNL     1       4.894  -5.041  22.850  0.00  0.00    +0.177 C 
ATOM     31  C   UNL     1       4.466  -4.386  24.180  0.00  0.00    +0.180 C 
ATOM     32  C   UNL     1       5.354  -4.925  25.339  0.00  0.00    +0.221 C 
BRANCH  31  33
ATOM     33  O   UNL     1       3.071  -4.616  24.374  0.00  0.00    -0.386 OA
ATOM     34  H   UNL     1       2.855  -4.307  25.275  0.00  0.00    +0.210 HD
ENDBRANCH  31  33
BRANCH  30  35
ATOM     35  O   UNL     1       4.473  -6.410  22.860  0.00  0.00    -0.386 OA
ATOM     36  H   UNL     1       3.506  -6.389  23.009  0.00  0.00    +0.210 HD
ENDBRANCH  30  35
BRANCH  32  37
ATOM     37  O   UNL     1       5.015  -4.621  26.715  0.00  0.00    -0.337 OA
BRANCH  37  38
ATOM     38  C   UNL     1       5.786  -5.084  27.815  0.00  0.00    +0.282 C 
ATOM     39  O   UNL     1       5.853  -6.527  27.807  0.00  0.00    -0.346 OA
ATOM     40  C   UNL     1       4.589  -7.201  27.923  0.00  0.00    +0.197 C 
ATOM     41  C   UNL     1       3.689  -6.690  29.058  0.00  0.00    +0.171 C 
ATOM     42  C   UNL     1       3.722  -5.167  29.158  0.00  0.00    +0.178 C 
ATOM     43  C   UNL     1       5.174  -4.661  29.149  0.00  0.00    +0.201 C 
BRANCH  43  44
ATOM     44  O   UNL     1       5.911  -5.152  30.278  0.00  0.00    -0.384 OA
ATOM     45  H   UNL     1       6.799  -4.731  30.244  0.00  0.00    +0.210 HD
ENDBRANCH  43  44
BRANCH  42  46
ATOM     46  O   UNL     1       3.050  -4.746  30.356  0.00  0.00    -0.386 OA
ATOM     47  H   UNL     1       3.513  -5.166  31.105  0.00  0.00    +0.210 HD
ENDBRANCH  42  46
BRANCH  41  48
ATOM     48  O   UNL     1       4.136  -7.215  30.321  0.00  0.00    -0.387 OA
ATOM     49  H   UNL     1       3.390  -7.028  30.932  0.00  0.00    +0.210 HD
ENDBRANCH  41  48
ENDBRANCH  37  38
ENDBRANCH  32  37
BRANCH  29  50
ATOM     50  C   UNL     1       6.894  -5.807  21.454  0.00  0.00    +0.190 C 
BRANCH  50  51
ATOM     51  O   UNL     1       5.972  -5.758  20.359  0.00  0.00    -0.392 OA
ATOM     52  H   UNL     1       6.300  -6.350  19.660  0.00  0.00    +0.210 HD
ENDBRANCH  50  51
ENDBRANCH  29  50
ENDBRANCH   1  27
TORSDOF 16
ENDMDL
MODEL 3
REMARK VINA RESULT:      -6.6      2.124      7.395
REMARK  Name = 
REMARK  17 active torsions:
REMARK  status: ('A' for Active; 'I' for Inactive)
REMARK    1  A    between atoms: C_1  and  O_2
REMARK    2  A    between atoms: O_2  and  C_3
REMARK    3  A    between atoms: C_4  and  O_48
REMARK    4  A    between atoms: C_7  and  C_9
REMARK    5  A    between atoms: C_10  and  O_22
REMARK    6  A    between atoms: C_14  and  O_21
REMARK    7  A    between atoms: C_16  and  O_20
REMARK    8  A    between atoms: O_22  and  C_23
REMARK    9  A    between atoms: C_25  and  O_35
REMARK   10  A    between atoms: C_26  and  O_34
REMARK   11  A    between atoms: C_27  and  O_33
REMARK   12  A    between atoms: C_29  and  C_31
REMARK   13  A    between atoms: C_31  and  O_32
REMARK   14  A    between atoms: O_35  and  C_36
REMARK   15  A    between atoms: C_38  and  O_47
REMARK   16  A    between atoms: C_40  and  O_46
REMARK   17  A    between atoms: C_41  and  O_45
REMARK                            x       y       z     vdW  Elec       q    Type
REMARK                         _______ _______ _______ _____ _____    ______ ____
ROOT
ATOM      1  O   UNL     1       6.651  -1.635  25.175  0.00  0.00    -0.453 OA
ENDROOT
BRANCH   1  12
ATOM      2  C   UNL     1       4.915  -2.877  26.438  0.00  0.00    +0.181 A 
ATOM      3  O   UNL     1       4.011  -2.702  27.540  0.00  0.00    -0.451 OA
ATOM      4  C   UNL     1       3.897  -1.449  28.137  0.00  0.00    +0.147 A 
ATOM      5  C   UNL     1       4.842  -0.461  27.967  0.00  0.00    +0.109 A 
ATOM      6  C   UNL     1       4.720   0.845  28.500  0.00  0.00    +0.135 A 
ATOM      7  C   UNL     1       3.619   1.154  29.278  0.00  0.00    +0.091 A 
ATOM      8  C   UNL     1       2.686   0.149  29.524  0.00  0.00    +0.124 A 
ATOM      9  C   UNL     1       5.991  -0.798  27.162  0.00  0.00    +0.238 A 
ATOM     10  O   UNL     1       6.999  -0.099  27.208  0.00  0.00    -0.283 OA
ATOM     11  C   UNL     1       2.811  -1.142  28.969  0.00  0.00    +0.092 A 
ATOM     12  C   UNL     1       5.825  -1.904  26.175  0.00  0.00    +0.214 A 
BRANCH   2  15
ATOM     13  C   UNL     1       3.507  -5.438  23.866  0.00  0.00    +0.162 A 
ATOM     14  C   UNL     1       3.982  -4.237  24.417  0.00  0.00    +0.061 A 
ATOM     15  C   UNL     1       4.702  -4.167  25.638  0.00  0.00    +0.025 A 
ATOM     16  C   UNL     1       5.215  -5.401  26.080  0.00  0.00    +0.015 A 
ATOM     17  C   UNL     1       4.864  -6.621  25.459  0.00  0.00    +0.050 A 
ATOM     18  C   UNL     1       3.951  -6.629  24.416  0.00  0.00    +0.158 A 
BRANCH  18  19
ATOM     19  O   UNL     1       3.506  -7.823  23.915  0.00  0.00    -0.503 OA
ATOM     20  H   UNL     1       3.527  -7.716  22.944  0.00  0.00    +0.292 HD
ENDBRANCH  18  19
BRANCH  13  22
ATOM     21  C   UNL     1       1.224  -5.308  23.082  0.00  0.00    +0.277 C 
ATOM     22  O   UNL     1       2.595  -5.598  22.855  0.00  0.00    -0.491 OA
ENDBRANCH  13  22
ENDBRANCH   2  15
BRANCH   8  23
ATOM     23  O   UNL     1       1.616   0.419  30.328  0.00  0.00    -0.507 OA
ATOM     24  H   UNL     1       1.691   1.333  30.655  0.00  0.00    +0.292 HD
ENDBRANCH   8  23
BRANCH   6  25
ATOM     25  O   UNL     1       5.616   1.851  28.283  0.00  0.00    -0.506 OA
ATOM     26  H   UNL     1       6.521   1.480  28.424  0.00  0.00    +0.292 HD
ENDBRANCH   6  25
ENDBRANCH   1  12
BRANCH   1  27
ATOM     27  C   UNL     1       6.924  -1.826  23.821  0.00  0.00    +0.340 C 
ATOM     28  O   UNL     1       7.335  -3.195  23.657  0.00  0.00    -0.331 OA
ATOM     29  C   UNL     1       8.366  -3.587  24.602  0.00  0.00    +0.179 C 
ATOM     30  C   UNL     1       9.598  -2.665  24.541  0.00  0.00    +0.177 C 
ATOM     31  C   UNL     1       9.199  -1.174  24.541  0.00  0.00    +0.180 C 
ATOM     32  C   UNL     1       8.115  -0.921  23.454  0.00  0.00    +0.221 C 
BRANCH  31  33
ATOM     33  O   UNL     1      10.377  -0.386  24.369  0.00  0.00    -0.386 OA
ATOM     34  H   UNL     1      10.898  -0.469  25.190  0.00  0.00    +0.210 HD
ENDBRANCH  31  33
BRANCH  30  35
ATOM     35  O   UNL     1      10.370  -2.929  23.363  0.00  0.00    -0.386 OA
ATOM     36  H   UNL     1      11.242  -3.240  23.681  0.00  0.00    +0.210 HD
ENDBRANCH  30  35
BRANCH  32  37
ATOM     37  O   UNL     1       7.728   0.434  23.116  0.00  0.00    -0.337 OA
BRANCH  37  38
ATOM     38  C   UNL     1       7.289   1.372  24.090  0.00  0.00    +0.282 C 
ATOM     39  O   UNL     1       6.098   2.048  23.633  0.00  0.00    -0.346 OA
ATOM     40  C   UNL     1       6.250   2.806  22.422  0.00  0.00    +0.197 C 
ATOM     41  C   UNL     1       7.468   3.742  22.397  0.00  0.00    +0.171 C 
ATOM     42  C   UNL     1       8.699   3.077  23.007  0.00  0.00    +0.178 C 
ATOM     43  C   UNL     1       8.347   2.439  24.360  0.00  0.00    +0.201 C 
BRANCH  43  44
ATOM     44  O   UNL     1       7.913   3.423  25.310  0.00  0.00    -0.384 OA
ATOM     45  H   UNL     1       8.645   3.539  25.957  0.00  0.00    +0.210 HD
ENDBRANCH  43  44
BRANCH  42  46
ATOM     46  O   UNL     1       9.745   4.048  23.164  0.00  0.00    -0.386 OA
ATOM     47  H   UNL     1       9.463   4.851  22.688  0.00  0.00    +0.210 HD
ENDBRANCH  42  46
BRANCH  41  48
ATOM     48  O   UNL     1       7.197   4.931  23.160  0.00  0.00    -0.387 OA
ATOM     49  H   UNL     1       8.078   5.354  23.260  0.00  0.00    +0.210 HD
ENDBRANCH  41  48
ENDBRANCH  37  38
ENDBRANCH  32  37
BRANCH  29  50
ATOM     50  C   UNL     1       8.718  -5.056  24.337  0.00  0.00    +0.190 C 
BRANCH  50  51
ATOM     51  O   UNL     1      10.029  -5.373  24.820  0.00  0.00    -0.392 OA
ATOM     52  H   UNL     1      10.655  -4.733  24.441  0.00  0.00    +0.210 HD
ENDBRANCH  50  51
ENDBRANCH  29  50
ENDBRANCH   1  27
TORSDOF 16
ENDMDL
MODEL 4
REMARK VINA RESULT:      -6.5      2.640      7.571
REMARK  Name = 
REMARK  17 active torsions:
REMARK  status: ('A' for Active; 'I' for Inactive)
REMARK    1  A    between atoms: C_1  and  O_2
REMARK    2  A    between atoms: O_2  and  C_3
REMARK    3  A    between atoms: C_4  and  O_48
REMARK    4  A    between atoms: C_7  and  C_9
REMARK    5  A    between atoms: C_10  and  O_22
REMARK    6  A    between atoms: C_14  and  O_21
REMARK    7  A    between atoms: C_16  and  O_20
REMARK    8  A    between atoms: O_22  and  C_23
REMARK    9  A    between atoms: C_25  and  O_35
REMARK   10  A    between atoms: C_26  and  O_34
REMARK   11  A    between atoms: C_27  and  O_33
REMARK   12  A    between atoms: C_29  and  C_31
REMARK   13  A    between atoms: C_31  and  O_32
REMARK   14  A    between atoms: O_35  and  C_36
REMARK   15  A    between atoms: C_38  and  O_47
REMARK   16  A    between atoms: C_40  and  O_46
REMARK   17  A    between atoms: C_41  and  O_45
REMARK                            x       y       z     vdW  Elec       q    Type
REMARK                         _______ _______ _______ _____ _____    ______ ____
ROOT
ATOM      1  O   UNL     1       6.364  -2.462  25.375  0.00  0.00    -0.453 OA
ENDROOT
BRANCH   1  12
ATOM      2  C   UNL     1       4.419  -2.252  26.900  0.00  0.00    +0.181 A 
ATOM      3  O   UNL     1       3.868  -1.349  27.871  0.00  0.00    -0.451 OA
ATOM      4  C   UNL     1       4.462  -0.104  28.060  0.00  0.00    +0.147 A 
ATOM      5  C   UNL     1       5.740   0.178  27.629  0.00  0.00    +0.109 A 
ATOM      6  C   UNL     1       6.345   1.453  27.742  0.00  0.00    +0.135 A 
ATOM      7  C   UNL     1       5.648   2.477  28.358  0.00  0.00    +0.091 A 
ATOM      8  C   UNL     1       4.381   2.195  28.866  0.00  0.00    +0.124 A 
ATOM      9  C   UNL     1       6.461  -0.900  26.998  0.00  0.00    +0.238 A 
ATOM     10  O   UNL     1       7.679  -0.827  26.862  0.00  0.00    -0.283 OA
ATOM     11  C   UNL     1       3.784   0.925  28.729  0.00  0.00    +0.092 A 
ATOM     12  C   UNL     1       5.648  -1.989  26.384  0.00  0.00    +0.214 A 
BRANCH   2  15
ATOM     13  C   UNL     1       2.735  -5.761  26.845  0.00  0.00    +0.162 A 
ATOM     14  C   UNL     1       3.296  -4.567  27.326  0.00  0.00    +0.061 A 
ATOM     15  C   UNL     1       3.500  -3.417  26.518  0.00  0.00    +0.025 A 
ATOM     16  C   UNL     1       2.786  -3.426  25.306  0.00  0.00    +0.015 A 
ATOM     17  C   UNL     1       2.093  -4.573  24.856  0.00  0.00    +0.050 A 
ATOM     18  C   UNL     1       2.147  -5.747  25.591  0.00  0.00    +0.158 A 
BRANCH  18  19
ATOM     19  O   UNL     1       1.595  -6.892  25.081  0.00  0.00    -0.503 OA
ATOM     20  H   UNL     1       0.843  -6.591  24.537  0.00  0.00    +0.292 HD
ENDBRANCH  18  19
BRANCH  13  22
ATOM     21  C   UNL     1       2.337  -7.118  28.806  0.00  0.00    +0.277 C 
ATOM     22  O   UNL     1       2.732  -6.992  27.448  0.00  0.00    -0.491 OA
ENDBRANCH  13  22
ENDBRANCH   2  15
BRANCH   8  23
ATOM     23  O   UNL     1       3.695   3.178  29.520  0.00  0.00    -0.507 OA
ATOM     24  H   UNL     1       4.308   3.650  30.111  0.00  0.00    +0.292 HD
ENDBRANCH   8  23
BRANCH   6  25
ATOM     25  O   UNL     1       7.583   1.762  27.260  0.00  0.00    -0.506 OA
ATOM     26  H   UNL     1       7.986   0.928  26.915  0.00  0.00    +0.292 HD
ENDBRANCH   6  25
ENDBRANCH   1  12
BRANCH   1  27
ATOM     27  C   UNL     1       6.501  -2.531  23.988  0.00  0.00    +0.340 C 
ATOM     28  O   UNL     1       5.822  -3.722  23.551  0.00  0.00    -0.331 OA
ATOM     29  C   UNL     1       6.208  -4.897  24.313  0.00  0.00    +0.179 C 
ATOM     30  C   UNL     1       7.730  -5.132  24.298  0.00  0.00    +0.177 C 
ATOM     31  C   UNL     1       8.513  -3.835  24.595  0.00  0.00    +0.180 C 
ATOM     32  C   UNL     1       7.999  -2.690  23.675  0.00  0.00    +0.221 C 
BRANCH  31  33
ATOM     33  O   UNL     1       9.908  -4.101  24.453  0.00  0.00    -0.386 OA
ATOM     34  H   UNL     1      10.266  -4.231  25.352  0.00  0.00    +0.210 HD
ENDBRANCH  31  33
BRANCH  30  35
ATOM     35  O   UNL     1       8.152  -5.636  23.025  0.00  0.00    -0.386 OA
ATOM     36  H   UNL     1       7.337  -5.724  22.491  0.00  0.00    +0.210 HD
ENDBRANCH  30  35
BRANCH  32  37
ATOM     37  O   UNL     1       8.714  -1.431  23.616  0.00  0.00    -0.337 OA
BRANCH  37  38
ATOM     38  C   UNL     1       8.051  -0.174  23.567  0.00  0.00    +0.282 C 
ATOM     39  O   UNL     1       7.791   0.202  22.197  0.00  0.00    -0.346 OA
ATOM     40  C   UNL     1       8.957   0.360  21.372  0.00  0.00    +0.197 C 
ATOM     41  C   UNL     1      10.068   1.224  21.988  0.00  0.00    +0.171 C 
ATOM     42  C   UNL     1      10.253   0.925  23.473  0.00  0.00    +0.178 C 
ATOM     43  C   UNL     1       8.896   0.933  24.194  0.00  0.00    +0.201 C 
BRANCH  43  44
ATOM     44  O   UNL     1       8.267   2.220  24.120  0.00  0.00    -0.384 OA
ATOM     45  H   UNL     1       7.316   2.062  23.919  0.00  0.00    +0.210 HD
ENDBRANCH  43  44
BRANCH  42  46
ATOM     46  O   UNL     1      11.138   1.896  24.055  0.00  0.00    -0.386 OA
ATOM     47  H   UNL     1      10.827   2.774  23.766  0.00  0.00    +0.210 HD
ENDBRANCH  42  46
BRANCH  41  48
ATOM     48  O   UNL     1       9.738   2.618  21.866  0.00  0.00    -0.387 OA
ATOM     49  H   UNL     1       8.866   2.617  21.413  0.00  0.00    +0.210 HD
ENDBRANCH  41  48
ENDBRANCH  37  38
ENDBRANCH  32  37
BRANCH  29  50
ATOM     50  C   UNL     1       5.424  -6.096  23.765  0.00  0.00    +0.190 C 
BRANCH  50  51
ATOM     51  O   UNL     1       5.353  -6.062  22.334  0.00  0.00    -0.392 OA
ATOM     52  H   UNL     1       5.073  -5.170  22.066  0.00  0.00    +0.210 HD
ENDBRANCH  50  51
ENDBRANCH  29  50
ENDBRANCH   1  27
TORSDOF 16
ENDMDL
MODEL 5
REMARK VINA RESULT:      -6.5      2.396      4.492
REMARK  Name = 
REMARK  17 active torsions:
REMARK  status: ('A' for Active; 'I' for Inactive)
REMARK    1  A    between atoms: C_1  and  O_2
REMARK    2  A    between atoms: O_2  and  C_3
REMARK    3  A    between atoms: C_4  and  O_48
REMARK    4  A    between atoms: C_7  and  C_9
REMARK    5  A    between atoms: C_10  and  O_22
REMARK    6  A    between atoms: C_14  and  O_21
REMARK    7  A    between atoms: C_16  and  O_20
REMARK    8  A    between atoms: O_22  and  C_23
REMARK    9  A    between atoms: C_25  and  O_35
REMARK   10  A    between atoms: C_26  and  O_34
REMARK   11  A    between atoms: C_27  and  O_33
REMARK   12  A    between atoms: C_29  and  C_31
REMARK   13  A    between atoms: C_31  and  O_32
REMARK   14  A    between atoms: O_35  and  C_36
REMARK   15  A    between atoms: C_38  and  O_47
REMARK   16  A    between atoms: C_40  and  O_46
REMARK   17  A    between atoms: C_41  and  O_45
REMARK                            x       y       z     vdW  Elec       q    Type
REMARK                         _______ _______ _______ _____ _____    ______ ____
ROOT
ATOM      1  O   UNL     1       5.935  -2.749  24.980  0.00  0.00    -0.453 OA
ENDROOT
BRANCH   1  12
ATOM      2  C   UNL     1       5.594  -0.293  24.933  0.00  0.00    +0.181 A 
ATOM      3  O   UNL     1       4.952   0.750  25.684  0.00  0.00    -0.451 OA
ATOM      4  C   UNL     1       4.364   0.445  26.910  0.00  0.00    +0.147 A 
ATOM      5  C   UNL     1       4.056  -0.846  27.281  0.00  0.00    +0.109 A 
ATOM      6  C   UNL     1       3.525  -1.195  28.546  0.00  0.00    +0.135 A 
ATOM      7  C   UNL     1       3.249  -0.194  29.460  0.00  0.00    +0.091 A 
ATOM      8  C   UNL     1       3.485   1.126  29.079  0.00  0.00    +0.124 A 
ATOM      9  C   UNL     1       4.339  -1.880  26.316  0.00  0.00    +0.238 A 
ATOM     10  O   UNL     1       3.830  -2.991  26.439  0.00  0.00    -0.283 OA
ATOM     11  C   UNL     1       4.033   1.456  27.822  0.00  0.00    +0.092 A 
ATOM     12  C   UNL     1       5.386  -1.585  25.295  0.00  0.00    +0.214 A 
BRANCH   2  15
ATOM     13  C   UNL     1       8.472  -0.117  22.318  0.00  0.00    +0.162 A 
ATOM     14  C   UNL     1       7.422  -0.622  23.102  0.00  0.00    +0.061 A 
ATOM     15  C   UNL     1       6.503   0.203  23.804  0.00  0.00    +0.025 A 
ATOM     16  C   UNL     1       6.491   1.546  23.383  0.00  0.00    +0.015 A 
ATOM     17  C   UNL     1       7.455   2.055  22.484  0.00  0.00    +0.050 A 
ATOM     18  C   UNL     1       8.479   1.238  22.031  0.00  0.00    +0.158 A 
BRANCH  18  19
ATOM     19  O   UNL     1       9.488   1.773  21.276  0.00  0.00    -0.503 OA
ATOM     20  H   UNL     1       9.209   2.690  21.089  0.00  0.00    +0.292 HD
ENDBRANCH  18  19
BRANCH  13  22
ATOM     21  C   UNL     1      10.369  -1.568  22.690  0.00  0.00    +0.277 C 
ATOM     22  O   UNL     1       9.553  -0.797  21.821  0.00  0.00    -0.491 OA
ENDBRANCH  13  22
ENDBRANCH   2  15
BRANCH   8  23
ATOM     23  O   UNL     1       3.175   2.132  29.947  0.00  0.00    -0.507 OA
ATOM     24  H   UNL     1       2.209   2.258  29.952  0.00  0.00    +0.292 HD
ENDBRANCH   8  23
BRANCH   6  25
ATOM     25  O   UNL     1       3.279  -2.474  28.950  0.00  0.00    -0.506 OA
ATOM     26  H   UNL     1       2.426  -2.759  28.539  0.00  0.00    +0.292 HD
ENDBRANCH   6  25
ENDBRANCH   1  12
BRANCH   1  27
ATOM     27  C   UNL     1       5.903  -4.131  25.171  0.00  0.00    +0.340 C 
ATOM     28  O   UNL     1       7.239  -4.545  25.509  0.00  0.00    -0.331 OA
ATOM     29  C   UNL     1       8.236  -4.027  24.588  0.00  0.00    +0.179 C 
ATOM     30  C   UNL     1       7.931  -4.400  23.125  0.00  0.00    +0.177 C 
ATOM     31  C   UNL     1       6.456  -4.132  22.760  0.00  0.00    +0.180 C 
ATOM     32  C   UNL     1       5.526  -4.779  23.827  0.00  0.00    +0.221 C 
BRANCH  31  33
ATOM     33  O   UNL     1       6.220  -4.604  21.434  0.00  0.00    -0.386 OA
ATOM     34  H   UNL     1       6.276  -5.578  21.464  0.00  0.00    +0.210 HD
ENDBRANCH  31  33
BRANCH  30  35
ATOM     35  O   UNL     1       8.215  -5.784  22.885  0.00  0.00    -0.386 OA
ATOM     36  H   UNL     1       8.381  -5.858  21.924  0.00  0.00    +0.210 HD
ENDBRANCH  30  35
BRANCH  32  37
ATOM     37  O   UNL     1       4.096  -4.845  23.599  0.00  0.00    -0.337 OA
BRANCH  37  38
ATOM     38  C   UNL     1       3.447  -6.021  23.134  0.00  0.00    +0.282 C 
ATOM     39  O   UNL     1       2.081  -5.728  22.768  0.00  0.00    -0.346 OA
ATOM     40  C   UNL     1       1.252  -5.237  23.834  0.00  0.00    +0.197 C 
ATOM     41  C   UNL     1       1.318  -6.058  25.131  0.00  0.00    +0.171 C 
ATOM     42  C   UNL     1       2.748  -6.488  25.450  0.00  0.00    +0.178 C 
ATOM     43  C   UNL     1       3.410  -7.106  24.208  0.00  0.00    +0.201 C 
BRANCH  43  44
ATOM     44  O   UNL     1       2.724  -8.290  23.777  0.00  0.00    -0.384 OA
ATOM     45  H   UNL     1       2.994  -8.454  22.846  0.00  0.00    +0.210 HD
ENDBRANCH  43  44
BRANCH  42  46
ATOM     46  O   UNL     1       2.739  -7.428  26.536  0.00  0.00    -0.386 OA
ATOM     47  H   UNL     1       3.048  -6.951  27.328  0.00  0.00    +0.210 HD
ENDBRANCH  42  46
BRANCH  41  48
ATOM     48  O   UNL     1       0.527  -7.252  25.004  0.00  0.00    -0.387 OA
ATOM     49  H   UNL     1       0.759  -7.776  25.802  0.00  0.00    +0.210 HD
ENDBRANCH  41  48
ENDBRANCH  37  38
ENDBRANCH  32  37
BRANCH  29  50
ATOM     50  C   UNL     1       9.611  -4.527  25.047  0.00  0.00    +0.190 C 
BRANCH  50  51
ATOM     51  O   UNL     1       9.560  -5.902  25.445  0.00  0.00    -0.392 OA
ATOM     52  H   UNL     1      10.076  -6.001  26.263  0.00  0.00    +0.210 HD
ENDBRANCH  50  51
ENDBRANCH  29  50
ENDBRANCH   1  27
TORSDOF 16
ENDMDL
MODEL 6
REMARK VINA RESULT:      -6.5      2.225      3.424
REMARK  Name = 
REMARK  17 active torsions:
REMARK  status: ('A' for Active; 'I' for Inactive)
REMARK    1  A    between atoms: C_1  and  O_2
REMARK    2  A    between atoms: O_2  and  C_3
REMARK    3  A    between atoms: C_4  and  O_48
REMARK    4  A    between atoms: C_7  and  C_9
REMARK    5  A    between atoms: C_10  and  O_22
REMARK    6  A    between atoms: C_14  and  O_21
REMARK    7  A    between atoms: C_16  and  O_20
REMARK    8  A    between atoms: O_22  and  C_23
REMARK    9  A    between atoms: C_25  and  O_35
REMARK   10  A    between atoms: C_26  and  O_34
REMARK   11  A    between atoms: C_27  and  O_33
REMARK   12  A    between atoms: C_29  and  C_31
REMARK   13  A    between atoms: C_31  and  O_32
REMARK   14  A    between atoms: O_35  and  C_36
REMARK   15  A    between atoms: C_38  and  O_47
REMARK   16  A    between atoms: C_40  and  O_46
REMARK   17  A    between atoms: C_41  and  O_45
REMARK                            x       y       z     vdW  Elec       q    Type
REMARK                         _______ _______ _______ _____ _____    ______ ____
ROOT
ATOM      1  O   UNL     1       5.663  -2.026  25.032  0.00  0.00    -0.453 OA
ENDROOT
BRANCH   1  12
ATOM      2  C   UNL     1       5.924   0.434  25.217  0.00  0.00    +0.181 A 
ATOM      3  O   UNL     1       5.481   1.536  26.025  0.00  0.00    -0.451 OA
ATOM      4  C   UNL     1       4.725   1.283  27.167  0.00  0.00    +0.147 A 
ATOM      5  C   UNL     1       4.084   0.082  27.379  0.00  0.00    +0.109 A 
ATOM      6  C   UNL     1       3.369  -0.231  28.560  0.00  0.00    +0.135 A 
ATOM      7  C   UNL     1       3.254   0.727  29.551  0.00  0.00    +0.091 A 
ATOM      8  C   UNL     1       3.833   1.975  29.328  0.00  0.00    +0.124 A 
ATOM      9  C   UNL     1       4.202  -0.906  26.334  0.00  0.00    +0.238 A 
ATOM     10  O   UNL     1       3.434  -1.863  26.305  0.00  0.00    -0.283 OA
ATOM     11  C   UNL     1       4.559   2.265  28.154  0.00  0.00    +0.092 A 
ATOM     12  C   UNL     1       5.380  -0.793  25.427  0.00  0.00    +0.214 A 
BRANCH   2  15
ATOM     13  C   UNL     1       9.387   1.396  23.723  0.00  0.00    +0.162 A 
ATOM     14  C   UNL     1       8.414   0.767  24.517  0.00  0.00    +0.061 A 
ATOM     15  C   UNL     1       7.027   0.783  24.213  0.00  0.00    +0.025 A 
ATOM     16  C   UNL     1       6.728   1.160  22.890  0.00  0.00    +0.015 A 
ATOM     17  C   UNL     1       7.715   1.669  22.017  0.00  0.00    +0.050 A 
ATOM     18  C   UNL     1       9.011   1.857  22.473  0.00  0.00    +0.158 A 
BRANCH  18  19
ATOM     19  O   UNL     1       9.927   2.483  21.669  0.00  0.00    -0.503 OA
ATOM     20  H   UNL     1       9.793   3.437  21.825  0.00  0.00    +0.292 HD
ENDBRANCH  18  19
BRANCH  13  22
ATOM     21  C   UNL     1      11.517   0.646  24.586  0.00  0.00    +0.277 C 
ATOM     22  O   UNL     1      10.691   1.667  24.047  0.00  0.00    -0.491 OA
ENDBRANCH  13  22
ENDBRANCH   2  15
BRANCH   8  23
ATOM     23  O   UNL     1       3.691   2.951  30.272  0.00  0.00    -0.507 OA
ATOM     24  H   UNL     1       2.981   2.692  30.887  0.00  0.00    +0.292 HD
ENDBRANCH   8  23
BRANCH   6  25
ATOM     25  O   UNL     1       2.788  -1.440  28.810  0.00  0.00    -0.506 OA
ATOM     26  H   UNL     1       3.402  -1.952  29.390  0.00  0.00    +0.292 HD
ENDBRANCH   6  25
ENDBRANCH   1  12
BRANCH   1  27
ATOM     27  C   UNL     1       6.525  -3.114  25.170  0.00  0.00    +0.340 C 
ATOM     28  O   UNL     1       7.675  -2.855  24.345  0.00  0.00    -0.331 OA
ATOM     29  C   UNL     1       7.317  -2.462  22.993  0.00  0.00    +0.179 C 
ATOM     30  C   UNL     1       6.406  -3.495  22.304  0.00  0.00    +0.177 C 
ATOM     31  C   UNL     1       5.245  -3.937  23.219  0.00  0.00    +0.180 C 
ATOM     32  C   UNL     1       5.803  -4.354  24.611  0.00  0.00    +0.221 C 
BRANCH  31  33
ATOM     33  O   UNL     1       4.514  -4.972  22.563  0.00  0.00    -0.386 OA
ATOM     34  H   UNL     1       4.997  -5.806  22.721  0.00  0.00    +0.210 HD
ENDBRANCH  31  33
BRANCH  30  35
ATOM     35  O   UNL     1       7.155  -4.657  21.926  0.00  0.00    -0.386 OA
ATOM     36  H   UNL     1       7.638  -4.935  22.730  0.00  0.00    +0.210 HD
ENDBRANCH  30  35
BRANCH  32  37
ATOM     37  O   UNL     1       4.938  -5.002  25.576  0.00  0.00    -0.337 OA
BRANCH  37  38
ATOM     38  C   UNL     1       5.224  -6.281  26.125  0.00  0.00    +0.282 C 
ATOM     39  O   UNL     1       4.202  -7.229  25.747  0.00  0.00    -0.346 OA
ATOM     40  C   UNL     1       2.875  -6.913  26.200  0.00  0.00    +0.197 C 
ATOM     41  C   UNL     1       2.774  -6.546  27.688  0.00  0.00    +0.171 C 
ATOM     42  C   UNL     1       3.931  -5.654  28.126  0.00  0.00    +0.178 C 
ATOM     43  C   UNL     1       5.270  -6.241  27.651  0.00  0.00    +0.201 C 
BRANCH  43  44
ATOM     44  O   UNL     1       5.516  -7.529  28.233  0.00  0.00    -0.384 OA
ATOM     45  H   UNL     1       4.787  -8.120  27.939  0.00  0.00    +0.210 HD
ENDBRANCH  43  44
BRANCH  42  46
ATOM     46  O   UNL     1       3.922  -5.514  29.556  0.00  0.00    -0.386 OA
ATOM     47  H   UNL     1       3.736  -4.577  29.749  0.00  0.00    +0.210 HD
ENDBRANCH  42  46
BRANCH  41  48
ATOM     48  O   UNL     1       2.816  -7.735  28.497  0.00  0.00    -0.387 OA
ATOM     49  H   UNL     1       1.973  -8.195  28.287  0.00  0.00    +0.210 HD
ENDBRANCH  41  48
ENDBRANCH  37  38
ENDBRANCH  32  37
BRANCH  29  50
ATOM     50  C   UNL     1       8.614  -2.209  22.214  0.00  0.00    +0.190 C 
BRANCH  50  51
ATOM     51  O   UNL     1       9.747  -2.166  23.088  0.00  0.00    -0.392 OA
ATOM     52  H   UNL     1      10.435  -2.748  22.722  0.00  0.00    +0.210 HD
ENDBRANCH  50  51
ENDBRANCH  29  50
ENDBRANCH   1  27
TORSDOF 16
ENDMDL
MODEL 7
REMARK VINA RESULT:      -6.4      2.174      7.130
REMARK  Name = 
REMARK  17 active torsions:
REMARK  status: ('A' for Active; 'I' for Inactive)
REMARK    1  A    between atoms: C_1  and  O_2
REMARK    2  A    between atoms: O_2  and  C_3
REMARK    3  A    between atoms: C_4  and  O_48
REMARK    4  A    between atoms: C_7  and  C_9
REMARK    5  A    between atoms: C_10  and  O_22
REMARK    6  A    between atoms: C_14  and  O_21
REMARK    7  A    between atoms: C_16  and  O_20
REMARK    8  A    between atoms: O_22  and  C_23
REMARK    9  A    between atoms: C_25  and  O_35
REMARK   10  A    between atoms: C_26  and  O_34
REMARK   11  A    between atoms: C_27  and  O_33
REMARK   12  A    between atoms: C_29  and  C_31
REMARK   13  A    between atoms: C_31  and  O_32
REMARK   14  A    between atoms: O_35  and  C_36
REMARK   15  A    between atoms: C_38  and  O_47
REMARK   16  A    between atoms: C_40  and  O_46
REMARK   17  A    between atoms: C_41  and  O_45
REMARK                            x       y       z     vdW  Elec       q    Type
REMARK                         _______ _______ _______ _____ _____    ______ ____
ROOT
ATOM      1  O   UNL     1       4.935  -0.870  25.617  0.00  0.00    -0.453 OA
ENDROOT
BRANCH   1  12
ATOM      2  C   UNL     1       6.587  -0.948  23.769  0.00  0.00    +0.181 A 
ATOM      3  O   UNL     1       7.511  -0.096  23.074  0.00  0.00    -0.451 OA
ATOM      4  C   UNL     1       7.722   1.201  23.535  0.00  0.00    +0.147 A 
ATOM      5  C   UNL     1       6.850   1.830  24.397  0.00  0.00    +0.109 A 
ATOM      6  C   UNL     1       7.072   3.119  24.939  0.00  0.00    +0.135 A 
ATOM      7  C   UNL     1       8.200   3.823  24.559  0.00  0.00    +0.091 A 
ATOM      8  C   UNL     1       9.060   3.237  23.632  0.00  0.00    +0.124 A 
ATOM      9  C   UNL     1       5.672   1.089  24.778  0.00  0.00    +0.238 A 
ATOM     10  O   UNL     1       4.718   1.672  25.286  0.00  0.00    -0.283 OA
ATOM     11  C   UNL     1       8.835   1.943  23.116  0.00  0.00    +0.092 A 
ATOM     12  C   UNL     1       5.748  -0.397  24.684  0.00  0.00    +0.214 A 
BRANCH   2  15
ATOM     13  C   UNL     1       7.836  -4.633  23.640  0.00  0.00    +0.162 A 
ATOM     14  C   UNL     1       7.469  -3.375  24.143  0.00  0.00    +0.061 A 
ATOM     15  C   UNL     1       6.697  -2.434  23.411  0.00  0.00    +0.025 A 
ATOM     16  C   UNL     1       6.028  -2.976  22.297  0.00  0.00    +0.015 A 
ATOM     17  C   UNL     1       6.274  -4.292  21.845  0.00  0.00    +0.050 A 
ATOM     18  C   UNL     1       7.234  -5.070  22.472  0.00  0.00    +0.158 A 
BRANCH  18  19
ATOM     19  O   UNL     1       7.570  -6.288  21.943  0.00  0.00    -0.503 OA
ATOM     20  H   UNL     1       7.723  -6.868  22.713  0.00  0.00    +0.292 HD
ENDBRANCH  18  19
BRANCH  13  22
ATOM     21  C   UNL     1       9.501  -5.159  25.313  0.00  0.00    +0.277 C 
ATOM     22  O   UNL     1       8.777  -5.496  24.138  0.00  0.00    -0.491 OA
ENDBRANCH  13  22
ENDBRANCH   2  15
BRANCH   8  23
ATOM     23  O   UNL     1      10.153   3.934  23.207  0.00  0.00    -0.507 OA
ATOM     24  H   UNL     1       9.979   4.887  23.312  0.00  0.00    +0.292 HD
ENDBRANCH   8  23
BRANCH   6  25
ATOM     25  O   UNL     1       6.251   3.724  25.844  0.00  0.00    -0.506 OA
ATOM     26  H   UNL     1       5.686   4.368  25.352  0.00  0.00    +0.292 HD
ENDBRANCH   6  25
ENDBRANCH   1  12
BRANCH   1  27
ATOM     27  C   UNL     1       3.702  -1.467  25.881  0.00  0.00    +0.340 C 
ATOM     28  O   UNL     1       3.089  -0.725  26.950  0.00  0.00    -0.331 OA
ATOM     29  C   UNL     1       3.983  -0.527  28.078  0.00  0.00    +0.179 C 
ATOM     30  C   UNL     1       4.543  -1.855  28.622  0.00  0.00    +0.177 C 
ATOM     31  C   UNL     1       5.061  -2.765  27.489  0.00  0.00    +0.180 C 
ATOM     32  C   UNL     1       3.974  -2.896  26.383  0.00  0.00    +0.221 C 
BRANCH  31  33
ATOM     33  O   UNL     1       5.457  -4.016  28.052  0.00  0.00    -0.386 OA
ATOM     34  H   UNL     1       6.420  -4.098  27.912  0.00  0.00    +0.210 HD
ENDBRANCH  31  33
BRANCH  30  35
ATOM     35  O   UNL     1       3.538  -2.567  29.354  0.00  0.00    -0.386 OA
ATOM     36  H   UNL     1       3.575  -2.215  30.266  0.00  0.00    +0.210 HD
ENDBRANCH  30  35
BRANCH  32  37
ATOM     37  O   UNL     1       4.137  -3.862  25.315  0.00  0.00    -0.337 OA
BRANCH  37  38
ATOM     38  C   UNL     1       3.053  -4.617  24.791  0.00  0.00    +0.282 C 
ATOM     39  O   UNL     1       2.381  -5.331  25.851  0.00  0.00    -0.346 OA
ATOM     40  C   UNL     1       3.192  -6.281  26.561  0.00  0.00    +0.197 C 
ATOM     41  C   UNL     1       3.996  -7.236  25.667  0.00  0.00    +0.171 C 
ATOM     42  C   UNL     1       4.597  -6.510  24.467  0.00  0.00    +0.178 C 
ATOM     43  C   UNL     1       3.528  -5.651  23.772  0.00  0.00    +0.201 C 
BRANCH  43  44
ATOM     44  O   UNL     1       2.458  -6.455  23.257  0.00  0.00    -0.384 OA
ATOM     45  H   UNL     1       2.824  -7.355  23.103  0.00  0.00    +0.210 HD
ENDBRANCH  43  44
BRANCH  42  46
ATOM     46  O   UNL     1       5.149  -7.466  23.548  0.00  0.00    -0.386 OA
ATOM     47  H   UNL     1       6.047  -7.679  23.864  0.00  0.00    +0.210 HD
ENDBRANCH  42  46
BRANCH  41  48
ATOM     48  O   UNL     1       3.143  -8.277  25.159  0.00  0.00    -0.387 OA
ATOM     49  H   UNL     1       2.447  -7.792  24.663  0.00  0.00    +0.210 HD
ENDBRANCH  41  48
ENDBRANCH  37  38
ENDBRANCH  32  37
BRANCH  29  50
ATOM     50  C   UNL     1       3.228   0.273  29.147  0.00  0.00    +0.190 C 
BRANCH  50  51
ATOM     51  O   UNL     1       3.775   0.046  30.451  0.00  0.00    -0.392 OA
ATOM     52  H   UNL     1       3.231   0.530  31.097  0.00  0.00    +0.210 HD
ENDBRANCH  50  51
ENDBRANCH  29  50
ENDBRANCH   1  27
TORSDOF 16
ENDMDL
MODEL 8
REMARK VINA RESULT:      -6.4      2.196      7.342
REMARK  Name = 
REMARK  17 active torsions:
REMARK  status: ('A' for Active; 'I' for Inactive)
REMARK    1  A    between atoms: C_1  and  O_2
REMARK    2  A    between atoms: O_2  and  C_3
REMARK    3  A    between atoms: C_4  and  O_48
REMARK    4  A    between atoms: C_7  and  C_9
REMARK    5  A    between atoms: C_10  and  O_22
REMARK    6  A    between atoms: C_14  and  O_21
REMARK    7  A    between atoms: C_16  and  O_20
REMARK    8  A    between atoms: O_22  and  C_23
REMARK    9  A    between atoms: C_25  and  O_35
REMARK   10  A    between atoms: C_26  and  O_34
REMARK   11  A    between atoms: C_27  and  O_33
REMARK   12  A    between atoms: C_29  and  C_31
REMARK   13  A    between atoms: C_31  and  O_32
REMARK   14  A    between atoms: O_35  and  C_36
REMARK   15  A    between atoms: C_38  and  O_47
REMARK   16  A    between atoms: C_40  and  O_46
REMARK   17  A    between atoms: C_41  and  O_45
REMARK                            x       y       z     vdW  Elec       q    Type
REMARK                         _______ _______ _______ _____ _____    ______ ____
ROOT
ATOM      1  O   UNL     1       5.673  -2.148  23.897  0.00  0.00    -0.453 OA
ENDROOT
BRANCH   1  12
ATOM      2  C   UNL     1       5.376  -2.244  26.357  0.00  0.00    +0.181 A 
ATOM      3  O   UNL     1       5.035  -1.396  27.465  0.00  0.00    -0.451 OA
ATOM      4  C   UNL     1       4.624  -0.087  27.221  0.00  0.00    +0.147 A 
ATOM      5  C   UNL     1       4.858   0.549  26.021  0.00  0.00    +0.109 A 
ATOM      6  C   UNL     1       4.392   1.850  25.716  0.00  0.00    +0.135 A 
ATOM      7  C   UNL     1       3.700   2.560  26.680  0.00  0.00    +0.091 A 
ATOM      8  C   UNL     1       3.515   1.965  27.928  0.00  0.00    +0.124 A 
ATOM      9  C   UNL     1       5.590  -0.197  25.026  0.00  0.00    +0.238 A 
ATOM     10  O   UNL     1       6.092   0.384  24.069  0.00  0.00    -0.283 OA
ATOM     11  C   UNL     1       3.968   0.659  28.209  0.00  0.00    +0.092 A 
ATOM     12  C   UNL     1       5.551  -1.685  25.132  0.00  0.00    +0.214 A 
BRANCH   2  15
ATOM     13  C   UNL     1       4.413  -5.987  26.816  0.00  0.00    +0.162 A 
ATOM     14  C   UNL     1       4.533  -4.710  26.246  0.00  0.00    +0.061 A 
ATOM     15  C   UNL     1       5.461  -3.736  26.700  0.00  0.00    +0.025 A 
ATOM     16  C   UNL     1       6.488  -4.248  27.514  0.00  0.00    +0.015 A 
ATOM     17  C   UNL     1       6.468  -5.577  27.993  0.00  0.00    +0.050 A 
ATOM     18  C   UNL     1       5.390  -6.400  27.706  0.00  0.00    +0.158 A 
BRANCH  18  19
ATOM     19  O   UNL     1       5.307  -7.636  28.290  0.00  0.00    -0.503 OA
ATOM     20  H   UNL     1       5.747  -8.243  27.666  0.00  0.00    +0.292 HD
ENDBRANCH  18  19
BRANCH  13  22
ATOM     21  C   UNL     1       3.172  -7.469  25.363  0.00  0.00    +0.277 C 
ATOM     22  O   UNL     1       3.401  -6.895  26.641  0.00  0.00    -0.491 OA
ENDBRANCH  13  22
ENDBRANCH   2  15
BRANCH   8  23
ATOM     23  O   UNL     1       2.876   2.666  28.909  0.00  0.00    -0.507 OA
ATOM     24  H   UNL     1       1.948   2.373  28.953  0.00  0.00    +0.292 HD
ENDBRANCH   8  23
BRANCH   6  25
ATOM     25  O   UNL     1       4.559   2.464  24.510  0.00  0.00    -0.506 OA
ATOM     26  H   UNL     1       3.722   2.347  23.996  0.00  0.00    +0.292 HD
ENDBRANCH   6  25
ENDBRANCH   1  12
BRANCH   1  27
ATOM     27  C   UNL     1       6.484  -2.218  22.765  0.00  0.00    +0.340 C 
ATOM     28  O   UNL     1       6.049  -3.355  21.998  0.00  0.00    -0.331 OA
ATOM     29  C   UNL     1       5.927  -4.559  22.801  0.00  0.00    +0.179 C 
ATOM     30  C   UNL     1       7.233  -4.903  23.543  0.00  0.00    +0.177 C 
ATOM     31  C   UNL     1       7.836  -3.668  24.245  0.00  0.00    +0.180 C 
ATOM     32  C   UNL     1       7.925  -2.484  23.240  0.00  0.00    +0.221 C 
BRANCH  31  33
ATOM     33  O   UNL     1       9.094  -4.033  24.812  0.00  0.00    -0.386 OA
ATOM     34  H   UNL     1       8.980  -4.916  25.213  0.00  0.00    +0.210 HD
ENDBRANCH  31  33
BRANCH  30  35
ATOM     35  O   UNL     1       8.208  -5.430  22.634  0.00  0.00    -0.386 OA
ATOM     36  H   UNL     1       8.910  -5.818  23.194  0.00  0.00    +0.210 HD
ENDBRANCH  30  35
BRANCH  32  37
ATOM     37  O   UNL     1       8.645  -1.279  23.599  0.00  0.00    -0.337 OA
BRANCH  37  38
ATOM     38  C   UNL     1       9.493  -0.591  22.689  0.00  0.00    +0.282 C 
ATOM     39  O   UNL     1      10.786  -0.356  23.288  0.00  0.00    -0.346 OA
ATOM     40  C   UNL     1      10.773   0.453  24.474  0.00  0.00    +0.197 C 
ATOM     41  C   UNL     1       9.968   1.756  24.356  0.00  0.00    +0.171 C 
ATOM     42  C   UNL     1       8.659   1.539  23.601  0.00  0.00    +0.178 C 
ATOM     43  C   UNL     1       8.915   0.767  22.297  0.00  0.00    +0.201 C 
BRANCH  43  44
ATOM     44  O   UNL     1       9.772   1.499  21.410  0.00  0.00    -0.384 OA
ATOM     45  H   UNL     1       9.189   2.030  20.822  0.00  0.00    +0.210 HD
ENDBRANCH  43  44
BRANCH  42  46
ATOM     46  O   UNL     1       8.045   2.808  23.322  0.00  0.00    -0.386 OA
ATOM     47  H   UNL     1       7.840   3.220  24.182  0.00  0.00    +0.210 HD
ENDBRANCH  42  46
BRANCH  41  48
ATOM     48  O   UNL     1      10.723   2.744  23.635  0.00  0.00    -0.387 OA
ATOM     49  H   UNL     1      10.060   3.434  23.413  0.00  0.00    +0.210 HD
ENDBRANCH  41  48
ENDBRANCH  37  38
ENDBRANCH  32  37
BRANCH  29  50
ATOM     50  C   UNL     1       5.456  -5.695  21.885  0.00  0.00    +0.190 C 
BRANCH  50  51
ATOM     51  O   UNL     1       5.951  -5.528  20.551  0.00  0.00    -0.392 OA
ATOM     52  H   UNL     1       5.242  -5.142  20.010  0.00  0.00    +0.210 HD
ENDBRANCH  50  51
ENDBRANCH  29  50
ENDBRANCH   1  27
TORSDOF 16
ENDMDL
MODEL 9
REMARK VINA RESULT:      -6.4      2.135      7.071
REMARK  Name = 
REMARK  17 active torsions:
REMARK  status: ('A' for Active; 'I' for Inactive)
REMARK    1  A    between atoms: C_1  and  O_2
REMARK    2  A    between atoms: O_2  and  C_3
REMARK    3  A    between atoms: C_4  and  O_48
REMARK    4  A    between atoms: C_7  and  C_9
REMARK    5  A    between atoms: C_10  and  O_22
REMARK    6  A    between atoms: C_14  and  O_21
REMARK    7  A    between atoms: C_16  and  O_20
REMARK    8  A    between atoms: O_22  and  C_23
REMARK    9  A    between atoms: C_25  and  O_35
REMARK   10  A    between atoms: C_26  and  O_34
REMARK   11  A    between atoms: C_27  and  O_33
REMARK   12  A    between atoms: C_29  and  C_31
REMARK   13  A    between atoms: C_31  and  O_32
REMARK   14  A    between atoms: O_35  and  C_36
REMARK   15  A    between atoms: C_38  and  O_47
REMARK   16  A    between atoms: C_40  and  O_46
REMARK   17  A    between atoms: C_41  and  O_45
REMARK                            x       y       z     vdW  Elec       q    Type
REMARK                         _______ _______ _______ _____ _____    ______ ____
ROOT
ATOM      1  O   UNL     1       6.892   0.367  24.743  0.00  0.00    -0.453 OA
ENDROOT
BRANCH   1  12
ATOM      2  C   UNL     1       6.318  -1.706  25.979  0.00  0.00    +0.181 A 
ATOM      3  O   UNL     1       5.334  -2.211  26.895  0.00  0.00    -0.451 OA
ATOM      4  C   UNL     1       4.231  -1.423  27.215  0.00  0.00    +0.147 A 
ATOM      5  C   UNL     1       4.201  -0.065  26.983  0.00  0.00    +0.109 A 
ATOM      6  C   UNL     1       3.071   0.751  27.231  0.00  0.00    +0.135 A 
ATOM      7  C   UNL     1       1.936   0.181  27.778  0.00  0.00    +0.091 A 
ATOM      8  C   UNL     1       1.968  -1.178  28.088  0.00  0.00    +0.124 A 
ATOM      9  C   UNL     1       5.394   0.521  26.422  0.00  0.00    +0.238 A 
ATOM     10  O   UNL     1       5.561   1.736  26.466  0.00  0.00    -0.283 OA
ATOM     11  C   UNL     1       3.096  -1.982  27.817  0.00  0.00    +0.092 A 
ATOM     12  C   UNL     1       6.297  -0.387  25.656  0.00  0.00    +0.214 A 
BRANCH   2  15
ATOM     13  C   UNL     1       7.712  -4.737  23.974  0.00  0.00    +0.162 A 
ATOM     14  C   UNL     1       7.008  -3.561  24.281  0.00  0.00    +0.061 A 
ATOM     15  C   UNL     1       7.277  -2.765  25.425  0.00  0.00    +0.025 A 
ATOM     16  C   UNL     1       8.517  -3.029  26.037  0.00  0.00    +0.015 A 
ATOM     17  C   UNL     1       9.318  -4.129  25.655  0.00  0.00    +0.050 A 
ATOM     18  C   UNL     1       8.865  -5.013  24.689  0.00  0.00    +0.158 A 
BRANCH  18  19
ATOM     19  O   UNL     1       9.578  -6.153  24.426  0.00  0.00    -0.503 OA
ATOM     20  H   UNL     1       9.174  -6.526  23.620  0.00  0.00    +0.292 HD
ENDBRANCH  18  19
BRANCH  13  22
ATOM     21  C   UNL     1       7.038  -5.345  21.733  0.00  0.00    +0.277 C 
ATOM     22  O   UNL     1       7.376  -5.706  23.064  0.00  0.00    -0.491 OA
ENDBRANCH  13  22
ENDBRANCH   2  15
BRANCH   8  23
ATOM     23  O   UNL     1       0.876  -1.751  28.673  0.00  0.00    -0.507 OA
ATOM     24  H   UNL     1       1.023  -2.711  28.742  0.00  0.00    +0.292 HD
ENDBRANCH   8  23
BRANCH   6  25
ATOM     25  O   UNL     1       3.007   2.083  26.944  0.00  0.00    -0.506 OA
ATOM     26  H   UNL     1       2.147   2.423  27.292  0.00  0.00    +0.292 HD
ENDBRANCH   6  25
ENDBRANCH   1  12
BRANCH   1  27
ATOM     27  C   UNL     1       6.898   0.777  23.410  0.00  0.00    +0.340 C 
ATOM     28  O   UNL     1       7.737  -0.140  22.685  0.00  0.00    -0.331 OA
ATOM     29  C   UNL     1       9.027  -0.340  23.321  0.00  0.00    +0.179 C 
ATOM     30  C   UNL     1       9.780   0.984  23.549  0.00  0.00    +0.177 C 
ATOM     31  C   UNL     1       8.869   2.062  24.171  0.00  0.00    +0.180 C 
ATOM     32  C   UNL     1       7.550   2.170  23.353  0.00  0.00    +0.221 C 
BRANCH  31  33
ATOM     33  O   UNL     1       9.596   3.288  24.247  0.00  0.00    -0.386 OA
ATOM     34  H   UNL     1      10.200   3.214  25.011  0.00  0.00    +0.210 HD
ENDBRANCH  31  33
BRANCH  30  35
ATOM     35  O   UNL     1      10.302   1.488  22.313  0.00  0.00    -0.386 OA
ATOM     36  H   UNL     1      11.048   0.899  22.080  0.00  0.00    +0.210 HD
ENDBRANCH  30  35
BRANCH  32  37
ATOM     37  O   UNL     1       6.621   3.253  23.612  0.00  0.00    -0.337 OA
BRANCH  37  38
ATOM     38  C   UNL     1       5.847   3.861  22.587  0.00  0.00    +0.282 C 
ATOM     39  O   UNL     1       5.707   5.276  22.838  0.00  0.00    -0.346 OA
ATOM     40  C   UNL     1       5.042   5.618  24.065  0.00  0.00    +0.197 C 
ATOM     41  C   UNL     1       3.721   4.875  24.310  0.00  0.00    +0.171 C 
ATOM     42  C   UNL     1       3.824   3.404  23.916  0.00  0.00    +0.178 C 
ATOM     43  C   UNL     1       4.442   3.267  22.516  0.00  0.00    +0.201 C 
BRANCH  43  44
ATOM     44  O   UNL     1       3.625   3.892  21.515  0.00  0.00    -0.384 OA
ATOM     45  H   UNL     1       3.974   3.605  20.641  0.00  0.00    +0.210 HD
ENDBRANCH  43  44
BRANCH  42  46
ATOM     46  O   UNL     1       2.520   2.801  23.952  0.00  0.00    -0.386 OA
ATOM     47  H   UNL     1       2.634   1.899  24.306  0.00  0.00    +0.210 HD
ENDBRANCH  42  46
BRANCH  41  48
ATOM     48  O   UNL     1       2.668   5.459  23.524  0.00  0.00    -0.387 OA
ATOM     49  H   UNL     1       2.114   5.932  24.183  0.00  0.00    +0.210 HD
ENDBRANCH  41  48
ENDBRANCH  37  38
ENDBRANCH  32  37
BRANCH  29  50
ATOM     50  C   UNL     1       9.828  -1.332  22.469  0.00  0.00    +0.190 C 
BRANCH  50  51
ATOM     51  O   UNL     1       9.701  -1.040  21.072  0.00  0.00    -0.392 OA
ATOM     52  H   UNL     1      10.105  -0.171  20.906  0.00  0.00    +0.210 HD
ENDBRANCH  50  51
ENDBRANCH  29  50
ENDBRANCH   1  27
TORSDOF 16
ENDMDL
