MODEL 1
REMARK VINA RESULT:      -7.1      0.000      0.000
REMARK  Name = 
REMARK  18 active torsions:
REMARK  status: ('A' for Active; 'I' for Inactive)
REMARK    1  A    between atoms: C_3  and  O_49
REMARK    2  A    between atoms: C_4  and  O_48
REMARK    3  A    between atoms: C_6  and  C_7
REMARK    4  A    between atoms: C_8  and  O_20
REMARK    5  A    between atoms: C_12  and  O_19
REMARK    6  A    between atoms: C_14  and  O_18
REMARK    7  A    between atoms: O_20  and  C_21
REMARK    8  A    between atoms: C_23  and  O_47
REMARK    9  A    between atoms: C_24  and  O_46
REMARK   10  A    between atoms: C_25  and  O_31
REMARK   11  A    between atoms: C_27  and  C_29
REMARK   12  A    between atoms: C_29  and  O_30
REMARK   13  A    between atoms: O_31  and  C_32
REMARK   14  A    between atoms: C_34  and  O_45
REMARK   15  A    between atoms: C_36  and  O_44
REMARK   16  A    between atoms: C_37  and  O_43
REMARK   17  A    between atoms: C_39  and  C_41
REMARK   18  A    between atoms: C_41  and  O_42
REMARK                            x       y       z     vdW  Elec       q    Type
REMARK                         _______ _______ _______ _____ _____    ______ ____
ROOT
ATOM      1  C   UNL     1       5.297  -0.362  25.248  0.00  0.00    +0.340 C 
ATOM      2  O   UNL     1       4.149  -0.748  26.049  0.00  0.00    -0.331 OA
ATOM      3  C   UNL     1       4.353  -2.021  26.715  0.00  0.00    +0.179 C 
ATOM      4  C   UNL     1       4.552  -3.167  25.684  0.00  0.00    +0.184 C 
ATOM      5  C   UNL     1       5.791  -2.762  24.854  0.00  0.00    +0.180 C 
ATOM      6  C   UNL     1       5.463  -1.434  24.141  0.00  0.00    +0.214 C 
ENDROOT
BRANCH   5   7
ATOM      7  O   UNL     1       6.257  -3.856  24.067  0.00  0.00    -0.386 OA
ATOM      8  H   UNL     1       6.091  -3.703  23.125  0.00  0.00    +0.210 HD
ENDBRANCH   5   7
BRANCH   6   9
ATOM      9  O   UNL     1       6.397  -1.114  23.116  0.00  0.00    -0.383 OA
ATOM     10  H   UNL     1       6.991  -0.416  23.433  0.00  0.00    +0.210 HD
ENDBRANCH   6   9
BRANCH   1  11
ATOM     11  O   UNL     1       6.379  -0.226  26.190  0.00  0.00    -0.453 OA
BRANCH  11  22
ATOM     12  C   UNL     1       8.690  -0.275  25.476  0.00  0.00    +0.181 A 
ATOM     13  O   UNL     1       9.764   0.403  24.882  0.00  0.00    -0.451 OA
ATOM     14  C   UNL     1       9.667   1.721  24.551  0.00  0.00    +0.147 A 
ATOM     15  C   UNL     1       8.639   2.522  24.999  0.00  0.00    +0.109 A 
ATOM     16  C   UNL     1       8.653   3.890  24.692  0.00  0.00    +0.135 A 
ATOM     17  C   UNL     1       9.688   4.446  23.931  0.00  0.00    +0.091 A 
ATOM     18  C   UNL     1      10.701   3.616  23.463  0.00  0.00    +0.124 A 
ATOM     19  C   UNL     1       7.558   1.876  25.758  0.00  0.00    +0.238 A 
ATOM     20  O   UNL     1       6.627   2.557  26.177  0.00  0.00    -0.283 OA
ATOM     21  C   UNL     1      10.695   2.256  23.762  0.00  0.00    +0.092 A 
ATOM     22  C   UNL     1       7.589   0.355  25.927  0.00  0.00    +0.214 A 
BRANCH  12  24
ATOM     23  C   UNL     1       9.636  -2.295  24.291  0.00  0.00    +0.015 A 
ATOM     24  C   UNL     1       8.985  -1.763  25.440  0.00  0.00    +0.025 A 
ATOM     25  C   UNL     1       8.694  -2.689  26.453  0.00  0.00    +0.060 A 
ATOM     26  C   UNL     1       9.013  -4.044  26.301  0.00  0.00    +0.159 A 
ATOM     27  C   UNL     1       9.591  -4.533  25.141  0.00  0.00    +0.158 A 
ATOM     28  C   UNL     1       9.925  -3.656  24.126  0.00  0.00    +0.050 A 
BRANCH  26  29
ATOM     29  O   UNL     1       8.739  -4.911  27.325  0.00  0.00    -0.503 OA
ATOM     30  H   UNL     1       9.488  -4.803  27.947  0.00  0.00    +0.292 HD
ENDBRANCH  26  29
BRANCH  27  31
ATOM     31  O   UNL     1       9.796  -5.877  25.034  0.00  0.00    -0.503 OA
ATOM     32  H   UNL     1      10.756  -6.031  24.995  0.00  0.00    +0.292 HD
ENDBRANCH  27  31
ENDBRANCH  12  24
BRANCH  18  33
ATOM     33  O   UNL     1      11.731   4.099  22.705  0.00  0.00    -0.507 OA
ATOM     34  H   UNL     1      12.407   4.463  23.301  0.00  0.00    +0.292 HD
ENDBRANCH  18  33
BRANCH  16  35
ATOM     35  O   UNL     1       7.681   4.760  25.103  0.00  0.00    -0.506 OA
ATOM     36  H   UNL     1       7.985   5.677  24.923  0.00  0.00    +0.292 HD
ENDBRANCH  16  35
ENDBRANCH  11  22
ENDBRANCH   1  11
BRANCH   3  37
ATOM     37  C   UNL     1       3.216  -2.243  27.710  0.00  0.00    +0.190 C 
BRANCH  37  38
ATOM     38  O   UNL     1       3.428  -3.448  28.442  0.00  0.00    -0.392 OA
ATOM     39  H   UNL     1       3.020  -3.325  29.318  0.00  0.00    +0.210 HD
ENDBRANCH  37  38
ENDBRANCH   3  37
BRANCH   4  40
ATOM     40  O   UNL     1       3.343  -3.304  24.896  0.00  0.00    -0.340 OA
BRANCH  40  41
ATOM     41  C   UNL     1       2.483  -4.414  25.175  0.00  0.00    +0.282 C 
ATOM     42  O   UNL     1       3.105  -5.290  26.134  0.00  0.00    -0.341 OA
ATOM     43  C   UNL     1       4.319  -5.891  25.652  0.00  0.00    +0.178 C 
ATOM     44  C   UNL     1       4.090  -6.687  24.359  0.00  0.00    +0.177 C 
ATOM     45  C   UNL     1       3.325  -5.857  23.318  0.00  0.00    +0.179 C 
ATOM     46  C   UNL     1       2.068  -5.218  23.929  0.00  0.00    +0.201 C 
BRANCH  44  47
ATOM     47  O   UNL     1       3.322  -7.876  24.622  0.00  0.00    -0.386 OA
ATOM     48  H   UNL     1       3.534  -8.473  23.872  0.00  0.00    +0.210 HD
ENDBRANCH  44  47
BRANCH  45  49
ATOM     49  O   UNL     1       2.981  -6.720  22.221  0.00  0.00    -0.386 OA
ATOM     50  H   UNL     1       3.655  -7.426  22.188  0.00  0.00    +0.210 HD
ENDBRANCH  45  49
BRANCH  46  51
ATOM     51  O   UNL     1       1.097  -6.232  24.246  0.00  0.00    -0.384 OA
ATOM     52  H   UNL     1       0.401  -5.801  24.787  0.00  0.00    +0.210 HD
ENDBRANCH  46  51
BRANCH  43  53
ATOM     53  C   UNL     1       4.854  -6.781  26.783  0.00  0.00    +0.190 C 
BRANCH  53  54
ATOM     54  O   UNL     1       6.208  -6.425  27.075  0.00  0.00    -0.392 OA
ATOM     55  H   UNL     1       6.667  -6.438  26.213  0.00  0.00    +0.210 HD
ENDBRANCH  53  54
ENDBRANCH  43  53
ENDBRANCH  40  41
ENDBRANCH   4  40
TORSDOF 18
ENDMDL
MODEL 2
REMARK VINA RESULT:      -6.9      2.457      8.738
REMARK  Name = 
REMARK  18 active torsions:
REMARK  status: ('A' for Active; 'I' for Inactive)
REMARK    1  A    between atoms: C_3  and  O_49
REMARK    2  A    between atoms: C_4  and  O_48
REMARK    3  A    between atoms: C_6  and  C_7
REMARK    4  A    between atoms: C_8  and  O_20
REMARK    5  A    between atoms: C_12  and  O_19
REMARK    6  A    between atoms: C_14  and  O_18
REMARK    7  A    between atoms: O_20  and  C_21
REMARK    8  A    between atoms: C_23  and  O_47
REMARK    9  A    between atoms: C_24  and  O_46
REMARK   10  A    between atoms: C_25  and  O_31
REMARK   11  A    between atoms: C_27  and  C_29
REMARK   12  A    between atoms: C_29  and  O_30
REMARK   13  A    between atoms: O_31  and  C_32
REMARK   14  A    between atoms: C_34  and  O_45
REMARK   15  A    between atoms: C_36  and  O_44
REMARK   16  A    between atoms: C_37  and  O_43
REMARK   17  A    between atoms: C_39  and  C_41
REMARK   18  A    between atoms: C_41  and  O_42
REMARK                            x       y       z     vdW  Elec       q    Type
REMARK                         _______ _______ _______ _____ _____    ______ ____
ROOT
ATOM      1  C   UNL     1       4.919  -1.188  26.643  0.00  0.00    +0.340 C 
ATOM      2  O   UNL     1       5.233  -1.178  25.225  0.00  0.00    -0.331 OA
ATOM      3  C   UNL     1       6.610  -1.557  24.970  0.00  0.00    +0.179 C 
ATOM      4  C   UNL     1       7.598  -0.553  25.627  0.00  0.00    +0.184 C 
ATOM      5  C   UNL     1       7.276  -0.590  27.138  0.00  0.00    +0.180 C 
ATOM      6  C   UNL     1       5.818  -0.120  27.318  0.00  0.00    +0.214 C 
ENDROOT
BRANCH   5   7
ATOM      7  O   UNL     1       8.295   0.063  27.892  0.00  0.00    -0.386 OA
ATOM      8  H   UNL     1       7.955   0.864  28.318  0.00  0.00    +0.210 HD
ENDBRANCH   5   7
BRANCH   6   9
ATOM      9  O   UNL     1       5.499   0.180  28.671  0.00  0.00    -0.383 OA
ATOM     10  H   UNL     1       5.375  -0.648  29.161  0.00  0.00    +0.210 HD
ENDBRANCH   6   9
BRANCH   1  11
ATOM     11  O   UNL     1       5.110  -2.555  27.056  0.00  0.00    -0.453 OA
BRANCH  11  22
ATOM     12  C   UNL     1       4.215  -4.634  26.200  0.00  0.00    +0.181 A 
ATOM     13  O   UNL     1       3.431  -5.773  26.431  0.00  0.00    -0.451 OA
ATOM     14  C   UNL     1       2.715  -5.913  27.581  0.00  0.00    +0.147 A 
ATOM     15  C   UNL     1       2.507  -4.868  28.454  0.00  0.00    +0.109 A 
ATOM     16  C   UNL     1       1.684  -5.063  29.573  0.00  0.00    +0.135 A 
ATOM     17  C   UNL     1       1.084  -6.304  29.816  0.00  0.00    +0.091 A 
ATOM     18  C   UNL     1       1.330  -7.355  28.939  0.00  0.00    +0.124 A 
ATOM     19  C   UNL     1       3.197  -3.601  28.171  0.00  0.00    +0.238 A 
ATOM     20  O   UNL     1       3.033  -2.646  28.924  0.00  0.00    -0.283 OA
ATOM     21  C   UNL     1       2.146  -7.171  27.826  0.00  0.00    +0.092 A 
ATOM     22  C   UNL     1       4.166  -3.543  26.987  0.00  0.00    +0.214 A 
BRANCH  12  24
ATOM     23  C   UNL     1       4.518  -4.966  23.715  0.00  0.00    +0.015 A 
ATOM     24  C   UNL     1       5.113  -4.903  25.007  0.00  0.00    +0.025 A 
ATOM     25  C   UNL     1       6.504  -5.081  25.041  0.00  0.00    +0.060 A 
ATOM     26  C   UNL     1       7.226  -5.329  23.867  0.00  0.00    +0.159 A 
ATOM     27  C   UNL     1       6.601  -5.443  22.636  0.00  0.00    +0.158 A 
ATOM     28  C   UNL     1       5.236  -5.247  22.545  0.00  0.00    +0.050 A 
BRANCH  26  29
ATOM     29  O   UNL     1       8.586  -5.467  23.939  0.00  0.00    -0.503 OA
ATOM     30  H   UNL     1       8.906  -4.599  24.263  0.00  0.00    +0.292 HD
ENDBRANCH  26  29
BRANCH  27  31
ATOM     31  O   UNL     1       7.361  -5.768  21.550  0.00  0.00    -0.503 OA
ATOM     32  H   UNL     1       6.862  -5.522  20.752  0.00  0.00    +0.292 HD
ENDBRANCH  27  31
ENDBRANCH  12  24
BRANCH  18  33
ATOM     33  O   UNL     1       0.781  -8.593  29.131  0.00  0.00    -0.507 OA
ATOM     34  H   UNL     1       0.460  -8.924  28.275  0.00  0.00    +0.292 HD
ENDBRANCH  18  33
BRANCH  16  35
ATOM     35  O   UNL     1       1.414  -4.081  30.485  0.00  0.00    -0.506 OA
ATOM     36  H   UNL     1       0.470  -4.148  30.748  0.00  0.00    +0.292 HD
ENDBRANCH  16  35
ENDBRANCH  11  22
ENDBRANCH   1  11
BRANCH   3  37
ATOM     37  C   UNL     1       6.796  -1.749  23.466  0.00  0.00    +0.190 C 
BRANCH  37  38
ATOM     38  O   UNL     1       6.153  -0.697  22.750  0.00  0.00    -0.392 OA
ATOM     39  H   UNL     1       5.429  -0.369  23.314  0.00  0.00    +0.210 HD
ENDBRANCH  37  38
ENDBRANCH   3  37
BRANCH   4  40
ATOM     40  O   UNL     1       7.411   0.752  25.024  0.00  0.00    -0.340 OA
BRANCH  40  41
ATOM     41  C   UNL     1       8.571   1.564  24.812  0.00  0.00    +0.282 C 
ATOM     42  O   UNL     1       8.221   2.734  24.048  0.00  0.00    -0.341 OA
ATOM     43  C   UNL     1       7.752   2.428  22.724  0.00  0.00    +0.178 C 
ATOM     44  C   UNL     1       8.787   1.627  21.920  0.00  0.00    +0.177 C 
ATOM     45  C   UNL     1       9.301   0.419  22.717  0.00  0.00    +0.179 C 
ATOM     46  C   UNL     1       9.740   0.829  24.130  0.00  0.00    +0.201 C 
BRANCH  44  47
ATOM     47  O   UNL     1       9.922   2.448  21.590  0.00  0.00    -0.386 OA
ATOM     48  H   UNL     1       9.655   3.353  21.861  0.00  0.00    +0.210 HD
ENDBRANCH  44  47
BRANCH  45  49
ATOM     49  O   UNL     1      10.395  -0.166  21.988  0.00  0.00    -0.386 OA
ATOM     50  H   UNL     1      11.219   0.173  22.387  0.00  0.00    +0.210 HD
ENDBRANCH  45  49
BRANCH  46  51
ATOM     51  O   UNL     1      10.923   1.645  24.069  0.00  0.00    -0.384 OA
ATOM     52  H   UNL     1      11.208   1.805  24.994  0.00  0.00    +0.210 HD
ENDBRANCH  46  51
BRANCH  43  53
ATOM     53  C   UNL     1       7.419   3.767  22.049  0.00  0.00    +0.190 C 
BRANCH  53  54
ATOM     54  O   UNL     1       8.286   4.788  22.552  0.00  0.00    -0.392 OA
ATOM     55  H   UNL     1       8.214   4.728  23.524  0.00  0.00    +0.210 HD
ENDBRANCH  53  54
ENDBRANCH  43  53
ENDBRANCH  40  41
ENDBRANCH   4  40
TORSDOF 18
ENDMDL
MODEL 3
REMARK VINA RESULT:      -6.9      2.877      5.622
REMARK  Name = 
REMARK  18 active torsions:
REMARK  status: ('A' for Active; 'I' for Inactive)
REMARK    1  A    between atoms: C_3  and  O_49
REMARK    2  A    between atoms: C_4  and  O_48
REMARK    3  A    between atoms: C_6  and  C_7
REMARK    4  A    between atoms: C_8  and  O_20
REMARK    5  A    between atoms: C_12  and  O_19
REMARK    6  A    between atoms: C_14  and  O_18
REMARK    7  A    between atoms: O_20  and  C_21
REMARK    8  A    between atoms: C_23  and  O_47
REMARK    9  A    between atoms: C_24  and  O_46
REMARK   10  A    between atoms: C_25  and  O_31
REMARK   11  A    between atoms: C_27  and  C_29
REMARK   12  A    between atoms: C_29  and  O_30
REMARK   13  A    between atoms: O_31  and  C_32
REMARK   14  A    between atoms: C_34  and  O_45
REMARK   15  A    between atoms: C_36  and  O_44
REMARK   16  A    between atoms: C_37  and  O_43
REMARK   17  A    between atoms: C_39  and  C_41
REMARK   18  A    between atoms: C_41  and  O_42
REMARK                            x       y       z     vdW  Elec       q    Type
REMARK                         _______ _______ _______ _____ _____    ______ ____
ROOT
ATOM      1  C   UNL     1       6.180  -0.226  24.489  0.00  0.00    +0.340 C 
ATOM      2  O   UNL     1       5.037  -1.066  24.801  0.00  0.00    -0.331 OA
ATOM      3  C   UNL     1       5.102  -1.594  26.150  0.00  0.00    +0.179 C 
ATOM      4  C   UNL     1       6.351  -2.499  26.338  0.00  0.00    +0.184 C 
ATOM      5  C   UNL     1       7.565  -1.591  26.031  0.00  0.00    +0.180 C 
ATOM      6  C   UNL     1       7.441  -1.124  24.566  0.00  0.00    +0.214 C 
ENDROOT
BRANCH   5   7
ATOM      7  O   UNL     1       8.781  -2.211  26.445  0.00  0.00    -0.386 OA
ATOM      8  H   UNL     1       9.307  -2.491  25.680  0.00  0.00    +0.210 HD
ENDBRANCH   5   7
BRANCH   6   9
ATOM      9  O   UNL     1       8.640  -0.538  24.073  0.00  0.00    -0.383 OA
ATOM     10  H   UNL     1       8.943  -1.037  23.298  0.00  0.00    +0.210 HD
ENDBRANCH   6   9
BRANCH   1  11
ATOM     11  O   UNL     1       6.103   0.869  25.423  0.00  0.00    -0.453 OA
BRANCH  11  22
ATOM     12  C   UNL     1       6.107   3.084  24.450  0.00  0.00    +0.181 A 
ATOM     13  O   UNL     1       5.366   4.146  23.912  0.00  0.00    -0.451 OA
ATOM     14  C   UNL     1       4.004   4.128  23.919  0.00  0.00    +0.147 A 
ATOM     15  C   UNL     1       3.281   3.222  24.664  0.00  0.00    +0.109 A 
ATOM     16  C   UNL     1       1.882   3.320  24.692  0.00  0.00    +0.135 A 
ATOM     17  C   UNL     1       1.216   4.316  23.969  0.00  0.00    +0.091 A 
ATOM     18  C   UNL     1       1.962   5.203  23.200  0.00  0.00    +0.124 A 
ATOM     19  C   UNL     1       4.030   2.172  25.369  0.00  0.00    +0.238 A 
ATOM     20  O   UNL     1       3.422   1.349  26.045  0.00  0.00    -0.283 OA
ATOM     21  C   UNL     1       3.351   5.113  23.165  0.00  0.00    +0.092 A 
ATOM     22  C   UNL     1       5.546   2.091  25.165  0.00  0.00    +0.214 A 
BRANCH  12  24
ATOM     23  C   UNL     1       8.377   4.145  24.762  0.00  0.00    +0.015 A 
ATOM     24  C   UNL     1       7.554   3.247  24.025  0.00  0.00    +0.025 A 
ATOM     25  C   UNL     1       8.188   2.574  22.970  0.00  0.00    +0.060 A 
ATOM     26  C   UNL     1       9.535   2.812  22.671  0.00  0.00    +0.159 A 
ATOM     27  C   UNL     1      10.286   3.741  23.374  0.00  0.00    +0.158 A 
ATOM     28  C   UNL     1       9.717   4.408  24.441  0.00  0.00    +0.050 A 
BRANCH  26  29
ATOM     29  O   UNL     1      10.124   2.113  21.652  0.00  0.00    -0.503 OA
ATOM     30  H   UNL     1       9.377   1.809  21.096  0.00  0.00    +0.292 HD
ENDBRANCH  26  29
BRANCH  27  31
ATOM     31  O   UNL     1      11.567   3.978  22.971  0.00  0.00    -0.503 OA
ATOM     32  H   UNL     1      11.906   4.735  23.479  0.00  0.00    +0.292 HD
ENDBRANCH  27  31
ENDBRANCH  12  24
BRANCH  18  33
ATOM     33  O   UNL     1       1.367   6.190  22.463  0.00  0.00    -0.507 OA
ATOM     34  H   UNL     1       1.900   6.342  21.665  0.00  0.00    +0.292 HD
ENDBRANCH  18  33
BRANCH  16  35
ATOM     35  O   UNL     1       1.086   2.472  25.411  0.00  0.00    -0.506 OA
ATOM     36  H   UNL     1       0.163   2.807  25.380  0.00  0.00    +0.292 HD
ENDBRANCH  16  35
ENDBRANCH  11  22
ENDBRANCH   1  11
BRANCH   3  37
ATOM     37  C   UNL     1       3.770  -2.265  26.480  0.00  0.00    +0.190 C 
BRANCH  37  38
ATOM     38  O   UNL     1       3.214  -2.862  25.310  0.00  0.00    -0.392 OA
ATOM     39  H   UNL     1       3.046  -2.142  24.675  0.00  0.00    +0.210 HD
ENDBRANCH  37  38
ENDBRANCH   3  37
BRANCH   4  40
ATOM     40  O   UNL     1       6.241  -3.642  25.452  0.00  0.00    -0.340 OA
BRANCH  40  41
ATOM     41  C   UNL     1       6.846  -4.871  25.867  0.00  0.00    +0.282 C 
ATOM     42  O   UNL     1       6.073  -5.987  25.387  0.00  0.00    -0.341 OA
ATOM     43  C   UNL     1       4.745  -6.038  25.938  0.00  0.00    +0.178 C 
ATOM     44  C   UNL     1       4.764  -6.097  27.472  0.00  0.00    +0.177 C 
ATOM     45  C   UNL     1       5.665  -5.004  28.063  0.00  0.00    +0.179 C 
ATOM     46  C   UNL     1       7.045  -4.994  27.389  0.00  0.00    +0.201 C 
BRANCH  44  47
ATOM     47  O   UNL     1       5.261  -7.369  27.927  0.00  0.00    -0.386 OA
ATOM     48  H   UNL     1       5.097  -7.978  27.174  0.00  0.00    +0.210 HD
ENDBRANCH  44  47
BRANCH  45  49
ATOM     49  O   UNL     1       5.785  -5.238  29.477  0.00  0.00    -0.386 OA
ATOM     50  H   UNL     1       4.924  -5.014  29.880  0.00  0.00    +0.210 HD
ENDBRANCH  45  49
BRANCH  46  51
ATOM     51  O   UNL     1       7.780  -6.181  27.739  0.00  0.00    -0.384 OA
ATOM     52  H   UNL     1       7.828  -6.735  26.931  0.00  0.00    +0.210 HD
ENDBRANCH  46  51
BRANCH  43  53
ATOM     53  C   UNL     1       4.057  -7.268  25.328  0.00  0.00    +0.190 C 
BRANCH  53  54
ATOM     54  O   UNL     1       4.519  -7.463  23.988  0.00  0.00    -0.392 OA
ATOM     55  H   UNL     1       5.426  -7.815  24.079  0.00  0.00    +0.210 HD
ENDBRANCH  53  54
ENDBRANCH  43  53
ENDBRANCH  40  41
ENDBRANCH   4  40
TORSDOF 18
ENDMDL
MODEL 4
REMARK VINA RESULT:      -6.8      2.104      3.641
REMARK  Name = 
REMARK  18 active torsions:
REMARK  status: ('A' for Active; 'I' for Inactive)
REMARK    1  A    between atoms: C_3  and  O_49
REMARK    2  A    between atoms: C_4  and  O_48
REMARK    3  A    between atoms: C_6  and  C_7
REMARK    4  A    between atoms: C_8  and  O_20
REMARK    5  A    between atoms: C_12  and  O_19
REMARK    6  A    between atoms: C_14  and  O_18
REMARK    7  A    between atoms: O_20  and  C_21
REMARK    8  A    between atoms: C_23  and  O_47
REMARK    9  A    between atoms: C_24  and  O_46
REMARK   10  A    between atoms: C_25  and  O_31
REMARK   11  A    between atoms: C_27  and  C_29
REMARK   12  A    between atoms: C_29  and  O_30
REMARK   13  A    between atoms: O_31  and  C_32
REMARK   14  A    between atoms: C_34  and  O_45
REMARK   15  A    between atoms: C_36  and  O_44
REMARK   16  A    between atoms: C_37  and  O_43
REMARK   17  A    between atoms: C_39  and  C_41
REMARK   18  A    between atoms: C_41  and  O_42
REMARK                            x       y       z     vdW  Elec       q    Type
REMARK                         _______ _______ _______ _____ _____    ______ ____
ROOT
ATOM      1  C   UNL     1       5.703  -1.119  26.902  0.00  0.00    +0.340 C 
ATOM      2  O   UNL     1       5.690  -2.502  27.344  0.00  0.00    -0.331 OA
ATOM      3  C   UNL     1       6.547  -3.341  26.529  0.00  0.00    +0.179 C 
ATOM      4  C   UNL     1       6.066  -3.367  25.051  0.00  0.00    +0.184 C 
ATOM      5  C   UNL     1       6.109  -1.895  24.580  0.00  0.00    +0.180 C 
ATOM      6  C   UNL     1       5.130  -1.093  25.462  0.00  0.00    +0.214 C 
ENDROOT
BRANCH   5   7
ATOM      7  O   UNL     1       5.970  -1.810  23.163  0.00  0.00    -0.386 OA
ATOM      8  H   UNL     1       6.706  -1.318  22.770  0.00  0.00    +0.210 HD
ENDBRANCH   5   7
BRANCH   6   9
ATOM      9  O   UNL     1       4.850   0.200  24.938  0.00  0.00    -0.383 OA
ATOM     10  H   UNL     1       4.583   0.117  24.009  0.00  0.00    +0.210 HD
ENDBRANCH   6   9
BRANCH   1  11
ATOM     11  O   UNL     1       7.068  -0.688  27.066  0.00  0.00    -0.453 OA
BRANCH  11  22
ATOM     12  C   UNL     1       8.111   1.089  25.799  0.00  0.00    +0.181 A 
ATOM     13  O   UNL     1       8.214   2.465  25.546  0.00  0.00    -0.451 OA
ATOM     14  C   UNL     1       7.548   3.373  26.312  0.00  0.00    +0.147 A 
ATOM     15  C   UNL     1       6.956   3.036  27.510  0.00  0.00    +0.109 A 
ATOM     16  C   UNL     1       6.365   4.042  28.288  0.00  0.00    +0.135 A 
ATOM     17  C   UNL     1       6.362   5.374  27.860  0.00  0.00    +0.091 A 
ATOM     18  C   UNL     1       6.939   5.689  26.634  0.00  0.00    +0.124 A 
ATOM     19  C   UNL     1       6.952   1.616  27.889  0.00  0.00    +0.238 A 
ATOM     20  O   UNL     1       6.438   1.277  28.950  0.00  0.00    -0.283 OA
ATOM     21  C   UNL     1       7.527   4.697  25.854  0.00  0.00    +0.092 A 
ATOM     22  C   UNL     1       7.520   0.592  26.901  0.00  0.00    +0.214 A 
BRANCH  12  24
ATOM     23  C   UNL     1       8.628   0.944  23.331  0.00  0.00    +0.015 A 
ATOM     24  C   UNL     1       8.700   0.340  24.618  0.00  0.00    +0.025 A 
ATOM     25  C   UNL     1       9.342  -0.907  24.665  0.00  0.00    +0.060 A 
ATOM     26  C   UNL     1       9.843  -1.502  23.501  0.00  0.00    +0.159 A 
ATOM     27  C   UNL     1       9.699  -0.909  22.258  0.00  0.00    +0.158 A 
ATOM     28  C   UNL     1       9.101   0.333  22.162  0.00  0.00    +0.050 A 
BRANCH  26  29
ATOM     29  O   UNL     1      10.489  -2.706  23.595  0.00  0.00    -0.503 OA
ATOM     30  H   UNL     1      10.730  -2.784  24.542  0.00  0.00    +0.292 HD
ENDBRANCH  26  29
BRANCH  27  31
ATOM     31  O   UNL     1      10.140  -1.588  21.160  0.00  0.00    -0.503 OA
ATOM     32  H   UNL     1       9.757  -2.482  21.187  0.00  0.00    +0.292 HD
ENDBRANCH  27  31
ENDBRANCH  12  24
BRANCH  18  33
ATOM     33  O   UNL     1       6.955   6.971  26.158  0.00  0.00    -0.507 OA
ATOM     34  H   UNL     1       7.181   7.569  26.889  0.00  0.00    +0.292 HD
ENDBRANCH  18  33
BRANCH  16  35
ATOM     35  O   UNL     1       5.765   3.801  29.493  0.00  0.00    -0.506 OA
ATOM     36  H   UNL     1       5.497   2.856  29.527  0.00  0.00    +0.292 HD
ENDBRANCH  16  35
ENDBRANCH  11  22
ENDBRANCH   1  11
BRANCH   3  37
ATOM     37  C   UNL     1       6.662  -4.714  27.189  0.00  0.00    +0.190 C 
BRANCH  37  38
ATOM     38  O   UNL     1       8.028  -5.120  27.250  0.00  0.00    -0.392 OA
ATOM     39  H   UNL     1       8.051  -5.974  27.719  0.00  0.00    +0.210 HD
ENDBRANCH  37  38
ENDBRANCH   3  37
BRANCH   4  40
ATOM     40  O   UNL     1       4.742  -3.956  24.999  0.00  0.00    -0.340 OA
BRANCH  40  41
ATOM     41  C   UNL     1       4.526  -5.040  24.088  0.00  0.00    +0.282 C 
ATOM     42  O   UNL     1       3.276  -4.861  23.397  0.00  0.00    -0.341 OA
ATOM     43  C   UNL     1       2.133  -4.895  24.270  0.00  0.00    +0.178 C 
ATOM     44  C   UNL     1       2.056  -6.209  25.061  0.00  0.00    +0.177 C 
ATOM     45  C   UNL     1       3.395  -6.533  25.740  0.00  0.00    +0.179 C 
ATOM     46  C   UNL     1       4.562  -6.431  24.746  0.00  0.00    +0.201 C 
BRANCH  44  47
ATOM     47  O   UNL     1       1.727  -7.308  24.193  0.00  0.00    -0.386 OA
ATOM     48  H   UNL     1       1.127  -7.871  24.729  0.00  0.00    +0.210 HD
ENDBRANCH  44  47
BRANCH  45  49
ATOM     49  O   UNL     1       3.307  -7.857  26.295  0.00  0.00    -0.386 OA
ATOM     50  H   UNL     1       2.403  -8.183  26.119  0.00  0.00    +0.210 HD
ENDBRANCH  45  49
BRANCH  46  51
ATOM     51  O   UNL     1       4.480  -7.487  23.771  0.00  0.00    -0.384 OA
ATOM     52  H   UNL     1       4.196  -8.295  24.248  0.00  0.00    +0.210 HD
ENDBRANCH  46  51
BRANCH  43  53
ATOM     53  C   UNL     1       0.893  -4.686  23.388  0.00  0.00    +0.190 C 
BRANCH  53  54
ATOM     54  O   UNL     1       0.988  -5.508  22.222  0.00  0.00    -0.392 OA
ATOM     55  H   UNL     1       0.881  -4.895  21.469  0.00  0.00    +0.210 HD
ENDBRANCH  53  54
ENDBRANCH  43  53
ENDBRANCH  40  41
ENDBRANCH   4  40
TORSDOF 18
ENDMDL
MODEL 5
REMARK VINA RESULT:      -6.8      2.144      8.935
REMARK  Name = 
REMARK  18 active torsions:
REMARK  status: ('A' for Active; 'I' for Inactive)
REMARK    1  A    between atoms: C_3  and  O_49
REMARK    2  A    between atoms: C_4  and  O_48
REMARK    3  A    between atoms: C_6  and  C_7
REMARK    4  A    between atoms: C_8  and  O_20
REMARK    5  A    between atoms: C_12  and  O_19
REMARK    6  A    between atoms: C_14  and  O_18
REMARK    7  A    between atoms: O_20  and  C_21
REMARK    8  A    between atoms: C_23  and  O_47
REMARK    9  A    between atoms: C_24  and  O_46
REMARK   10  A    between atoms: C_25  and  O_31
REMARK   11  A    between atoms: C_27  and  C_29
REMARK   12  A    between atoms: C_29  and  O_30
REMARK   13  A    between atoms: O_31  and  C_32
REMARK   14  A    between atoms: C_34  and  O_45
REMARK   15  A    between atoms: C_36  and  O_44
REMARK   16  A    between atoms: C_37  and  O_43
REMARK   17  A    between atoms: C_39  and  C_41
REMARK   18  A    between atoms: C_41  and  O_42
REMARK                            x       y       z     vdW  Elec       q    Type
REMARK                         _______ _______ _______ _____ _____    ______ ____
ROOT
ATOM      1  C   UNL     1       4.743   0.431  26.223  0.00  0.00    +0.340 C 
ATOM      2  O   UNL     1       4.998   0.877  24.866  0.00  0.00    -0.331 OA
ATOM      3  C   UNL     1       6.413   1.074  24.615  0.00  0.00    +0.179 C 
ATOM      4  C   UNL     1       6.998   2.179  25.538  0.00  0.00    +0.184 C 
ATOM      5  C   UNL     1       6.747   1.683  26.980  0.00  0.00    +0.180 C 
ATOM      6  C   UNL     1       5.221   1.559  27.173  0.00  0.00    +0.214 C 
ENDROOT
BRANCH   5   7
ATOM      7  O   UNL     1       7.487   2.459  27.921  0.00  0.00    -0.386 OA
ATOM      8  H   UNL     1       6.899   3.013  28.455  0.00  0.00    +0.210 HD
ENDBRANCH   5   7
BRANCH   6   9
ATOM      9  O   UNL     1       4.850   1.407  28.538  0.00  0.00    -0.383 OA
ATOM     10  H   UNL     1       3.963   1.777  28.671  0.00  0.00    +0.210 HD
ENDBRANCH   6   9
BRANCH   1  11
ATOM     11  O   UNL     1       5.415  -0.839  26.330  0.00  0.00    -0.453 OA
BRANCH  11  22
ATOM     12  C   UNL     1       5.746  -2.745  24.877  0.00  0.00    +0.181 A 
ATOM     13  O   UNL     1       5.444  -4.083  24.586  0.00  0.00    -0.451 OA
ATOM     14  C   UNL     1       4.505  -4.764  25.301  0.00  0.00    +0.147 A 
ATOM     15  C   UNL     1       3.628  -4.134  26.157  0.00  0.00    +0.109 A 
ATOM     16  C   UNL     1       2.629  -4.887  26.791  0.00  0.00    +0.135 A 
ATOM     17  C   UNL     1       2.521  -6.265  26.573  0.00  0.00    +0.091 A 
ATOM     18  C   UNL     1       3.434  -6.888  25.728  0.00  0.00    +0.124 A 
ATOM     19  C   UNL     1       3.816  -2.693  26.381  0.00  0.00    +0.238 A 
ATOM     20  O   UNL     1       3.053  -2.096  27.133  0.00  0.00    -0.283 OA
ATOM     21  C   UNL     1       4.429  -6.148  25.095  0.00  0.00    +0.092 A 
ATOM     22  C   UNL     1       5.015  -2.000  25.728  0.00  0.00    +0.214 A 
BRANCH  12  24
ATOM     23  C   UNL     1       7.077  -2.614  22.735  0.00  0.00    +0.015 A 
ATOM     24  C   UNL     1       7.015  -2.369  24.136  0.00  0.00    +0.025 A 
ATOM     25  C   UNL     1       8.155  -1.772  24.696  0.00  0.00    +0.060 A 
ATOM     26  C   UNL     1       9.272  -1.474  23.907  0.00  0.00    +0.159 A 
ATOM     27  C   UNL     1       9.317  -1.784  22.558  0.00  0.00    +0.158 A 
ATOM     28  C   UNL     1       8.209  -2.345  21.952  0.00  0.00    +0.050 A 
BRANCH  26  29
ATOM     29  O   UNL     1      10.352  -0.865  24.487  0.00  0.00    -0.503 OA
ATOM     30  H   UNL     1      10.680  -0.241  23.806  0.00  0.00    +0.292 HD
ENDBRANCH  26  29
BRANCH  27  31
ATOM     31  O   UNL     1      10.471  -1.539  21.873  0.00  0.00    -0.503 OA
ATOM     32  H   UNL     1      10.485  -2.120  21.093  0.00  0.00    +0.292 HD
ENDBRANCH  27  31
ENDBRANCH  12  24
BRANCH  18  33
ATOM     33  O   UNL     1       3.385  -8.233  25.485  0.00  0.00    -0.507 OA
ATOM     34  H   UNL     1       3.439  -8.701  26.335  0.00  0.00    +0.292 HD
ENDBRANCH  18  33
BRANCH  16  35
ATOM     35  O   UNL     1       1.712  -4.345  27.647  0.00  0.00    -0.506 OA
ATOM     36  H   UNL     1       2.066  -3.494  27.989  0.00  0.00    +0.292 HD
ENDBRANCH  16  35
ENDBRANCH  11  22
ENDBRANCH   1  11
BRANCH   3  37
ATOM     37  C   UNL     1       6.618   1.312  23.120  0.00  0.00    +0.190 C 
BRANCH  37  38
ATOM     38  O   UNL     1       5.556   2.106  22.595  0.00  0.00    -0.392 OA
ATOM     39  H   UNL     1       5.826   3.038  22.684  0.00  0.00    +0.210 HD
ENDBRANCH  37  38
ENDBRANCH   3  37
BRANCH   4  40
ATOM     40  O   UNL     1       6.347   3.438  25.234  0.00  0.00    -0.340 OA
BRANCH  40  41
ATOM     41  C   UNL     1       7.103   4.642  25.403  0.00  0.00    +0.282 C 
ATOM     42  O   UNL     1       6.563   5.684  24.569  0.00  0.00    -0.341 OA
ATOM     43  C   UNL     1       6.659   5.396  23.163  0.00  0.00    +0.178 C 
ATOM     44  C   UNL     1       8.110   5.143  22.729  0.00  0.00    +0.177 C 
ATOM     45  C   UNL     1       8.799   4.121  23.645  0.00  0.00    +0.179 C 
ATOM     46  C   UNL     1       8.609   4.483  25.126  0.00  0.00    +0.201 C 
BRANCH  44  47
ATOM     47  O   UNL     1       8.876   6.361  22.777  0.00  0.00    -0.386 OA
ATOM     48  H   UNL     1       8.645   6.760  23.644  0.00  0.00    +0.210 HD
ENDBRANCH  44  47
BRANCH  45  49
ATOM     49  O   UNL     1      10.195   4.080  23.301  0.00  0.00    -0.386 OA
ATOM     50  H   UNL     1      10.691   3.929  24.129  0.00  0.00    +0.210 HD
ENDBRANCH  45  49
BRANCH  46  51
ATOM     51  O   UNL     1       9.341   5.681  25.444  0.00  0.00    -0.384 OA
ATOM     52  H   UNL     1       8.869   6.426  25.015  0.00  0.00    +0.210 HD
ENDBRANCH  46  51
BRANCH  43  53
ATOM     53  C   UNL     1       6.042   6.590  22.421  0.00  0.00    +0.190 C 
BRANCH  53  54
ATOM     54  O   UNL     1       6.732   6.797  21.185  0.00  0.00    -0.392 OA
ATOM     55  H   UNL     1       6.856   5.904  20.809  0.00  0.00    +0.210 HD
ENDBRANCH  53  54
ENDBRANCH  43  53
ENDBRANCH  40  41
ENDBRANCH   4  40
TORSDOF 18
ENDMDL
MODEL 6
REMARK VINA RESULT:      -6.7      2.286      8.328
REMARK  Name = 
REMARK  18 active torsions:
REMARK  status: ('A' for Active; 'I' for Inactive)
REMARK    1  A    between atoms: C_3  and  O_49
REMARK    2  A    between atoms: C_4  and  O_48
REMARK    3  A    between atoms: C_6  and  C_7
REMARK    4  A    between atoms: C_8  and  O_20
REMARK    5  A    between atoms: C_12  and  O_19
REMARK    6  A    between atoms: C_14  and  O_18
REMARK    7  A    between atoms: O_20  and  C_21
REMARK    8  A    between atoms: C_23  and  O_47
REMARK    9  A    between atoms: C_24  and  O_46
REMARK   10  A    between atoms: C_25  and  O_31
REMARK   11  A    between atoms: C_27  and  C_29
REMARK   12  A    between atoms: C_29  and  O_30
REMARK   13  A    between atoms: O_31  and  C_32
REMARK   14  A    between atoms: C_34  and  O_45
REMARK   15  A    between atoms: C_36  and  O_44
REMARK   16  A    between atoms: C_37  and  O_43
REMARK   17  A    between atoms: C_39  and  C_41
REMARK   18  A    between atoms: C_41  and  O_42
REMARK                            x       y       z     vdW  Elec       q    Type
REMARK                         _______ _______ _______ _____ _____    ______ ____
ROOT
ATOM      1  C   UNL     1       6.436  -1.197  26.255  0.00  0.00    +0.340 C 
ATOM      2  O   UNL     1       7.246  -0.298  27.057  0.00  0.00    -0.331 OA
ATOM      3  C   UNL     1       6.607   0.992  27.240  0.00  0.00    +0.179 C 
ATOM      4  C   UNL     1       6.401   1.713  25.879  0.00  0.00    +0.184 C 
ATOM      5  C   UNL     1       5.516   0.762  25.041  0.00  0.00    +0.180 C 
ATOM      6  C   UNL     1       6.295  -0.556  24.850  0.00  0.00    +0.214 C 
ENDROOT
BRANCH   5   7
ATOM      7  O   UNL     1       5.012   1.424  23.883  0.00  0.00    -0.386 OA
ATOM      8  H   UNL     1       5.277   2.356  23.871  0.00  0.00    +0.210 HD
ENDBRANCH   5   7
BRANCH   6   9
ATOM      9  O   UNL     1       5.725  -1.393  23.851  0.00  0.00    -0.383 OA
ATOM     10  H   UNL     1       6.378  -1.542  23.149  0.00  0.00    +0.210 HD
ENDBRANCH   6   9
BRANCH   1  11
ATOM     11  O   UNL     1       5.224  -1.381  27.011  0.00  0.00    -0.453 OA
BRANCH  11  22
ATOM     12  C   UNL     1       4.833  -3.755  26.756  0.00  0.00    +0.181 A 
ATOM     13  O   UNL     1       4.052  -4.872  27.085  0.00  0.00    -0.451 OA
ATOM     14  C   UNL     1       2.912  -4.741  27.819  0.00  0.00    +0.147 A 
ATOM     15  C   UNL     1       2.323  -3.519  28.059  0.00  0.00    +0.109 A 
ATOM     16  C   UNL     1       1.102  -3.469  28.747  0.00  0.00    +0.135 A 
ATOM     17  C   UNL     1       0.484  -4.641  29.198  0.00  0.00    +0.091 A 
ATOM     18  C   UNL     1       1.107  -5.863  28.971  0.00  0.00    +0.124 A 
ATOM     19  C   UNL     1       3.040  -2.320  27.600  0.00  0.00    +0.238 A 
ATOM     20  O   UNL     1       2.546  -1.213  27.792  0.00  0.00    -0.283 OA
ATOM     21  C   UNL     1       2.320  -5.922  28.290  0.00  0.00    +0.092 A 
ATOM     22  C   UNL     1       4.424  -2.490  26.969  0.00  0.00    +0.214 A 
BRANCH  12  24
ATOM     23  C   UNL     1       6.243  -4.606  24.841  0.00  0.00    +0.015 A 
ATOM     24  C   UNL     1       6.164  -4.244  26.216  0.00  0.00    +0.025 A 
ATOM     25  C   UNL     1       7.359  -4.361  26.941  0.00  0.00    +0.060 A 
ATOM     26  C   UNL     1       8.528  -4.831  26.330  0.00  0.00    +0.159 A 
ATOM     27  C   UNL     1       8.549  -5.231  25.004  0.00  0.00    +0.158 A 
ATOM     28  C   UNL     1       7.405  -5.107  24.239  0.00  0.00    +0.050 A 
BRANCH  26  29
ATOM     29  O   UNL     1       9.681  -4.901  27.066  0.00  0.00    -0.503 OA
ATOM     30  H   UNL     1       9.454  -4.483  27.923  0.00  0.00    +0.292 HD
ENDBRANCH  26  29
BRANCH  27  31
ATOM     31  O   UNL     1       9.704  -5.755  24.502  0.00  0.00    -0.503 OA
ATOM     32  H   UNL     1       9.530  -6.042  23.590  0.00  0.00    +0.292 HD
ENDBRANCH  27  31
ENDBRANCH  12  24
BRANCH  18  33
ATOM     33  O   UNL     1       0.557  -7.040  29.398  0.00  0.00    -0.507 OA
ATOM     34  H   UNL     1      -0.402  -7.008  29.240  0.00  0.00    +0.292 HD
ENDBRANCH  18  33
BRANCH  16  35
ATOM     35  O   UNL     1       0.443  -2.304  29.020  0.00  0.00    -0.506 OA
ATOM     36  H   UNL     1      -0.164  -2.104  28.274  0.00  0.00    +0.292 HD
ENDBRANCH  16  35
ENDBRANCH  11  22
ENDBRANCH   1  11
BRANCH   3  37
ATOM     37  C   UNL     1       7.399   1.790  28.274  0.00  0.00    +0.190 C 
BRANCH  37  38
ATOM     38  O   UNL     1       7.421   3.171  27.922  0.00  0.00    -0.392 OA
ATOM     39  H   UNL     1       7.852   3.237  27.050  0.00  0.00    +0.210 HD
ENDBRANCH  37  38
ENDBRANCH   3  37
BRANCH   4  40
ATOM     40  O   UNL     1       7.697   1.975  25.284  0.00  0.00    -0.340 OA
BRANCH  40  41
ATOM     41  C   UNL     1       7.734   2.701  24.051  0.00  0.00    +0.282 C 
ATOM     42  O   UNL     1       7.709   1.785  22.940  0.00  0.00    -0.341 OA
ATOM     43  C   UNL     1       8.861   0.926  22.884  0.00  0.00    +0.178 C 
ATOM     44  C   UNL     1      10.169   1.727  22.811  0.00  0.00    +0.177 C 
ATOM     45  C   UNL     1      10.225   2.809  23.898  0.00  0.00    +0.179 C 
ATOM     46  C   UNL     1       8.939   3.650  23.914  0.00  0.00    +0.201 C 
BRANCH  44  47
ATOM     47  O   UNL     1      10.296   2.380  21.535  0.00  0.00    -0.386 OA
ATOM     48  H   UNL     1       9.778   1.816  20.920  0.00  0.00    +0.210 HD
ENDBRANCH  44  47
BRANCH  45  49
ATOM     49  O   UNL     1      11.376   3.635  23.650  0.00  0.00    -0.386 OA
ATOM     50  H   UNL     1      11.409   3.799  22.688  0.00  0.00    +0.210 HD
ENDBRANCH  45  49
BRANCH  46  51
ATOM     51  O   UNL     1       8.854   4.454  22.724  0.00  0.00    -0.384 OA
ATOM     52  H   UNL     1       7.921   4.745  22.642  0.00  0.00    +0.210 HD
ENDBRANCH  46  51
BRANCH  43  53
ATOM     53  C   UNL     1       8.679   0.017  21.660  0.00  0.00    +0.190 C 
BRANCH  53  54
ATOM     54  O   UNL     1       9.925  -0.605  21.333  0.00  0.00    -0.392 OA
ATOM     55  H   UNL     1      10.609   0.043  21.591  0.00  0.00    +0.210 HD
ENDBRANCH  53  54
ENDBRANCH  43  53
ENDBRANCH  40  41
ENDBRANCH   4  40
TORSDOF 18
ENDMDL
MODEL 7
REMARK VINA RESULT:      -6.7      2.152      3.500
REMARK  Name = 
REMARK  18 active torsions:
REMARK  status: ('A' for Active; 'I' for Inactive)
REMARK    1  A    between atoms: C_3  and  O_49
REMARK    2  A    between atoms: C_4  and  O_48
REMARK    3  A    between atoms: C_6  and  C_7
REMARK    4  A    between atoms: C_8  and  O_20
REMARK    5  A    between atoms: C_12  and  O_19
REMARK    6  A    between atoms: C_14  and  O_18
REMARK    7  A    between atoms: O_20  and  C_21
REMARK    8  A    between atoms: C_23  and  O_47
REMARK    9  A    between atoms: C_24  and  O_46
REMARK   10  A    between atoms: C_25  and  O_31
REMARK   11  A    between atoms: C_27  and  C_29
REMARK   12  A    between atoms: C_29  and  O_30
REMARK   13  A    between atoms: O_31  and  C_32
REMARK   14  A    between atoms: C_34  and  O_45
REMARK   15  A    between atoms: C_36  and  O_44
REMARK   16  A    between atoms: C_37  and  O_43
REMARK   17  A    between atoms: C_39  and  C_41
REMARK   18  A    between atoms: C_41  and  O_42
REMARK                            x       y       z     vdW  Elec       q    Type
REMARK                         _______ _______ _______ _____ _____    ______ ____
ROOT
ATOM      1  C   UNL     1       5.376  -1.610  26.557  0.00  0.00    +0.340 C 
ATOM      2  O   UNL     1       4.845  -2.521  27.555  0.00  0.00    -0.331 OA
ATOM      3  C   UNL     1       5.705  -3.673  27.752  0.00  0.00    +0.179 C 
ATOM      4  C   UNL     1       5.833  -4.506  26.447  0.00  0.00    +0.184 C 
ATOM      5  C   UNL     1       6.424  -3.537  25.398  0.00  0.00    +0.180 C 
ATOM      6  C   UNL     1       5.421  -2.380  25.213  0.00  0.00    +0.214 C 
ENDROOT
BRANCH   5   7
ATOM      7  O   UNL     1       6.861  -4.246  24.240  0.00  0.00    -0.386 OA
ATOM      8  H   UNL     1       7.184  -5.130  24.474  0.00  0.00    +0.210 HD
ENDBRANCH   5   7
BRANCH   6   9
ATOM      9  O   UNL     1       5.700  -1.589  24.064  0.00  0.00    -0.383 OA
ATOM     10  H   UNL     1       5.639  -2.145  23.271  0.00  0.00    +0.210 HD
ENDBRANCH   6   9
BRANCH   1  11
ATOM     11  O   UNL     1       6.636  -1.164  27.094  0.00  0.00    -0.453 OA
BRANCH  11  22
ATOM     12  C   UNL     1       7.789   0.700  26.068  0.00  0.00    +0.181 A 
ATOM     13  O   UNL     1       7.910   2.090  25.928  0.00  0.00    -0.451 OA
ATOM     14  C   UNL     1       7.167   2.941  26.691  0.00  0.00    +0.147 A 
ATOM     15  C   UNL     1       6.463   2.518  27.797  0.00  0.00    +0.109 A 
ATOM     16  C   UNL     1       5.794   3.465  28.586  0.00  0.00    +0.135 A 
ATOM     17  C   UNL     1       5.826   4.825  28.259  0.00  0.00    +0.091 A 
ATOM     18  C   UNL     1       6.518   5.229  27.122  0.00  0.00    +0.124 A 
ATOM     19  C   UNL     1       6.430   1.074  28.069  0.00  0.00    +0.238 A 
ATOM     20  O   UNL     1       5.816   0.659  29.046  0.00  0.00    -0.283 OA
ATOM     21  C   UNL     1       7.184   4.296  26.332  0.00  0.00    +0.092 A 
ATOM     22  C   UNL     1       7.096   0.125  27.068  0.00  0.00    +0.214 A 
BRANCH  12  24
ATOM     23  C   UNL     1       8.602   0.764  23.678  0.00  0.00    +0.015 A 
ATOM     24  C   UNL     1       8.494   0.039  24.899  0.00  0.00    +0.025 A 
ATOM     25  C   UNL     1       9.082  -1.235  24.899  0.00  0.00    +0.060 A 
ATOM     26  C   UNL     1       9.703  -1.740  23.751  0.00  0.00    +0.159 A 
ATOM     27  C   UNL     1       9.735  -1.028  22.563  0.00  0.00    +0.158 A 
ATOM     28  C   UNL     1       9.196   0.243  22.519  0.00  0.00    +0.050 A 
BRANCH  26  29
ATOM     29  O   UNL     1      10.292  -2.976  23.803  0.00  0.00    -0.503 OA
ATOM     30  H   UNL     1      11.186  -2.809  24.167  0.00  0.00    +0.292 HD
ENDBRANCH  26  29
BRANCH  27  31
ATOM     31  O   UNL     1      10.285  -1.621  21.465  0.00  0.00    -0.503 OA
ATOM     32  H   UNL     1       9.915  -2.517  21.392  0.00  0.00    +0.292 HD
ENDBRANCH  27  31
ENDBRANCH  12  24
BRANCH  18  33
ATOM     33  O   UNL     1       6.575   6.542  26.745  0.00  0.00    -0.507 OA
ATOM     34  H   UNL     1       5.838   6.720  26.136  0.00  0.00    +0.292 HD
ENDBRANCH  18  33
BRANCH  16  35
ATOM     35  O   UNL     1       5.081   3.138  29.705  0.00  0.00    -0.506 OA
ATOM     36  H   UNL     1       4.206   2.786  29.428  0.00  0.00    +0.292 HD
ENDBRANCH  16  35
ENDBRANCH  11  22
ENDBRANCH   1  11
BRANCH   3  37
ATOM     37  C   UNL     1       5.208  -4.455  28.967  0.00  0.00    +0.190 C 
BRANCH  37  38
ATOM     38  O   UNL     1       6.163  -5.445  29.342  0.00  0.00    -0.392 OA
ATOM     39  H   UNL     1       6.998  -5.222  28.891  0.00  0.00    +0.210 HD
ENDBRANCH  37  38
ENDBRANCH   3  37
BRANCH   4  40
ATOM     40  O   UNL     1       4.526  -5.024  26.091  0.00  0.00    -0.340 OA
BRANCH  40  41
ATOM     41  C   UNL     1       4.442  -6.381  25.642  0.00  0.00    +0.282 C 
ATOM     42  O   UNL     1       4.959  -6.490  24.303  0.00  0.00    -0.341 OA
ATOM     43  C   UNL     1       4.196  -5.747  23.337  0.00  0.00    +0.178 C 
ATOM     44  C   UNL     1       2.723  -6.179  23.315  0.00  0.00    +0.177 C 
ATOM     45  C   UNL     1       2.125  -6.201  24.729  0.00  0.00    +0.179 C 
ATOM     46  C   UNL     1       3.024  -6.978  25.702  0.00  0.00    +0.201 C 
BRANCH  44  47
ATOM     47  O   UNL     1       2.588  -7.501  22.762  0.00  0.00    -0.386 OA
ATOM     48  H   UNL     1       1.618  -7.656  22.735  0.00  0.00    +0.210 HD
ENDBRANCH  44  47
BRANCH  45  49
ATOM     49  O   UNL     1       0.817  -6.794  24.654  0.00  0.00    -0.386 OA
ATOM     50  H   UNL     1       0.941  -7.763  24.645  0.00  0.00    +0.210 HD
ENDBRANCH  45  49
BRANCH  46  51
ATOM     51  O   UNL     1       3.019  -8.380  25.376  0.00  0.00    -0.384 OA
ATOM     52  H   UNL     1       2.230  -8.539  24.815  0.00  0.00    +0.210 HD
ENDBRANCH  46  51
BRANCH  43  53
ATOM     53  C   UNL     1       4.873  -5.960  21.975  0.00  0.00    +0.190 C 
BRANCH  53  54
ATOM     54  O   UNL     1       5.563  -4.769  21.588  0.00  0.00    -0.392 OA
ATOM     55  H   UNL     1       6.509  -4.963  21.733  0.00  0.00    +0.210 HD
ENDBRANCH  53  54
ENDBRANCH  43  53
ENDBRANCH  40  41
ENDBRANCH   4  40
TORSDOF 18
ENDMDL
MODEL 8
REMARK VINA RESULT:      -6.5      3.357      6.891
REMARK  Name = 
REMARK  18 active torsions:
REMARK  status: ('A' for Active; 'I' for Inactive)
REMARK    1  A    between atoms: C_3  and  O_49
REMARK    2  A    between atoms: C_4  and  O_48
REMARK    3  A    between atoms: C_6  and  C_7
REMARK    4  A    between atoms: C_8  and  O_20
REMARK    5  A    between atoms: C_12  and  O_19
REMARK    6  A    between atoms: C_14  and  O_18
REMARK    7  A    between atoms: O_20  and  C_21
REMARK    8  A    between atoms: C_23  and  O_47
REMARK    9  A    between atoms: C_24  and  O_46
REMARK   10  A    between atoms: C_25  and  O_31
REMARK   11  A    between atoms: C_27  and  C_29
REMARK   12  A    between atoms: C_29  and  O_30
REMARK   13  A    between atoms: O_31  and  C_32
REMARK   14  A    between atoms: C_34  and  O_45
REMARK   15  A    between atoms: C_36  and  O_44
REMARK   16  A    between atoms: C_37  and  O_43
REMARK   17  A    between atoms: C_39  and  C_41
REMARK   18  A    between atoms: C_41  and  O_42
REMARK                            x       y       z     vdW  Elec       q    Type
REMARK                         _______ _______ _______ _____ _____    ______ ____
ROOT
ATOM      1  C   UNL     1       6.130   1.070  24.695  0.00  0.00    +0.340 C 
ATOM      2  O   UNL     1       6.447   0.415  25.952  0.00  0.00    -0.331 OA
ATOM      3  C   UNL     1       7.869   0.441  26.235  0.00  0.00    +0.179 C 
ATOM      4  C   UNL     1       8.671  -0.327  25.147  0.00  0.00    +0.184 C 
ATOM      5  C   UNL     1       8.350   0.392  23.817  0.00  0.00    +0.180 C 
ATOM      6  C   UNL     1       6.833   0.266  23.571  0.00  0.00    +0.214 C 
ENDROOT
BRANCH   5   7
ATOM      7  O   UNL     1       9.241  -0.026  22.785  0.00  0.00    -0.386 OA
ATOM      8  H   UNL     1      10.095   0.427  22.856  0.00  0.00    +0.210 HD
ENDBRANCH   5   7
BRANCH   6   9
ATOM      9  O   UNL     1       6.460   0.617  22.244  0.00  0.00    -0.383 OA
ATOM     10  H   UNL     1       5.550   0.321  22.079  0.00  0.00    +0.210 HD
ENDBRANCH   6   9
BRANCH   1  11
ATOM     11  O   UNL     1       6.545   2.438  24.873  0.00  0.00    -0.453 OA
BRANCH  11  22
ATOM     12  C   UNL     1       6.295   4.752  24.211  0.00  0.00    +0.181 A 
ATOM     13  O   UNL     1       5.541   5.716  23.528  0.00  0.00    -0.451 OA
ATOM     14  C   UNL     1       4.331   5.407  22.982  0.00  0.00    +0.147 A 
ATOM     15  C   UNL     1       3.665   4.238  23.277  0.00  0.00    +0.109 A 
ATOM     16  C   UNL     1       2.383   4.027  22.749  0.00  0.00    +0.135 A 
ATOM     17  C   UNL     1       1.782   4.983  21.922  0.00  0.00    +0.091 A 
ATOM     18  C   UNL     1       2.482   6.143  21.612  0.00  0.00    +0.124 A 
ATOM     19  C   UNL     1       4.363   3.253  24.117  0.00  0.00    +0.238 A 
ATOM     20  O   UNL     1       3.801   2.201  24.404  0.00  0.00    -0.283 OA
ATOM     21  C   UNL     1       3.755   6.360  22.131  0.00  0.00    +0.092 A 
ATOM     22  C   UNL     1       5.808   3.540  24.535  0.00  0.00    +0.214 A 
BRANCH  12  24
ATOM     23  C   UNL     1       7.917   6.163  25.536  0.00  0.00    +0.015 A 
ATOM     24  C   UNL     1       7.693   5.301  24.425  0.00  0.00    +0.025 A 
ATOM     25  C   UNL     1       8.821   5.026  23.637  0.00  0.00    +0.060 A 
ATOM     26  C   UNL     1      10.063   5.599  23.935  0.00  0.00    +0.159 A 
ATOM     27  C   UNL     1      10.227   6.482  24.989  0.00  0.00    +0.158 A 
ATOM     28  C   UNL     1       9.154   6.762  25.814  0.00  0.00    +0.050 A 
BRANCH  26  29
ATOM     29  O   UNL     1      11.145   5.281  23.158  0.00  0.00    -0.503 OA
ATOM     30  H   UNL     1      10.761   5.006  22.299  0.00  0.00    +0.292 HD
ENDBRANCH  26  29
BRANCH  27  31
ATOM     31  O   UNL     1      11.448   7.063  25.166  0.00  0.00    -0.503 OA
ATOM     32  H   UNL     1      11.304   7.993  25.409  0.00  0.00    +0.292 HD
ENDBRANCH  27  31
ENDBRANCH  12  24
BRANCH  18  33
ATOM     33  O   UNL     1       1.951   7.107  20.800  0.00  0.00    -0.507 OA
ATOM     34  H   UNL     1       2.649   7.429  20.205  0.00  0.00    +0.292 HD
ENDBRANCH  18  33
BRANCH  16  35
ATOM     35  O   UNL     1       1.646   2.903  22.996  0.00  0.00    -0.506 OA
ATOM     36  H   UNL     1       0.935   3.129  23.636  0.00  0.00    +0.292 HD
ENDBRANCH  16  35
ENDBRANCH  11  22
ENDBRANCH   1  11
BRANCH   3  37
ATOM     37  C   UNL     1       8.095  -0.051  27.663  0.00  0.00    +0.190 C 
BRANCH  37  38
ATOM     38  O   UNL     1       9.450  -0.460  27.838  0.00  0.00    -0.392 OA
ATOM     39  H   UNL     1       9.543  -0.751  28.763  0.00  0.00    +0.210 HD
ENDBRANCH  37  38
ENDBRANCH   3  37
BRANCH   4  40
ATOM     40  O   UNL     1       8.272  -1.721  25.165  0.00  0.00    -0.340 OA
BRANCH  40  41
ATOM     41  C   UNL     1       9.134  -2.673  24.533  0.00  0.00    +0.282 C 
ATOM     42  O   UNL     1       8.627  -3.003  23.226  0.00  0.00    -0.341 OA
ATOM     43  C   UNL     1       7.344  -3.651  23.260  0.00  0.00    +0.178 C 
ATOM     44  C   UNL     1       7.373  -4.937  24.098  0.00  0.00    +0.177 C 
ATOM     45  C   UNL     1       8.009  -4.694  25.474  0.00  0.00    +0.179 C 
ATOM     46  C   UNL     1       9.353  -3.962  25.346  0.00  0.00    +0.201 C 
BRANCH  44  47
ATOM     47  O   UNL     1       8.140  -5.960  23.435  0.00  0.00    -0.386 OA
ATOM     48  H   UNL     1       7.481  -6.442  22.890  0.00  0.00    +0.210 HD
ENDBRANCH  44  47
BRANCH  45  49
ATOM     49  O   UNL     1       8.177  -5.968  26.121  0.00  0.00    -0.386 OA
ATOM     50  H   UNL     1       7.363  -6.483  25.958  0.00  0.00    +0.210 HD
ENDBRANCH  45  49
BRANCH  46  51
ATOM     51  O   UNL     1      10.333  -4.821  24.734  0.00  0.00    -0.384 OA
ATOM     52  H   UNL     1      10.507  -5.551  25.366  0.00  0.00    +0.210 HD
ENDBRANCH  46  51
BRANCH  43  53
ATOM     53  C   UNL     1       6.946  -3.928  21.803  0.00  0.00    +0.190 C 
BRANCH  53  54
ATOM     54  O   UNL     1       5.531  -3.782  21.654  0.00  0.00    -0.392 OA
ATOM     55  H   UNL     1       5.276  -4.445  20.984  0.00  0.00    +0.210 HD
ENDBRANCH  53  54
ENDBRANCH  43  53
ENDBRANCH  40  41
ENDBRANCH   4  40
TORSDOF 18
ENDMDL
MODEL 9
REMARK VINA RESULT:      -6.4      2.292      8.729
REMARK  Name = 
REMARK  18 active torsions:
REMARK  status: ('A' for Active; 'I' for Inactive)
REMARK    1  A    between atoms: C_3  and  O_49
REMARK    2  A    between atoms: C_4  and  O_48
REMARK    3  A    between atoms: C_6  and  C_7
REMARK    4  A    between atoms: C_8  and  O_20
REMARK    5  A    between atoms: C_12  and  O_19
REMARK    6  A    between atoms: C_14  and  O_18
REMARK    7  A    between atoms: O_20  and  C_21
REMARK    8  A    between atoms: C_23  and  O_47
REMARK    9  A    between atoms: C_24  and  O_46
REMARK   10  A    between atoms: C_25  and  O_31
REMARK   11  A    between atoms: C_27  and  C_29
REMARK   12  A    between atoms: C_29  and  O_30
REMARK   13  A    between atoms: O_31  and  C_32
REMARK   14  A    between atoms: C_34  and  O_45
REMARK   15  A    between atoms: C_36  and  O_44
REMARK   16  A    between atoms: C_37  and  O_43
REMARK   17  A    between atoms: C_39  and  C_41
REMARK   18  A    between atoms: C_41  and  O_42
REMARK                            x       y       z     vdW  Elec       q    Type
REMARK                         _______ _______ _______ _____ _____    ______ ____
ROOT
ATOM      1  C   UNL     1       6.621  -0.232  25.433  0.00  0.00    +0.340 C 
ATOM      2  O   UNL     1       7.036   0.363  26.691  0.00  0.00    -0.331 OA
ATOM      3  C   UNL     1       5.957   1.090  27.332  0.00  0.00    +0.179 C 
ATOM      4  C   UNL     1       5.475   2.273  26.446  0.00  0.00    +0.184 C 
ATOM      5  C   UNL     1       5.009   1.629  25.120  0.00  0.00    +0.180 C 
ATOM      6  C   UNL     1       6.229   0.930  24.485  0.00  0.00    +0.214 C 
ENDROOT
BRANCH   5   7
ATOM      7  O   UNL     1       4.277   2.564  24.331  0.00  0.00    -0.386 OA
ATOM      8  H   UNL     1       3.677   2.110  23.720  0.00  0.00    +0.210 HD
ENDBRANCH   5   7
BRANCH   6   9
ATOM      9  O   UNL     1       6.009   0.565  23.128  0.00  0.00    -0.383 OA
ATOM     10  H   UNL     1       5.620  -0.323  23.097  0.00  0.00    +0.210 HD
ENDBRANCH   6   9
BRANCH   1  11
ATOM     11  O   UNL     1       5.579  -1.162  25.788  0.00  0.00    -0.453 OA
BRANCH  11  22
ATOM     12  C   UNL     1       5.966  -2.975  24.233  0.00  0.00    +0.181 A 
ATOM     13  O   UNL     1       5.600  -4.251  23.782  0.00  0.00    -0.451 OA
ATOM     14  C   UNL     1       4.507  -4.889  24.287  0.00  0.00    +0.147 A 
ATOM     15  C   UNL     1       3.565  -4.243  25.058  0.00  0.00    +0.109 A 
ATOM     16  C   UNL     1       2.420  -4.941  25.468  0.00  0.00    +0.135 A 
ATOM     17  C   UNL     1       2.230  -6.281  25.113  0.00  0.00    +0.091 A 
ATOM     18  C   UNL     1       3.205  -6.924  24.359  0.00  0.00    +0.124 A 
ATOM     19  C   UNL     1       3.838  -2.848  25.435  0.00  0.00    +0.238 A 
ATOM     20  O   UNL     1       3.022  -2.238  26.118  0.00  0.00    -0.283 OA
ATOM     21  C   UNL     1       4.346  -6.239  23.948  0.00  0.00    +0.092 A 
ATOM     22  C   UNL     1       5.179  -2.229  25.031  0.00  0.00    +0.214 A 
BRANCH  12  24
ATOM     23  C   UNL     1       8.474  -3.132  24.484  0.00  0.00    +0.015 A 
ATOM     24  C   UNL     1       7.362  -2.669  23.724  0.00  0.00    +0.025 A 
ATOM     25  C   UNL     1       7.681  -1.980  22.544  0.00  0.00    +0.060 A 
ATOM     26  C   UNL     1       9.015  -1.756  22.181  0.00  0.00    +0.159 A 
ATOM     27  C   UNL     1      10.069  -2.169  22.979  0.00  0.00    +0.158 A 
ATOM     28  C   UNL     1       9.808  -2.878  24.136  0.00  0.00    +0.050 A 
BRANCH  26  29
ATOM     29  O   UNL     1       9.284  -1.105  21.007  0.00  0.00    -0.503 OA
ATOM     30  H   UNL     1      10.014  -1.617  20.602  0.00  0.00    +0.292 HD
ENDBRANCH  26  29
BRANCH  27  31
ATOM     31  O   UNL     1      11.338  -1.842  22.600  0.00  0.00    -0.503 OA
ATOM     32  H   UNL     1      11.289  -1.415  21.728  0.00  0.00    +0.292 HD
ENDBRANCH  27  31
ENDBRANCH  12  24
BRANCH  18  33
ATOM     33  O   UNL     1       3.080  -8.235  23.992  0.00  0.00    -0.507 OA
ATOM     34  H   UNL     1       2.582  -8.703  24.683  0.00  0.00    +0.292 HD
ENDBRANCH  18  33
BRANCH  16  35
ATOM     35  O   UNL     1       1.431  -4.378  26.225  0.00  0.00    -0.506 OA
ATOM     36  H   UNL     1       1.808  -4.125  27.096  0.00  0.00    +0.292 HD
ENDBRANCH  16  35
ENDBRANCH  11  22
ENDBRANCH   1  11
BRANCH   3  37
ATOM     37  C   UNL     1       6.397   1.482  28.741  0.00  0.00    +0.190 C 
BRANCH  37  38
ATOM     38  O   UNL     1       7.558   2.308  28.685  0.00  0.00    -0.392 OA
ATOM     39  H   UNL     1       7.306   3.123  28.212  0.00  0.00    +0.210 HD
ENDBRANCH  37  38
ENDBRANCH   3  37
BRANCH   4  40
ATOM     40  O   UNL     1       6.567   3.213  26.284  0.00  0.00    -0.340 OA
BRANCH  40  41
ATOM     41  C   UNL     1       6.243   4.560  25.923  0.00  0.00    +0.282 C 
ATOM     42  O   UNL     1       6.075   4.661  24.497  0.00  0.00    -0.341 OA
ATOM     43  C   UNL     1       7.277   4.373  23.761  0.00  0.00    +0.178 C 
ATOM     44  C   UNL     1       8.434   5.296  24.170  0.00  0.00    +0.177 C 
ATOM     45  C   UNL     1       8.606   5.335  25.696  0.00  0.00    +0.179 C 
ATOM     46  C   UNL     1       7.268   5.605  26.401  0.00  0.00    +0.201 C 
BRANCH  44  47
ATOM     47  O   UNL     1       8.195   6.642  23.722  0.00  0.00    -0.386 OA
ATOM     48  H   UNL     1       7.518   6.989  24.343  0.00  0.00    +0.210 HD
ENDBRANCH  44  47
BRANCH  45  49
ATOM     49  O   UNL     1       9.569   6.355  26.012  0.00  0.00    -0.386 OA
ATOM     50  H   UNL     1      10.009   6.088  26.842  0.00  0.00    +0.210 HD
ENDBRANCH  45  49
BRANCH  46  51
ATOM     51  O   UNL     1       6.827   6.948  26.135  0.00  0.00    -0.384 OA
ATOM     52  H   UNL     1       7.628   7.478  25.936  0.00  0.00    +0.210 HD
ENDBRANCH  46  51
BRANCH  43  53
ATOM     53  C   UNL     1       6.932   4.517  22.271  0.00  0.00    +0.190 C 
BRANCH  53  54
ATOM     54  O   UNL     1       6.000   3.500  21.892  0.00  0.00    -0.392 OA
ATOM     55  H   UNL     1       5.278   3.973  21.436  0.00  0.00    +0.210 HD
ENDBRANCH  53  54
ENDBRANCH  43  53
ENDBRANCH  40  41
ENDBRANCH   4  40
TORSDOF 18
ENDMDL
