MODEL 1
REMARK VINA RESULT:      -7.2      0.000      0.000
REMARK  Name = 
REMARK  14 active torsions:
REMARK  status: ('A' for Active; 'I' for Inactive)
REMARK    1  A    between atoms: C_1  and  C_2
REMARK    2  A    between atoms: C_2  and  O_4
REMARK    3  A    between atoms: O_4  and  C_5
REMARK    4  A    between atoms: C_6  and  O_39
REMARK    5  A    between atoms: C_8  and  O_17
REMARK    6  A    between atoms: C_11  and  C_15
REMARK    7  A    between atoms: C_12  and  O_14
REMARK    8  A    between atoms: C_15  and  O_16
REMARK    9  A    between atoms: O_17  and  C_18
REMARK   10  A    between atoms: C_19  and  C_31
REMARK   11  A    between atoms: C_23  and  O_30
REMARK   12  A    between atoms: C_25  and  O_29
REMARK   13  A    between atoms: C_33  and  O_38
REMARK   14  A    between atoms: C_34  and  O_37
REMARK                            x       y       z     vdW  Elec       q    Type
REMARK                         _______ _______ _______ _____ _____    ______ ____
ROOT
ATOM      1  C   UNL     1       7.240  -4.270  24.545  0.00  0.00    +0.214 A 
ATOM      2  C   UNL     1       7.876  -3.475  23.425  0.00  0.00    +0.238 A 
ATOM      3  O   UNL     1       7.747  -3.774  22.246  0.00  0.00    -0.283 OA
ATOM      4  C   UNL     1       8.632  -2.259  23.790  0.00  0.00    +0.109 A 
ATOM      5  C   UNL     1       8.540  -1.810  25.100  0.00  0.00    +0.147 A 
ATOM      6  C   UNL     1       9.215  -0.662  25.521  0.00  0.00    +0.092 A 
ATOM      7  C   UNL     1       9.983   0.048  24.606  0.00  0.00    +0.124 A 
ATOM      8  C   UNL     1      10.075  -0.366  23.284  0.00  0.00    +0.091 A 
ATOM      9  O   UNL     1       7.779  -2.435  26.045  0.00  0.00    -0.451 OA
ATOM     10  C   UNL     1       9.402  -1.521  22.876  0.00  0.00    +0.135 A 
ATOM     11  C   UNL     1       7.217  -3.667  25.753  0.00  0.00    +0.181 A 
ENDROOT
BRANCH  11  12
ATOM     12  C   UNL     1       6.591  -4.232  26.964  0.00  0.00    +0.025 A 
ATOM     13  C   UNL     1       5.422  -3.638  27.468  0.00  0.00    +0.015 A 
ATOM     14  C   UNL     1       4.722  -4.226  28.524  0.00  0.00    +0.050 A 
ATOM     15  C   UNL     1       5.195  -5.407  29.074  0.00  0.00    +0.158 A 
ATOM     16  C   UNL     1       6.350  -6.011  28.580  0.00  0.00    +0.159 A 
ATOM     17  C   UNL     1       7.052  -5.436  27.522  0.00  0.00    +0.060 A 
BRANCH  15  18
ATOM     18  O   UNL     1       4.512  -5.981  30.108  0.00  0.00    -0.503 OA
ATOM     19  H   UNL     1       5.189  -6.479  30.605  0.00  0.00    +0.292 HD
ENDBRANCH  15  18
BRANCH  16  20
ATOM     20  O   UNL     1       6.743  -7.185  29.164  0.00  0.00    -0.503 OA
ATOM     21  H   UNL     1       7.300  -6.970  29.932  0.00  0.00    +0.292 HD
ENDBRANCH  16  20
ENDBRANCH  11  12
BRANCH   7  22
ATOM     22  O   UNL     1      10.668   1.171  24.965  0.00  0.00    -0.507 OA
ATOM     23  H   UNL     1      10.241   1.571  25.742  0.00  0.00    +0.292 HD
ENDBRANCH   7  22
BRANCH  10  24
ATOM     24  O   UNL     1       9.520  -1.909  21.570  0.00  0.00    -0.506 OA
ATOM     25  H   UNL     1       8.977  -2.698  21.410  0.00  0.00    +0.292 HD
ENDBRANCH  10  24
BRANCH   1  26
ATOM     26  O   UNL     1       6.675  -5.543  24.368  0.00  0.00    -0.453 OA
BRANCH  26  31
ATOM     27  C   UNL     1       3.130  -6.172  23.084  0.00  0.00    +0.242 C 
ATOM     28  C   UNL     1       2.656  -6.987  24.298  0.00  0.00    +0.189 C 
ATOM     29  C   UNL     1       3.374  -6.511  25.581  0.00  0.00    +0.180 C 
ATOM     30  O   UNL     1       4.812  -6.582  25.417  0.00  0.00    -0.331 OA
ATOM     31  C   UNL     1       5.239  -5.662  24.370  0.00  0.00    +0.341 C 
ATOM     32  C   UNL     1       4.678  -6.181  23.016  0.00  0.00    +0.226 C 
BRANCH  28  33
ATOM     33  O   UNL     1       2.914  -8.366  24.012  0.00  0.00    -0.385 OA
ATOM     34  H   UNL     1       3.236  -8.455  23.099  0.00  0.00    +0.210 HD
ENDBRANCH  28  33
BRANCH  32  35
ATOM     35  O   UNL     1       5.171  -5.458  21.879  0.00  0.00    -0.382 OA
ATOM     36  H   UNL     1       5.780  -4.759  22.198  0.00  0.00    +0.210 HD
ENDBRANCH  32  35
BRANCH  27  37
ATOM     37  O   UNL     1       2.616  -4.824  23.216  0.00  0.00    -0.456 OA
BRANCH  37  39
ATOM     38  C   UNL     1       0.921  -3.968  24.615  0.00  0.00    +0.136 C 
ATOM     39  C   UNL     1       1.265  -4.716  23.364  0.00  0.00    +0.304 C 
ATOM     40  O   UNL     1       0.443  -5.208  22.601  0.00  0.00    -0.251 OA
ENDBRANCH  37  39
ENDBRANCH  27  37
BRANCH  29  41
ATOM     41  C   UNL     1       2.961  -7.346  26.799  0.00  0.00    +0.190 C 
BRANCH  41  42
ATOM     42  O   UNL     1       1.842  -8.172  26.491  0.00  0.00    -0.392 OA
ATOM     43  H   UNL     1       2.183  -9.087  26.477  0.00  0.00    +0.210 HD
ENDBRANCH  41  42
ENDBRANCH  29  41
ENDBRANCH  26  31
ENDBRANCH   1  26
TORSDOF 13
ENDMDL
MODEL 2
REMARK VINA RESULT:      -6.7      2.331      5.165
REMARK  Name = 
REMARK  14 active torsions:
REMARK  status: ('A' for Active; 'I' for Inactive)
REMARK    1  A    between atoms: C_1  and  C_2
REMARK    2  A    between atoms: C_2  and  O_4
REMARK    3  A    between atoms: O_4  and  C_5
REMARK    4  A    between atoms: C_6  and  O_39
REMARK    5  A    between atoms: C_8  and  O_17
REMARK    6  A    between atoms: C_11  and  C_15
REMARK    7  A    between atoms: C_12  and  O_14
REMARK    8  A    between atoms: C_15  and  O_16
REMARK    9  A    between atoms: O_17  and  C_18
REMARK   10  A    between atoms: C_19  and  C_31
REMARK   11  A    between atoms: C_23  and  O_30
REMARK   12  A    between atoms: C_25  and  O_29
REMARK   13  A    between atoms: C_33  and  O_38
REMARK   14  A    between atoms: C_34  and  O_37
REMARK                            x       y       z     vdW  Elec       q    Type
REMARK                         _______ _______ _______ _____ _____    ______ ____
ROOT
ATOM      1  C   UNL     1       6.105  -1.001  24.507  0.00  0.00    +0.214 A 
ATOM      2  C   UNL     1       6.343   0.374  25.093  0.00  0.00    +0.238 A 
ATOM      3  O   UNL     1       5.590   0.885  25.910  0.00  0.00    -0.283 OA
ATOM      4  C   UNL     1       7.574   1.087  24.690  0.00  0.00    +0.109 A 
ATOM      5  C   UNL     1       8.526   0.377  23.972  0.00  0.00    +0.147 A 
ATOM      6  C   UNL     1       9.720   0.975  23.565  0.00  0.00    +0.092 A 
ATOM      7  C   UNL     1       9.962   2.303  23.897  0.00  0.00    +0.124 A 
ATOM      8  C   UNL     1       9.037   3.030  24.634  0.00  0.00    +0.091 A 
ATOM      9  O   UNL     1       8.373  -0.938  23.639  0.00  0.00    -0.451 OA
ATOM     10  C   UNL     1       7.842   2.423  25.029  0.00  0.00    +0.135 A 
ATOM     11  C   UNL     1       7.152  -1.553  23.858  0.00  0.00    +0.181 A 
ENDROOT
BRANCH  11  12
ATOM     12  C   UNL     1       7.159  -2.906  23.268  0.00  0.00    +0.025 A 
ATOM     13  C   UNL     1       7.738  -3.962  23.992  0.00  0.00    +0.015 A 
ATOM     14  C   UNL     1       7.638  -5.278  23.534  0.00  0.00    +0.050 A 
ATOM     15  C   UNL     1       6.961  -5.533  22.352  0.00  0.00    +0.158 A 
ATOM     16  C   UNL     1       6.376  -4.496  21.627  0.00  0.00    +0.159 A 
ATOM     17  C   UNL     1       6.464  -3.181  22.079  0.00  0.00    +0.060 A 
BRANCH  15  18
ATOM     18  O   UNL     1       6.866  -6.820  21.904  0.00  0.00    -0.503 OA
ATOM     19  H   UNL     1       5.906  -6.974  21.800  0.00  0.00    +0.292 HD
ENDBRANCH  15  18
BRANCH  16  20
ATOM     20  O   UNL     1       5.709  -4.830  20.480  0.00  0.00    -0.503 OA
ATOM     21  H   UNL     1       6.288  -5.403  19.949  0.00  0.00    +0.292 HD
ENDBRANCH  16  20
ENDBRANCH  11  12
BRANCH   7  22
ATOM     22  O   UNL     1      11.108   2.938  23.518  0.00  0.00    -0.507 OA
ATOM     23  H   UNL     1      11.611   3.190  24.312  0.00  0.00    +0.292 HD
ENDBRANCH   7  22
BRANCH  10  24
ATOM     24  O   UNL     1       6.945   3.168  25.745  0.00  0.00    -0.506 OA
ATOM     25  H   UNL     1       6.152   3.332  25.211  0.00  0.00    +0.292 HD
ENDBRANCH  10  24
BRANCH   1  26
ATOM     26  O   UNL     1       4.893  -1.699  24.636  0.00  0.00    -0.453 OA
BRANCH  26  31
ATOM     27  C   UNL     1       4.424  -4.225  27.466  0.00  0.00    +0.242 C 
ATOM     28  C   UNL     1       3.798  -5.330  26.600  0.00  0.00    +0.189 C 
ATOM     29  C   UNL     1       4.355  -5.268  25.160  0.00  0.00    +0.180 C 
ATOM     30  O   UNL     1       4.144  -3.954  24.587  0.00  0.00    -0.331 OA
ATOM     31  C   UNL     1       4.897  -2.957  25.338  0.00  0.00    +0.341 C 
ATOM     32  C   UNL     1       4.275  -2.854  26.759  0.00  0.00    +0.226 C 
BRANCH  28  33
ATOM     33  O   UNL     1       2.378  -5.148  26.639  0.00  0.00    -0.385 OA
ATOM     34  H   UNL     1       2.097  -4.968  27.552  0.00  0.00    +0.210 HD
ENDBRANCH  28  33
BRANCH  32  35
ATOM     35  O   UNL     1       4.818  -1.782  27.543  0.00  0.00    -0.382 OA
ATOM     36  H   UNL     1       5.768  -1.687  27.320  0.00  0.00    +0.210 HD
ENDBRANCH  32  35
BRANCH  27  37
ATOM     37  O   UNL     1       5.817  -4.557  27.684  0.00  0.00    -0.456 OA
BRANCH  37  39
ATOM     38  C   UNL     1       5.229  -5.156  29.887  0.00  0.00    +0.136 C 
ATOM     39  C   UNL     1       6.064  -5.454  28.681  0.00  0.00    +0.304 C 
ATOM     40  O   UNL     1       6.894  -6.352  28.615  0.00  0.00    -0.251 OA
ENDBRANCH  37  39
ENDBRANCH  27  37
BRANCH  29  41
ATOM     41  C   UNL     1       3.704  -6.324  24.259  0.00  0.00    +0.190 C 
BRANCH  41  42
ATOM     42  O   UNL     1       4.604  -7.400  24.008  0.00  0.00    -0.392 OA
ATOM     43  H   UNL     1       5.265  -7.051  23.381  0.00  0.00    +0.210 HD
ENDBRANCH  41  42
ENDBRANCH  29  41
ENDBRANCH  26  31
ENDBRANCH   1  26
TORSDOF 13
ENDMDL
MODEL 3
REMARK VINA RESULT:      -6.7      2.848      5.144
REMARK  Name = 
REMARK  14 active torsions:
REMARK  status: ('A' for Active; 'I' for Inactive)
REMARK    1  A    between atoms: C_1  and  C_2
REMARK    2  A    between atoms: C_2  and  O_4
REMARK    3  A    between atoms: O_4  and  C_5
REMARK    4  A    between atoms: C_6  and  O_39
REMARK    5  A    between atoms: C_8  and  O_17
REMARK    6  A    between atoms: C_11  and  C_15
REMARK    7  A    between atoms: C_12  and  O_14
REMARK    8  A    between atoms: C_15  and  O_16
REMARK    9  A    between atoms: O_17  and  C_18
REMARK   10  A    between atoms: C_19  and  C_31
REMARK   11  A    between atoms: C_23  and  O_30
REMARK   12  A    between atoms: C_25  and  O_29
REMARK   13  A    between atoms: C_33  and  O_38
REMARK   14  A    between atoms: C_34  and  O_37
REMARK                            x       y       z     vdW  Elec       q    Type
REMARK                         _______ _______ _______ _____ _____    ______ ____
ROOT
ATOM      1  C   UNL     1       8.574  -0.023  25.619  0.00  0.00    +0.214 A 
ATOM      2  C   UNL     1       9.518   0.838  24.808  0.00  0.00    +0.238 A 
ATOM      3  O   UNL     1      10.586   0.425  24.377  0.00  0.00    -0.283 OA
ATOM      4  C   UNL     1       9.087   2.215  24.488  0.00  0.00    +0.109 A 
ATOM      5  C   UNL     1       7.772   2.562  24.767  0.00  0.00    +0.147 A 
ATOM      6  C   UNL     1       7.284   3.838  24.484  0.00  0.00    +0.092 A 
ATOM      7  C   UNL     1       8.130   4.774  23.899  0.00  0.00    +0.124 A 
ATOM      8  C   UNL     1       9.443   4.448  23.589  0.00  0.00    +0.091 A 
ATOM      9  O   UNL     1       6.875   1.686  25.309  0.00  0.00    -0.451 OA
ATOM     10  C   UNL     1       9.923   3.169  23.885  0.00  0.00    +0.135 A 
ATOM     11  C   UNL     1       7.323   0.460  25.772  0.00  0.00    +0.181 A 
ENDROOT
BRANCH  11  12
ATOM     12  C   UNL     1       6.228  -0.243  26.468  0.00  0.00    +0.025 A 
ATOM     13  C   UNL     1       6.003   0.024  27.829  0.00  0.00    +0.015 A 
ATOM     14  C   UNL     1       4.893  -0.511  28.486  0.00  0.00    +0.050 A 
ATOM     15  C   UNL     1       4.012  -1.314  27.780  0.00  0.00    +0.158 A 
ATOM     16  C   UNL     1       4.219  -1.582  26.428  0.00  0.00    +0.159 A 
ATOM     17  C   UNL     1       5.320  -1.048  25.762  0.00  0.00    +0.060 A 
BRANCH  15  18
ATOM     18  O   UNL     1       2.927  -1.838  28.424  0.00  0.00    -0.503 OA
ATOM     19  H   UNL     1       3.125  -2.792  28.502  0.00  0.00    +0.292 HD
ENDBRANCH  15  18
BRANCH  16  20
ATOM     20  O   UNL     1       3.294  -2.369  25.796  0.00  0.00    -0.503 OA
ATOM     21  H   UNL     1       2.769  -2.825  26.476  0.00  0.00    +0.292 HD
ENDBRANCH  16  20
ENDBRANCH  11  12
BRANCH   7  22
ATOM     22  O   UNL     1       7.707   6.037  23.608  0.00  0.00    -0.507 OA
ATOM     23  H   UNL     1       8.172   6.671  24.182  0.00  0.00    +0.292 HD
ENDBRANCH   7  22
BRANCH  10  24
ATOM     24  O   UNL     1      11.224   2.880  23.577  0.00  0.00    -0.506 OA
ATOM     25  H   UNL     1      11.535   3.472  22.873  0.00  0.00    +0.292 HD
ENDBRANCH  10  24
BRANCH   1  26
ATOM     26  O   UNL     1       8.936  -1.265  26.168  0.00  0.00    -0.453 OA
BRANCH  26  31
ATOM     27  C   UNL     1       8.529  -4.465  24.118  0.00  0.00    +0.242 C 
ATOM     28  C   UNL     1       7.881  -5.297  25.236  0.00  0.00    +0.189 C 
ATOM     29  C   UNL     1       7.055  -4.389  26.175  0.00  0.00    +0.180 C 
ATOM     30  O   UNL     1       7.878  -3.323  26.708  0.00  0.00    -0.331 OA
ATOM     31  C   UNL     1       8.329  -2.455  25.628  0.00  0.00    +0.341 C 
ATOM     32  C   UNL     1       9.302  -3.271  24.731  0.00  0.00    +0.226 C 
BRANCH  28  33
ATOM     33  O   UNL     1       8.936  -5.974  25.929  0.00  0.00    -0.385 OA
ATOM     34  H   UNL     1       9.792  -5.591  25.673  0.00  0.00    +0.210 HD
ENDBRANCH  28  33
BRANCH  32  35
ATOM     35  O   UNL     1       9.953  -2.478  23.727  0.00  0.00    -0.382 OA
ATOM     36  H   UNL     1      10.849  -2.247  24.049  0.00  0.00    +0.210 HD
ENDBRANCH  32  35
BRANCH  27  37
ATOM     37  O   UNL     1       7.480  -4.012  23.227  0.00  0.00    -0.456 OA
BRANCH  37  39
ATOM     38  C   UNL     1       5.380  -4.883  22.600  0.00  0.00    +0.136 C 
ATOM     39  C   UNL     1       6.869  -4.982  22.488  0.00  0.00    +0.304 C 
ATOM     40  O   UNL     1       7.463  -5.848  21.857  0.00  0.00    -0.251 OA
ENDBRANCH  37  39
ENDBRANCH  27  37
BRANCH  29  41
ATOM     41  C   UNL     1       6.444  -5.186  27.334  0.00  0.00    +0.190 C 
BRANCH  41  42
ATOM     42  O   UNL     1       7.435  -5.979  27.981  0.00  0.00    -0.392 OA
ATOM     43  H   UNL     1       8.276  -5.497  27.865  0.00  0.00    +0.210 HD
ENDBRANCH  41  42
ENDBRANCH  29  41
ENDBRANCH  26  31
ENDBRANCH   1  26
TORSDOF 13
ENDMDL
MODEL 4
REMARK VINA RESULT:      -6.6      4.217      8.622
REMARK  Name = 
REMARK  14 active torsions:
REMARK  status: ('A' for Active; 'I' for Inactive)
REMARK    1  A    between atoms: C_1  and  C_2
REMARK    2  A    between atoms: C_2  and  O_4
REMARK    3  A    between atoms: O_4  and  C_5
REMARK    4  A    between atoms: C_6  and  O_39
REMARK    5  A    between atoms: C_8  and  O_17
REMARK    6  A    between atoms: C_11  and  C_15
REMARK    7  A    between atoms: C_12  and  O_14
REMARK    8  A    between atoms: C_15  and  O_16
REMARK    9  A    between atoms: O_17  and  C_18
REMARK   10  A    between atoms: C_19  and  C_31
REMARK   11  A    between atoms: C_23  and  O_30
REMARK   12  A    between atoms: C_25  and  O_29
REMARK   13  A    between atoms: C_33  and  O_38
REMARK   14  A    between atoms: C_34  and  O_37
REMARK                            x       y       z     vdW  Elec       q    Type
REMARK                         _______ _______ _______ _____ _____    ______ ____
ROOT
ATOM      1  C   UNL     1       6.355  -0.878  24.464  0.00  0.00    +0.214 A 
ATOM      2  C   UNL     1       5.318  -1.957  24.690  0.00  0.00    +0.238 A 
ATOM      3  O   UNL     1       4.330  -1.790  25.391  0.00  0.00    -0.283 OA
ATOM      4  C   UNL     1       5.498  -3.241  23.979  0.00  0.00    +0.109 A 
ATOM      5  C   UNL     1       6.479  -3.304  22.999  0.00  0.00    +0.147 A 
ATOM      6  C   UNL     1       6.704  -4.476  22.274  0.00  0.00    +0.092 A 
ATOM      7  C   UNL     1       5.920  -5.595  22.533  0.00  0.00    +0.124 A 
ATOM      8  C   UNL     1       4.916  -5.553  23.492  0.00  0.00    +0.091 A 
ATOM      9  O   UNL     1       7.264  -2.238  22.667  0.00  0.00    -0.451 OA
ATOM     10  C   UNL     1       4.706  -4.376  24.217  0.00  0.00    +0.135 A 
ATOM     11  C   UNL     1       7.219  -1.096  23.450  0.00  0.00    +0.181 A 
ENDROOT
BRANCH  11  12
ATOM     12  C   UNL     1       8.264  -0.149  23.016  0.00  0.00    +0.025 A 
ATOM     13  C   UNL     1       8.058   0.607  21.850  0.00  0.00    +0.015 A 
ATOM     14  C   UNL     1       8.956   1.613  21.485  0.00  0.00    +0.050 A 
ATOM     15  C   UNL     1      10.059   1.858  22.288  0.00  0.00    +0.158 A 
ATOM     16  C   UNL     1      10.272   1.120  23.451  0.00  0.00    +0.159 A 
ATOM     17  C   UNL     1       9.379   0.120  23.827  0.00  0.00    +0.060 A 
BRANCH  15  18
ATOM     18  O   UNL     1      10.937   2.841  21.929  0.00  0.00    -0.503 OA
ATOM     19  H   UNL     1      10.657   3.622  22.445  0.00  0.00    +0.292 HD
ENDBRANCH  15  18
BRANCH  16  20
ATOM     20  O   UNL     1      11.374   1.435  24.200  0.00  0.00    -0.503 OA
ATOM     21  H   UNL     1      11.975   0.670  24.190  0.00  0.00    +0.292 HD
ENDBRANCH  16  20
ENDBRANCH  11  12
BRANCH   7  22
ATOM     22  O   UNL     1       6.101  -6.767  21.860  0.00  0.00    -0.507 OA
ATOM     23  H   UNL     1       5.238  -7.100  21.559  0.00  0.00    +0.292 HD
ENDBRANCH   7  22
BRANCH  10  24
ATOM     24  O   UNL     1       3.718  -4.368  25.161  0.00  0.00    -0.506 OA
ATOM     25  H   UNL     1       4.109  -4.410  26.049  0.00  0.00    +0.292 HD
ENDBRANCH  10  24
BRANCH   1  26
ATOM     26  O   UNL     1       6.424   0.301  25.224  0.00  0.00    -0.453 OA
BRANCH  26  31
ATOM     27  C   UNL     1       4.145   3.347  24.853  0.00  0.00    +0.242 C 
ATOM     28  C   UNL     1       5.255   4.340  24.472  0.00  0.00    +0.189 C 
ATOM     29  C   UNL     1       6.385   3.617  23.705  0.00  0.00    +0.180 C 
ATOM     30  O   UNL     1       6.901   2.508  24.482  0.00  0.00    -0.331 OA
ATOM     31  C   UNL     1       5.859   1.506  24.672  0.00  0.00    +0.341 C 
ATOM     32  C   UNL     1       4.758   2.124  25.580  0.00  0.00    +0.226 C 
BRANCH  28  33
ATOM     33  O   UNL     1       5.722   4.941  25.684  0.00  0.00    -0.385 OA
ATOM     34  H   UNL     1       6.495   5.499  25.495  0.00  0.00    +0.210 HD
ENDBRANCH  28  33
BRANCH  32  35
ATOM     35  O   UNL     1       3.757   1.180  25.985  0.00  0.00    -0.382 OA
ATOM     36  H   UNL     1       2.941   1.674  26.213  0.00  0.00    +0.210 HD
ENDBRANCH  32  35
BRANCH  27  37
ATOM     37  O   UNL     1       3.459   2.950  23.640  0.00  0.00    -0.456 OA
BRANCH  37  39
ATOM     38  C   UNL     1       1.710   4.122  22.579  0.00  0.00    +0.136 C 
ATOM     39  C   UNL     1       2.108   3.138  23.633  0.00  0.00    +0.304 C 
ATOM     40  O   UNL     1       1.332   2.608  24.419  0.00  0.00    -0.251 OA
ENDBRANCH  37  39
ENDBRANCH  27  37
BRANCH  29  41
ATOM     41  C   UNL     1       7.533   4.573  23.362  0.00  0.00    +0.190 C 
BRANCH  41  42
ATOM     42  O   UNL     1       7.568   4.844  21.964  0.00  0.00    -0.392 OA
ATOM     43  H   UNL     1       6.917   4.237  21.561  0.00  0.00    +0.210 HD
ENDBRANCH  41  42
ENDBRANCH  29  41
ENDBRANCH  26  31
ENDBRANCH   1  26
TORSDOF 13
ENDMDL
MODEL 5
REMARK VINA RESULT:      -6.6      3.664      7.199
REMARK  Name = 
REMARK  14 active torsions:
REMARK  status: ('A' for Active; 'I' for Inactive)
REMARK    1  A    between atoms: C_1  and  C_2
REMARK    2  A    between atoms: C_2  and  O_4
REMARK    3  A    between atoms: O_4  and  C_5
REMARK    4  A    between atoms: C_6  and  O_39
REMARK    5  A    between atoms: C_8  and  O_17
REMARK    6  A    between atoms: C_11  and  C_15
REMARK    7  A    between atoms: C_12  and  O_14
REMARK    8  A    between atoms: C_15  and  O_16
REMARK    9  A    between atoms: O_17  and  C_18
REMARK   10  A    between atoms: C_19  and  C_31
REMARK   11  A    between atoms: C_23  and  O_30
REMARK   12  A    between atoms: C_25  and  O_29
REMARK   13  A    between atoms: C_33  and  O_38
REMARK   14  A    between atoms: C_34  and  O_37
REMARK                            x       y       z     vdW  Elec       q    Type
REMARK                         _______ _______ _______ _____ _____    ______ ____
ROOT
ATOM      1  C   UNL     1       6.556  -0.164  25.789  0.00  0.00    +0.214 A 
ATOM      2  C   UNL     1       5.426  -0.434  26.759  0.00  0.00    +0.238 A 
ATOM      3  O   UNL     1       5.454  -1.349  27.570  0.00  0.00    -0.283 OA
ATOM      4  C   UNL     1       4.275   0.494  26.747  0.00  0.00    +0.109 A 
ATOM      5  C   UNL     1       4.393   1.660  26.003  0.00  0.00    +0.147 A 
ATOM      6  C   UNL     1       3.356   2.593  25.950  0.00  0.00    +0.092 A 
ATOM      7  C   UNL     1       2.189   2.352  26.666  0.00  0.00    +0.124 A 
ATOM      8  C   UNL     1       2.053   1.206  27.437  0.00  0.00    +0.091 A 
ATOM      9  O   UNL     1       5.520   1.980  25.302  0.00  0.00    -0.451 OA
ATOM     10  C   UNL     1       3.095   0.275  27.476  0.00  0.00    +0.135 A 
ATOM     11  C   UNL     1       6.523   1.034  25.167  0.00  0.00    +0.181 A 
ENDROOT
BRANCH  11  12
ATOM     12  C   UNL     1       7.555   1.527  24.235  0.00  0.00    +0.025 A 
ATOM     13  C   UNL     1       8.745   2.063  24.756  0.00  0.00    +0.015 A 
ATOM     14  C   UNL     1       9.801   2.408  23.909  0.00  0.00    +0.050 A 
ATOM     15  C   UNL     1       9.663   2.216  22.544  0.00  0.00    +0.158 A 
ATOM     16  C   UNL     1       8.491   1.680  22.014  0.00  0.00    +0.159 A 
ATOM     17  C   UNL     1       7.434   1.326  22.850  0.00  0.00    +0.060 A 
BRANCH  15  18
ATOM     18  O   UNL     1      10.696   2.555  21.716  0.00  0.00    -0.503 OA
ATOM     19  H   UNL     1      10.461   3.442  21.379  0.00  0.00    +0.292 HD
ENDBRANCH  15  18
BRANCH  16  20
ATOM     20  O   UNL     1       8.439   1.504  20.657  0.00  0.00    -0.503 OA
ATOM     21  H   UNL     1       8.918   0.685  20.440  0.00  0.00    +0.292 HD
ENDBRANCH  16  20
ENDBRANCH  11  12
BRANCH   7  22
ATOM     22  O   UNL     1       1.143   3.226  26.644  0.00  0.00    -0.507 OA
ATOM     23  H   UNL     1       1.486   4.135  26.599  0.00  0.00    +0.292 HD
ENDBRANCH   7  22
BRANCH  10  24
ATOM     24  O   UNL     1       2.928  -0.850  28.236  0.00  0.00    -0.506 OA
ATOM     25  H   UNL     1       1.992  -0.953  28.472  0.00  0.00    +0.292 HD
ENDBRANCH  10  24
BRANCH   1  26
ATOM     26  O   UNL     1       7.603  -1.069  25.548  0.00  0.00    -0.453 OA
BRANCH  26  31
ATOM     27  C   UNL     1       7.614  -4.156  23.295  0.00  0.00    +0.242 C 
ATOM     28  C   UNL     1       7.669  -5.190  24.431  0.00  0.00    +0.189 C 
ATOM     29  C   UNL     1       6.943  -4.653  25.685  0.00  0.00    +0.180 C 
ATOM     30  O   UNL     1       7.503  -3.380  26.092  0.00  0.00    -0.331 OA
ATOM     31  C   UNL     1       7.274  -2.381  25.055  0.00  0.00    +0.341 C 
ATOM     32  C   UNL     1       8.114  -2.783  23.809  0.00  0.00    +0.226 C 
BRANCH  28  33
ATOM     33  O   UNL     1       9.050  -5.472  24.683  0.00  0.00    -0.385 OA
ATOM     34  H   UNL     1       9.281  -6.336  24.301  0.00  0.00    +0.210 HD
ENDBRANCH  28  33
BRANCH  32  35
ATOM     35  O   UNL     1       8.111  -1.788  22.775  0.00  0.00    -0.382 OA
ATOM     36  H   UNL     1       8.752  -1.088  23.019  0.00  0.00    +0.210 HD
ENDBRANCH  32  35
BRANCH  27  37
ATOM     37  O   UNL     1       6.246  -4.077  22.823  0.00  0.00    -0.456 OA
BRANCH  37  39
ATOM     38  C   UNL     1       6.506  -5.782  21.215  0.00  0.00    +0.136 C 
ATOM     39  C   UNL     1       6.053  -4.386  21.509  0.00  0.00    +0.304 C 
ATOM     40  O   UNL     1       5.614  -3.607  20.672  0.00  0.00    -0.251 OA
ENDBRANCH  37  39
ENDBRANCH  27  37
BRANCH  29  41
ATOM     41  C   UNL     1       7.033  -5.642  26.854  0.00  0.00    +0.190 C 
BRANCH  41  42
ATOM     42  O   UNL     1       8.359  -5.695  27.373  0.00  0.00    -0.392 OA
ATOM     43  H   UNL     1       8.550  -6.642  27.512  0.00  0.00    +0.210 HD
ENDBRANCH  41  42
ENDBRANCH  29  41
ENDBRANCH  26  31
ENDBRANCH   1  26
TORSDOF 13
ENDMDL
MODEL 6
REMARK VINA RESULT:      -6.6      2.422      3.802
REMARK  Name = 
REMARK  14 active torsions:
REMARK  status: ('A' for Active; 'I' for Inactive)
REMARK    1  A    between atoms: C_1  and  C_2
REMARK    2  A    between atoms: C_2  and  O_4
REMARK    3  A    between atoms: O_4  and  C_5
REMARK    4  A    between atoms: C_6  and  O_39
REMARK    5  A    between atoms: C_8  and  O_17
REMARK    6  A    between atoms: C_11  and  C_15
REMARK    7  A    between atoms: C_12  and  O_14
REMARK    8  A    between atoms: C_15  and  O_16
REMARK    9  A    between atoms: O_17  and  C_18
REMARK   10  A    between atoms: C_19  and  C_31
REMARK   11  A    between atoms: C_23  and  O_30
REMARK   12  A    between atoms: C_25  and  O_29
REMARK   13  A    between atoms: C_33  and  O_38
REMARK   14  A    between atoms: C_34  and  O_37
REMARK                            x       y       z     vdW  Elec       q    Type
REMARK                         _______ _______ _______ _____ _____    ______ ____
ROOT
ATOM      1  C   UNL     1       7.774  -2.350  25.503  0.00  0.00    +0.214 A 
ATOM      2  C   UNL     1       8.755  -2.359  24.351  0.00  0.00    +0.238 A 
ATOM      3  O   UNL     1       9.454  -3.327  24.083  0.00  0.00    -0.283 OA
ATOM      4  C   UNL     1       8.814  -1.158  23.491  0.00  0.00    +0.109 A 
ATOM      5  C   UNL     1       7.833  -0.191  23.663  0.00  0.00    +0.147 A 
ATOM      6  C   UNL     1       7.812   0.966  22.883  0.00  0.00    +0.092 A 
ATOM      7  C   UNL     1       8.787   1.145  21.907  0.00  0.00    +0.124 A 
ATOM      8  C   UNL     1       9.766   0.184  21.698  0.00  0.00    +0.091 A 
ATOM      9  O   UNL     1       6.826  -0.314  24.577  0.00  0.00    -0.451 OA
ATOM     10  C   UNL     1       9.782  -0.967  22.491  0.00  0.00    +0.135 A 
ATOM     11  C   UNL     1       6.872  -1.345  25.500  0.00  0.00    +0.181 A 
ENDROOT
BRANCH  11  12
ATOM     12  C   UNL     1       5.790  -1.183  26.488  0.00  0.00    +0.025 A 
ATOM     13  C   UNL     1       6.030  -0.419  27.643  0.00  0.00    +0.015 A 
ATOM     14  C   UNL     1       4.993  -0.124  28.531  0.00  0.00    +0.050 A 
ATOM     15  C   UNL     1       3.718  -0.595  28.262  0.00  0.00    +0.158 A 
ATOM     16  C   UNL     1       3.464  -1.348  27.117  0.00  0.00    +0.159 A 
ATOM     17  C   UNL     1       4.489  -1.642  26.221  0.00  0.00    +0.060 A 
BRANCH  15  18
ATOM     18  O   UNL     1       2.705  -0.307  29.131  0.00  0.00    -0.503 OA
ATOM     19  H   UNL     1       3.059   0.410  29.694  0.00  0.00    +0.292 HD
ENDBRANCH  15  18
BRANCH  16  20
ATOM     20  O   UNL     1       2.174  -1.761  26.911  0.00  0.00    -0.503 OA
ATOM     21  H   UNL     1       1.665  -1.577  27.719  0.00  0.00    +0.292 HD
ENDBRANCH  16  20
ENDBRANCH  11  12
BRANCH   7  22
ATOM     22  O   UNL     1       8.817   2.260  21.123  0.00  0.00    -0.507 OA
ATOM     23  H   UNL     1       9.718   2.628  21.126  0.00  0.00    +0.292 HD
ENDBRANCH   7  22
BRANCH  10  24
ATOM     24  O   UNL     1      10.765  -1.891  22.268  0.00  0.00    -0.506 OA
ATOM     25  H   UNL     1      10.956  -1.947  21.318  0.00  0.00    +0.292 HD
ENDBRANCH  10  24
BRANCH   1  26
ATOM     26  O   UNL     1       7.757  -3.325  26.514  0.00  0.00    -0.453 OA
BRANCH  26  31
ATOM     27  C   UNL     1       5.406  -6.307  26.074  0.00  0.00    +0.242 C 
ATOM     28  C   UNL     1       4.970  -6.393  27.545  0.00  0.00    +0.189 C 
ATOM     29  C   UNL     1       4.982  -4.991  28.194  0.00  0.00    +0.180 C 
ATOM     30  O   UNL     1       6.286  -4.375  28.057  0.00  0.00    -0.331 OA
ATOM     31  C   UNL     1       6.585  -4.152  26.648  0.00  0.00    +0.341 C 
ATOM     32  C   UNL     1       6.748  -5.541  25.966  0.00  0.00    +0.226 C 
BRANCH  28  33
ATOM     33  O   UNL     1       5.863  -7.300  28.201  0.00  0.00    -0.385 OA
ATOM     34  H   UNL     1       5.658  -8.212  27.933  0.00  0.00    +0.210 HD
ENDBRANCH  28  33
BRANCH  32  35
ATOM     35  O   UNL     1       7.215  -5.459  24.612  0.00  0.00    -0.382 OA
ATOM     36  H   UNL     1       8.160  -5.200  24.626  0.00  0.00    +0.210 HD
ENDBRANCH  32  35
BRANCH  27  37
ATOM     37  O   UNL     1       4.356  -5.640  25.331  0.00  0.00    -0.456 OA
BRANCH  37  39
ATOM     38  C   UNL     1       2.657  -5.607  23.697  0.00  0.00    +0.136 C 
ATOM     39  C   UNL     1       3.745  -6.386  24.367  0.00  0.00    +0.304 C 
ATOM     40  O   UNL     1       4.019  -7.553  24.118  0.00  0.00    -0.251 OA
ENDBRANCH  37  39
ENDBRANCH  27  37
BRANCH  29  41
ATOM     41  C   UNL     1       4.606  -5.056  29.680  0.00  0.00    +0.190 C 
BRANCH  41  42
ATOM     42  O   UNL     1       5.760  -5.281  30.485  0.00  0.00    -0.392 OA
ATOM     43  H   UNL     1       6.303  -5.926  29.993  0.00  0.00    +0.210 HD
ENDBRANCH  41  42
ENDBRANCH  29  41
ENDBRANCH  26  31
ENDBRANCH   1  26
TORSDOF 13
ENDMDL
MODEL 7
REMARK VINA RESULT:      -6.5      2.526      5.116
REMARK  Name = 
REMARK  14 active torsions:
REMARK  status: ('A' for Active; 'I' for Inactive)
REMARK    1  A    between atoms: C_1  and  C_2
REMARK    2  A    between atoms: C_2  and  O_4
REMARK    3  A    between atoms: O_4  and  C_5
REMARK    4  A    between atoms: C_6  and  O_39
REMARK    5  A    between atoms: C_8  and  O_17
REMARK    6  A    between atoms: C_11  and  C_15
REMARK    7  A    between atoms: C_12  and  O_14
REMARK    8  A    between atoms: C_15  and  O_16
REMARK    9  A    between atoms: O_17  and  C_18
REMARK   10  A    between atoms: C_19  and  C_31
REMARK   11  A    between atoms: C_23  and  O_30
REMARK   12  A    between atoms: C_25  and  O_29
REMARK   13  A    between atoms: C_33  and  O_38
REMARK   14  A    between atoms: C_34  and  O_37
REMARK                            x       y       z     vdW  Elec       q    Type
REMARK                         _______ _______ _______ _____ _____    ______ ____
ROOT
ATOM      1  C   UNL     1       7.330  -1.465  25.205  0.00  0.00    +0.214 A 
ATOM      2  C   UNL     1       7.688  -0.049  25.603  0.00  0.00    +0.238 A 
ATOM      3  O   UNL     1       8.238   0.222  26.661  0.00  0.00    -0.283 OA
ATOM      4  C   UNL     1       7.403   1.029  24.633  0.00  0.00    +0.109 A 
ATOM      5  C   UNL     1       7.022   0.659  23.350  0.00  0.00    +0.147 A 
ATOM      6  C   UNL     1       6.747   1.617  22.372  0.00  0.00    +0.092 A 
ATOM      7  C   UNL     1       6.869   2.965  22.689  0.00  0.00    +0.124 A 
ATOM      8  C   UNL     1       7.270   3.363  23.958  0.00  0.00    +0.091 A 
ATOM      9  O   UNL     1       6.914  -0.644  22.957  0.00  0.00    -0.451 OA
ATOM     10  C   UNL     1       7.535   2.395  24.931  0.00  0.00    +0.135 A 
ATOM     11  C   UNL     1       7.005  -1.646  23.907  0.00  0.00    +0.181 A 
ENDROOT
BRANCH  11  12
ATOM     12  C   UNL     1       6.686  -2.950  23.294  0.00  0.00    +0.025 A 
ATOM     13  C   UNL     1       7.736  -3.826  22.971  0.00  0.00    +0.015 A 
ATOM     14  C   UNL     1       7.470  -5.122  22.523  0.00  0.00    +0.050 A 
ATOM     15  C   UNL     1       6.153  -5.536  22.396  0.00  0.00    +0.158 A 
ATOM     16  C   UNL     1       5.102  -4.680  22.718  0.00  0.00    +0.159 A 
ATOM     17  C   UNL     1       5.357  -3.388  23.174  0.00  0.00    +0.060 A 
BRANCH  15  18
ATOM     18  O   UNL     1       5.894  -6.803  21.955  0.00  0.00    -0.503 OA
ATOM     19  H   UNL     1       6.613  -6.996  21.323  0.00  0.00    +0.292 HD
ENDBRANCH  15  18
BRANCH  16  20
ATOM     20  O   UNL     1       3.830  -5.169  22.585  0.00  0.00    -0.503 OA
ATOM     21  H   UNL     1       3.658  -5.770  23.329  0.00  0.00    +0.292 HD
ENDBRANCH  16  20
ENDBRANCH  11  12
BRANCH   7  22
ATOM     22  O   UNL     1       6.606   3.942  21.775  0.00  0.00    -0.507 OA
ATOM     23  H   UNL     1       5.845   3.674  21.231  0.00  0.00    +0.292 HD
ENDBRANCH   7  22
BRANCH  10  24
ATOM     24  O   UNL     1       7.918   2.817  26.174  0.00  0.00    -0.506 OA
ATOM     25  H   UNL     1       8.798   3.224  26.127  0.00  0.00    +0.292 HD
ENDBRANCH  10  24
BRANCH   1  26
ATOM     26  O   UNL     1       7.352  -2.550  26.097  0.00  0.00    -0.453 OA
BRANCH  26  31
ATOM     27  C   UNL     1       4.909  -5.300  27.135  0.00  0.00    +0.242 C 
ATOM     28  C   UNL     1       4.070  -4.428  28.084  0.00  0.00    +0.189 C 
ATOM     29  C   UNL     1       4.052  -2.962  27.594  0.00  0.00    +0.180 C 
ATOM     30  O   UNL     1       5.401  -2.454  27.451  0.00  0.00    -0.331 OA
ATOM     31  C   UNL     1       6.107  -3.200  26.416  0.00  0.00    +0.341 C 
ATOM     32  C   UNL     1       6.302  -4.657  26.923  0.00  0.00    +0.226 C 
BRANCH  28  33
ATOM     33  O   UNL     1       4.638  -4.554  29.392  0.00  0.00    -0.385 OA
ATOM     34  H   UNL     1       5.422  -3.984  29.464  0.00  0.00    +0.210 HD
ENDBRANCH  28  33
BRANCH  32  35
ATOM     35  O   UNL     1       7.137  -5.451  26.067  0.00  0.00    -0.382 OA
ATOM     36  H   UNL     1       8.069  -5.185  26.212  0.00  0.00    +0.210 HD
ENDBRANCH  32  35
BRANCH  27  37
ATOM     37  O   UNL     1       4.189  -5.426  25.884  0.00  0.00    -0.456 OA
BRANCH  37  39
ATOM     38  C   UNL     1       2.613  -7.134  26.277  0.00  0.00    +0.136 C 
ATOM     39  C   UNL     1       3.832  -6.693  25.530  0.00  0.00    +0.304 C 
ATOM     40  O   UNL     1       4.455  -7.393  24.741  0.00  0.00    -0.251 OA
ENDBRANCH  37  39
ENDBRANCH  27  37
BRANCH  29  41
ATOM     41  C   UNL     1       3.269  -2.058  28.554  0.00  0.00    +0.190 C 
BRANCH  41  42
ATOM     42  O   UNL     1       4.082  -1.665  29.656  0.00  0.00    -0.392 OA
ATOM     43  H   UNL     1       3.541  -1.824  30.453  0.00  0.00    +0.210 HD
ENDBRANCH  41  42
ENDBRANCH  29  41
ENDBRANCH  26  31
ENDBRANCH   1  26
TORSDOF 13
ENDMDL
MODEL 8
REMARK VINA RESULT:      -6.4      3.222      4.991
REMARK  Name = 
REMARK  14 active torsions:
REMARK  status: ('A' for Active; 'I' for Inactive)
REMARK    1  A    between atoms: C_1  and  C_2
REMARK    2  A    between atoms: C_2  and  O_4
REMARK    3  A    between atoms: O_4  and  C_5
REMARK    4  A    between atoms: C_6  and  O_39
REMARK    5  A    between atoms: C_8  and  O_17
REMARK    6  A    between atoms: C_11  and  C_15
REMARK    7  A    between atoms: C_12  and  O_14
REMARK    8  A    between atoms: C_15  and  O_16
REMARK    9  A    between atoms: O_17  and  C_18
REMARK   10  A    between atoms: C_19  and  C_31
REMARK   11  A    between atoms: C_23  and  O_30
REMARK   12  A    between atoms: C_25  and  O_29
REMARK   13  A    between atoms: C_33  and  O_38
REMARK   14  A    between atoms: C_34  and  O_37
REMARK                            x       y       z     vdW  Elec       q    Type
REMARK                         _______ _______ _______ _____ _____    ______ ____
ROOT
ATOM      1  C   UNL     1       6.167  -0.704  24.233  0.00  0.00    +0.214 A 
ATOM      2  C   UNL     1       7.106  -0.701  23.046  0.00  0.00    +0.238 A 
ATOM      3  O   UNL     1       7.002  -1.491  22.118  0.00  0.00    -0.283 OA
ATOM      4  C   UNL     1       8.150   0.344  22.999  0.00  0.00    +0.109 A 
ATOM      5  C   UNL     1       8.076   1.373  23.929  0.00  0.00    +0.147 A 
ATOM      6  C   UNL     1       9.017   2.404  23.943  0.00  0.00    +0.092 A 
ATOM      7  C   UNL     1      10.038   2.405  23.000  0.00  0.00    +0.124 A 
ATOM      8  C   UNL     1      10.123   1.401  22.045  0.00  0.00    +0.091 A 
ATOM      9  O   UNL     1       7.083   1.457  24.862  0.00  0.00    -0.451 OA
ATOM     10  C   UNL     1       9.181   0.369  22.046  0.00  0.00    +0.135 A 
ATOM     11  C   UNL     1       6.213   0.391  25.022  0.00  0.00    +0.181 A 
ENDROOT
BRANCH  11  12
ATOM     12  C   UNL     1       5.344   0.624  26.190  0.00  0.00    +0.025 A 
ATOM     13  C   UNL     1       5.640  -0.025  27.401  0.00  0.00    +0.015 A 
ATOM     14  C   UNL     1       4.929   0.278  28.564  0.00  0.00    +0.050 A 
ATOM     15  C   UNL     1       3.921   1.228  28.512  0.00  0.00    +0.158 A 
ATOM     16  C   UNL     1       3.620   1.883  27.320  0.00  0.00    +0.159 A 
ATOM     17  C   UNL     1       4.329   1.594  26.155  0.00  0.00    +0.060 A 
BRANCH  15  18
ATOM     18  O   UNL     1       3.224   1.522  29.650  0.00  0.00    -0.503 OA
ATOM     19  H   UNL     1       3.628   0.959  30.339  0.00  0.00    +0.292 HD
ENDBRANCH  15  18
BRANCH  16  20
ATOM     20  O   UNL     1       2.624   2.822  27.353  0.00  0.00    -0.503 OA
ATOM     21  H   UNL     1       2.639   3.310  26.512  0.00  0.00    +0.292 HD
ENDBRANCH  16  20
ENDBRANCH  11  12
BRANCH   7  22
ATOM     22  O   UNL     1      10.987   3.383  22.974  0.00  0.00    -0.507 OA
ATOM     23  H   UNL     1      11.843   2.992  22.725  0.00  0.00    +0.292 HD
ENDBRANCH   7  22
BRANCH  10  24
ATOM     24  O   UNL     1       9.296  -0.612  21.099  0.00  0.00    -0.506 OA
ATOM     25  H   UNL     1       8.798  -1.398  21.375  0.00  0.00    +0.292 HD
ENDBRANCH  10  24
BRANCH   1  26
ATOM     26  O   UNL     1       5.272  -1.750  24.511  0.00  0.00    -0.453 OA
BRANCH  26  31
ATOM     27  C   UNL     1       6.226  -5.451  24.574  0.00  0.00    +0.242 C 
ATOM     28  C   UNL     1       7.633  -5.250  25.158  0.00  0.00    +0.189 C 
ATOM     29  C   UNL     1       7.661  -4.013  26.084  0.00  0.00    +0.180 C 
ATOM     30  O   UNL     1       7.201  -2.835  25.376  0.00  0.00    -0.331 OA
ATOM     31  C   UNL     1       5.805  -3.000  24.991  0.00  0.00    +0.341 C 
ATOM     32  C   UNL     1       5.730  -4.133  23.929  0.00  0.00    +0.226 C 
BRANCH  28  33
ATOM     33  O   UNL     1       8.538  -5.121  24.055  0.00  0.00    -0.385 OA
ATOM     34  H   UNL     1       8.466  -5.902  23.482  0.00  0.00    +0.210 HD
ENDBRANCH  28  33
BRANCH  32  35
ATOM     35  O   UNL     1       4.429  -4.277  23.339  0.00  0.00    -0.382 OA
ATOM     36  H   UNL     1       3.863  -3.544  23.660  0.00  0.00    +0.210 HD
ENDBRANCH  32  35
BRANCH  27  37
ATOM     37  O   UNL     1       5.349  -5.876  25.646  0.00  0.00    -0.456 OA
BRANCH  37  39
ATOM     38  C   UNL     1       3.399  -6.962  26.407  0.00  0.00    +0.136 C 
ATOM     39  C   UNL     1       4.401  -6.796  25.307  0.00  0.00    +0.304 C 
ATOM     40  O   UNL     1       4.399  -7.436  24.263  0.00  0.00    -0.251 OA
ENDBRANCH  37  39
ENDBRANCH  27  37
BRANCH  29  41
ATOM     41  C   UNL     1       9.068  -3.755  26.636  0.00  0.00    +0.190 C 
BRANCH  41  42
ATOM     42  O   UNL     1       9.824  -4.962  26.680  0.00  0.00    -0.392 OA
ATOM     43  H   UNL     1      10.165  -5.094  25.775  0.00  0.00    +0.210 HD
ENDBRANCH  41  42
ENDBRANCH  29  41
ENDBRANCH  26  31
ENDBRANCH   1  26
TORSDOF 13
ENDMDL
MODEL 9
REMARK VINA RESULT:      -6.3      3.051      4.760
REMARK  Name = 
REMARK  14 active torsions:
REMARK  status: ('A' for Active; 'I' for Inactive)
REMARK    1  A    between atoms: C_1  and  C_2
REMARK    2  A    between atoms: C_2  and  O_4
REMARK    3  A    between atoms: O_4  and  C_5
REMARK    4  A    between atoms: C_6  and  O_39
REMARK    5  A    between atoms: C_8  and  O_17
REMARK    6  A    between atoms: C_11  and  C_15
REMARK    7  A    between atoms: C_12  and  O_14
REMARK    8  A    between atoms: C_15  and  O_16
REMARK    9  A    between atoms: O_17  and  C_18
REMARK   10  A    between atoms: C_19  and  C_31
REMARK   11  A    between atoms: C_23  and  O_30
REMARK   12  A    between atoms: C_25  and  O_29
REMARK   13  A    between atoms: C_33  and  O_38
REMARK   14  A    between atoms: C_34  and  O_37
REMARK                            x       y       z     vdW  Elec       q    Type
REMARK                         _______ _______ _______ _____ _____    ______ ____
ROOT
ATOM      1  C   UNL     1       7.851  -0.766  26.170  0.00  0.00    +0.214 A 
ATOM      2  C   UNL     1       8.987  -0.489  25.209  0.00  0.00    +0.238 A 
ATOM      3  O   UNL     1       9.709  -1.372  24.766  0.00  0.00    -0.283 OA
ATOM      4  C   UNL     1       9.179   0.905  24.755  0.00  0.00    +0.109 A 
ATOM      5  C   UNL     1       8.191   1.828  25.071  0.00  0.00    +0.147 A 
ATOM      6  C   UNL     1       8.291   3.161  24.669  0.00  0.00    +0.092 A 
ATOM      7  C   UNL     1       9.397   3.566  23.929  0.00  0.00    +0.124 A 
ATOM      8  C   UNL     1      10.389   2.659  23.581  0.00  0.00    +0.091 A 
ATOM      9  O   UNL     1       7.062   1.496  25.763  0.00  0.00    -0.451 OA
ATOM     10  C   UNL     1      10.281   1.329  23.996  0.00  0.00    +0.135 A 
ATOM     11  C   UNL     1       6.967   0.241  26.340  0.00  0.00    +0.181 A 
ENDROOT
BRANCH  11  12
ATOM     12  C   UNL     1       5.755   0.164  27.178  0.00  0.00    +0.025 A 
ATOM     13  C   UNL     1       5.817   0.611  28.508  0.00  0.00    +0.015 A 
ATOM     14  C   UNL     1       4.661   0.688  29.288  0.00  0.00    +0.050 A 
ATOM     15  C   UNL     1       3.446   0.314  28.735  0.00  0.00    +0.158 A 
ATOM     16  C   UNL     1       3.369  -0.126  27.415  0.00  0.00    +0.159 A 
ATOM     17  C   UNL     1       4.515  -0.199  26.626  0.00  0.00    +0.060 A 
BRANCH  15  18
ATOM     18  O   UNL     1       2.316   0.387  29.499  0.00  0.00    -0.503 OA
ATOM     19  H   UNL     1       2.524  -0.137  30.298  0.00  0.00    +0.292 HD
ENDBRANCH  15  18
BRANCH  16  20
ATOM     20  O   UNL     1       2.131  -0.459  26.936  0.00  0.00    -0.503 OA
ATOM     21  H   UNL     1       2.203  -0.585  25.974  0.00  0.00    +0.292 HD
ENDBRANCH  16  20
ENDBRANCH  11  12
BRANCH   7  22
ATOM     22  O   UNL     1       9.549   4.857  23.518  0.00  0.00    -0.507 OA
ATOM     23  H   UNL     1      10.293   5.260  23.999  0.00  0.00    +0.292 HD
ENDBRANCH   7  22
BRANCH  10  24
ATOM     24  O   UNL     1      11.279   0.461  23.646  0.00  0.00    -0.506 OA
ATOM     25  H   UNL     1      11.777   0.195  24.436  0.00  0.00    +0.292 HD
ENDBRANCH  10  24
BRANCH   1  26
ATOM     26  O   UNL     1       7.681  -1.990  26.837  0.00  0.00    -0.453 OA
BRANCH  26  31
ATOM     27  C   UNL     1       6.875  -5.309  25.122  0.00  0.00    +0.242 C 
ATOM     28  C   UNL     1       5.571  -5.580  25.890  0.00  0.00    +0.189 C 
ATOM     29  C   UNL     1       4.878  -4.250  26.263  0.00  0.00    +0.180 C 
ATOM     30  O   UNL     1       5.776  -3.399  27.016  0.00  0.00    -0.331 OA
ATOM     31  C   UNL     1       6.917  -3.024  26.189  0.00  0.00    +0.341 C 
ATOM     32  C   UNL     1       7.752  -4.305  25.912  0.00  0.00    +0.226 C 
BRANCH  28  33
ATOM     33  O   UNL     1       5.911  -6.355  27.045  0.00  0.00    -0.385 OA
ATOM     34  H   UNL     1       5.726  -7.294  26.874  0.00  0.00    +0.210 HD
ENDBRANCH  28  33
BRANCH  32  35
ATOM     35  O   UNL     1       8.998  -4.042  25.250  0.00  0.00    -0.382 OA
ATOM     36  H   UNL     1       8.900  -3.221  24.723  0.00  0.00    +0.210 HD
ENDBRANCH  32  35
BRANCH  27  37
ATOM     37  O   UNL     1       6.528  -4.791  23.814  0.00  0.00    -0.456 OA
BRANCH  37  39
ATOM     38  C   UNL     1       6.122  -5.550  21.619  0.00  0.00    +0.136 C 
ATOM     39  C   UNL     1       7.092  -5.434  22.752  0.00  0.00    +0.304 C 
ATOM     40  O   UNL     1       8.227  -5.897  22.747  0.00  0.00    -0.251 OA
ENDBRANCH  37  39
ENDBRANCH  27  37
BRANCH  29  41
ATOM     41  C   UNL     1       3.603  -4.491  27.080  0.00  0.00    +0.190 C 
BRANCH  41  42
ATOM     42  O   UNL     1       2.634  -3.481  26.816  0.00  0.00    -0.392 OA
ATOM     43  H   UNL     1       1.817  -3.774  27.265  0.00  0.00    +0.210 HD
ENDBRANCH  41  42
ENDBRANCH  29  41
ENDBRANCH  26  31
ENDBRANCH   1  26
TORSDOF 13
ENDMDL
