MODEL 1
REMARK VINA RESULT:      -5.8      0.000      0.000
REMARK  Name = 
REMARK  27 active torsions:
REMARK  status: ('A' for Active; 'I' for Inactive)
REMARK    1  A    between atoms: C_1  and  C_2
REMARK    2  A    between atoms: C_3  and  O_74
REMARK    3  A    between atoms: C_5  and  O_73
REMARK    4  A    between atoms: C_6  and  O_33
REMARK    5  A    between atoms: C_8  and  O_11
REMARK    6  A    between atoms: O_11  and  C_12
REMARK    7  A    between atoms: C_13  and  C_25
REMARK    8  A    between atoms: C_17  and  O_24
REMARK    9  A    between atoms: C_19  and  O_23
REMARK   10  A    between atoms: C_27  and  O_32
REMARK   11  A    between atoms: C_28  and  O_31
REMARK   12  A    between atoms: O_33  and  C_34
REMARK   13  A    between atoms: C_36  and  O_72
REMARK   14  A    between atoms: C_38  and  O_71
REMARK   15  A    between atoms: C_39  and  O_70
REMARK   16  A    between atoms: C_41  and  C_43
REMARK   17  A    between atoms: C_43  and  O_44
REMARK   18  A    between atoms: O_44  and  C_45
REMARK   19  A    between atoms: C_45  and  C_47
REMARK   20  A    between atoms: C_48  and  C_49
REMARK   21  A    between atoms: C_52  and  O_55
REMARK   22  A    between atoms: O_55  and  C_56
REMARK   23  A    between atoms: C_58  and  O_69
REMARK   24  A    between atoms: C_59  and  O_68
REMARK   25  A    between atoms: C_61  and  O_67
REMARK   26  A    between atoms: C_63  and  C_65
REMARK   27  A    between atoms: C_65  and  O_66
REMARK                            x       y       z     vdW  Elec       q    Type
REMARK                         _______ _______ _______ _____ _____    ______ ____
ROOT
ATOM      1  C   UNL     1       5.534   2.945  27.811  0.00  0.00    +0.282 C 
ATOM      2  O   UNL     1       4.636   3.225  28.946  0.00  0.00    -0.339 OA
ATOM      3  C   UNL     1       4.235   4.612  29.049  0.00  0.00    +0.190 C 
ATOM      4  C   UNL     1       5.470   5.548  29.183  0.00  0.00    +0.178 C 
ATOM      5  C   UNL     1       6.571   5.196  28.129  0.00  0.00    +0.179 C 
ATOM      6  C   UNL     1       6.872   3.686  28.063  0.00  0.00    +0.201 C 
ENDROOT
BRANCH   6   7
ATOM      7  O   UNL     1       7.537   3.265  29.267  0.00  0.00    -0.384 OA
ATOM      8  H   UNL     1       6.937   3.461  30.015  0.00  0.00    +0.210 HD
ENDBRANCH   6   7
BRANCH   5   9
ATOM      9  O   UNL     1       7.766   5.944  28.410  0.00  0.00    -0.386 OA
ATOM     10  H   UNL     1       7.720   6.754  27.867  0.00  0.00    +0.210 HD
ENDBRANCH   5   9
BRANCH   4  11
ATOM     11  O   UNL     1       6.061   5.471  30.485  0.00  0.00    -0.386 OA
ATOM     12  H   UNL     1       5.638   4.694  30.906  0.00  0.00    +0.210 HD
ENDBRANCH   4  11
BRANCH   3  13
ATOM     13  C   UNL     1       2.837   4.942  29.808  0.00  0.00    +0.266 C 
BRANCH  13  14
ATOM     14  O   UNL     1       1.641   3.999  29.592  0.00  0.00    -0.459 OA
BRANCH  14  15
ATOM     15  C   UNL     1       1.130   3.582  28.367  0.00  0.00    +0.332 C 
ATOM     16  O   UNL     1       0.450   4.280  27.624  0.00  0.00    -0.246 OA
BRANCH  15  17
ATOM     17  C   UNL     1       1.554   2.169  27.952  0.00  0.00    +0.092 C 
ATOM     18  C   UNL     1       2.118   1.222  28.760  0.00  0.00    +0.015 C 
BRANCH  18  19
ATOM     19  C   UNL     1       2.660  -0.128  28.379  0.00  0.00    -0.025 A 
ATOM     20  C   UNL     1       1.939  -1.338  28.444  0.00  0.00    +0.011 A 
ATOM     21  C   UNL     1       2.531  -2.596  28.157  0.00  0.00    +0.046 A 
ATOM     22  C   UNL     1       3.879  -2.671  27.796  0.00  0.00    +0.124 A 
ATOM     23  C   UNL     1       4.608  -1.476  27.789  0.00  0.00    +0.046 A 
ATOM     24  C   UNL     1       4.023  -0.232  28.087  0.00  0.00    +0.011 A 
BRANCH  22  25
ATOM     25  O   UNL     1       4.609  -3.758  27.420  0.00  0.00    -0.461 OA
BRANCH  25  26
ATOM     26  C   UNL     1       5.914  -3.585  26.851  0.00  0.00    +0.339 C 
ATOM     27  O   UNL     1       5.844  -3.164  25.487  0.00  0.00    -0.331 OA
ATOM     28  C   UNL     1       5.237  -4.146  24.623  0.00  0.00    +0.179 C 
ATOM     29  C   UNL     1       6.050  -5.459  24.603  0.00  0.00    +0.177 C 
ATOM     30  C   UNL     1       6.179  -6.010  26.027  0.00  0.00    +0.180 C 
ATOM     31  C   UNL     1       6.713  -4.915  26.973  0.00  0.00    +0.214 C 
BRANCH  31  32
ATOM     32  O   UNL     1       6.794  -5.422  28.312  0.00  0.00    -0.383 OA
ATOM     33  H   UNL     1       6.568  -6.368  28.304  0.00  0.00    +0.210 HD
ENDBRANCH  31  32
BRANCH  30  34
ATOM     34  O   UNL     1       4.926  -6.574  26.435  0.00  0.00    -0.386 OA
ATOM     35  H   UNL     1       4.798  -6.414  27.386  0.00  0.00    +0.210 HD
ENDBRANCH  30  34
BRANCH  29  36
ATOM     36  O   UNL     1       7.350  -5.228  24.053  0.00  0.00    -0.386 OA
ATOM     37  H   UNL     1       7.550  -4.278  24.142  0.00  0.00    +0.210 HD
ENDBRANCH  29  36
BRANCH  28  38
ATOM     38  C   UNL     1       5.104  -3.557  23.212  0.00  0.00    +0.190 C 
BRANCH  38  39
ATOM     39  O   UNL     1       5.356  -4.534  22.199  0.00  0.00    -0.392 OA
ATOM     40  H   UNL     1       5.820  -4.102  21.462  0.00  0.00    +0.210 HD
ENDBRANCH  38  39
ENDBRANCH  28  38
ENDBRANCH  25  26
ENDBRANCH  22  25
ENDBRANCH  18  19
ENDBRANCH  15  17
ENDBRANCH  14  15
ENDBRANCH  13  14
ENDBRANCH   3  13
BRANCH   1  41
ATOM     41  O   UNL     1       5.052   3.360  26.495  0.00  0.00    -0.337 OA
BRANCH  41  46
ATOM     42  C   UNL     1       5.151   3.206  21.543  0.00  0.00    +0.041 C 
ATOM     43  C   UNL     1       5.637   3.905  22.797  0.00  0.00    +0.150 C 
ATOM     44  O   UNL     1       6.690   3.229  23.477  0.00  0.00    -0.334 OA
ATOM     45  C   UNL     1       6.404   2.307  24.557  0.00  0.00    +0.340 C 
ATOM     46  C   UNL     1       5.025   2.396  25.401  0.00  0.00    +0.221 C 
ATOM     47  C   UNL     1       4.044   2.837  24.359  0.00  0.00    +0.180 C 
ATOM     48  C   UNL     1       4.571   4.217  23.797  0.00  0.00    +0.174 C 
BRANCH  48  49
ATOM     49  O   UNL     1       5.294   5.117  24.701  0.00  0.00    -0.387 OA
ATOM     50  H   UNL     1       5.374   5.992  24.272  0.00  0.00    +0.210 HD
ENDBRANCH  48  49
BRANCH  47  51
ATOM     51  O   UNL     1       2.692   2.663  24.769  0.00  0.00    -0.386 OA
ATOM     52  H   UNL     1       2.607   2.180  25.608  0.00  0.00    +0.210 HD
ENDBRANCH  47  51
BRANCH  45  53
ATOM     53  O   UNL     1       7.515   2.479  25.458  0.00  0.00    -0.453 OA
BRANCH  53  54
ATOM     54  C   UNL     1       8.697   2.843  24.849  0.00  0.00    +0.214 A 
ATOM     55  C   UNL     1       9.066   4.304  24.886  0.00  0.00    +0.238 A 
ATOM     56  O   UNL     1       8.299   5.131  25.369  0.00  0.00    -0.283 OA
ATOM     57  C   UNL     1      10.334   4.716  24.291  0.00  0.00    +0.109 A 
ATOM     58  C   UNL     1      11.027   3.756  23.573  0.00  0.00    +0.147 A 
ATOM     59  C   UNL     1      12.209   4.089  22.911  0.00  0.00    +0.092 A 
ATOM     60  C   UNL     1      12.689   5.381  23.018  0.00  0.00    +0.124 A 
ATOM     61  C   UNL     1      12.028   6.358  23.729  0.00  0.00    +0.091 A 
ATOM     62  O   UNL     1      10.613   2.459  23.460  0.00  0.00    -0.451 OA
ATOM     63  C   UNL     1      10.842   6.022  24.377  0.00  0.00    +0.135 A 
ATOM     64  C   UNL     1       9.458   2.001  24.108  0.00  0.00    +0.181 A 
BRANCH  64  65
ATOM     65  C   UNL     1       9.217   0.532  23.769  0.00  0.00    +0.025 A 
ATOM     66  C   UNL     1       9.000   0.222  22.394  0.00  0.00    +0.015 A 
ATOM     67  C   UNL     1       8.700  -1.065  21.928  0.00  0.00    +0.050 A 
ATOM     68  C   UNL     1       8.636  -2.100  22.830  0.00  0.00    +0.158 A 
ATOM     69  C   UNL     1       8.888  -1.865  24.175  0.00  0.00    +0.159 A 
ATOM     70  C   UNL     1       9.182  -0.563  24.654  0.00  0.00    +0.060 A 
BRANCH  69  71
ATOM     71  O   UNL     1       8.845  -2.965  24.991  0.00  0.00    -0.503 OA
ATOM     72  H   UNL     1       7.966  -3.035  25.394  0.00  0.00    +0.292 HD
ENDBRANCH  69  71
BRANCH  68  73
ATOM     73  O   UNL     1       8.338  -3.356  22.366  0.00  0.00    -0.503 OA
ATOM     74  H   UNL     1       9.090  -3.916  22.650  0.00  0.00    +0.292 HD
ENDBRANCH  68  73
ENDBRANCH  64  65
BRANCH  63  75
ATOM     75  O   UNL     1      10.203   6.984  25.110  0.00  0.00    -0.506 OA
ATOM     76  H   UNL     1      10.349   6.833  26.059  0.00  0.00    +0.292 HD
ENDBRANCH  63  75
BRANCH  60  77
ATOM     77  O   UNL     1      13.860   5.754  22.389  0.00  0.00    -0.507 OA
ATOM     78  H   UNL     1      13.823   6.706  22.179  0.00  0.00    +0.292 HD
ENDBRANCH  60  77
ENDBRANCH  53  54
ENDBRANCH  45  53
ENDBRANCH  41  46
ENDBRANCH   1  41
TORSDOF 26
ENDMDL
MODEL 2
REMARK VINA RESULT:      -5.3      2.266      6.982
REMARK  Name = 
REMARK  27 active torsions:
REMARK  status: ('A' for Active; 'I' for Inactive)
REMARK    1  A    between atoms: C_1  and  C_2
REMARK    2  A    between atoms: C_3  and  O_74
REMARK    3  A    between atoms: C_5  and  O_73
REMARK    4  A    between atoms: C_6  and  O_33
REMARK    5  A    between atoms: C_8  and  O_11
REMARK    6  A    between atoms: O_11  and  C_12
REMARK    7  A    between atoms: C_13  and  C_25
REMARK    8  A    between atoms: C_17  and  O_24
REMARK    9  A    between atoms: C_19  and  O_23
REMARK   10  A    between atoms: C_27  and  O_32
REMARK   11  A    between atoms: C_28  and  O_31
REMARK   12  A    between atoms: O_33  and  C_34
REMARK   13  A    between atoms: C_36  and  O_72
REMARK   14  A    between atoms: C_38  and  O_71
REMARK   15  A    between atoms: C_39  and  O_70
REMARK   16  A    between atoms: C_41  and  C_43
REMARK   17  A    between atoms: C_43  and  O_44
REMARK   18  A    between atoms: O_44  and  C_45
REMARK   19  A    between atoms: C_45  and  C_47
REMARK   20  A    between atoms: C_48  and  C_49
REMARK   21  A    between atoms: C_52  and  O_55
REMARK   22  A    between atoms: O_55  and  C_56
REMARK   23  A    between atoms: C_58  and  O_69
REMARK   24  A    between atoms: C_59  and  O_68
REMARK   25  A    between atoms: C_61  and  O_67
REMARK   26  A    between atoms: C_63  and  C_65
REMARK   27  A    between atoms: C_65  and  O_66
REMARK                            x       y       z     vdW  Elec       q    Type
REMARK                         _______ _______ _______ _____ _____    ______ ____
ROOT
ATOM      1  C   UNL     1       4.202   5.094  28.242  0.00  0.00    +0.282 C 
ATOM      2  O   UNL     1       4.148   5.829  26.965  0.00  0.00    -0.339 OA
ATOM      3  C   UNL     1       5.201   5.473  26.038  0.00  0.00    +0.190 C 
ATOM      4  C   UNL     1       6.606   5.715  26.661  0.00  0.00    +0.178 C 
ATOM      5  C   UNL     1       6.697   5.130  28.109  0.00  0.00    +0.179 C 
ATOM      6  C   UNL     1       5.493   5.523  28.987  0.00  0.00    +0.201 C 
ENDROOT
BRANCH   6   7
ATOM      7  O   UNL     1       5.538   6.929  29.283  0.00  0.00    -0.384 OA
ATOM      8  H   UNL     1       4.638   7.287  29.138  0.00  0.00    +0.210 HD
ENDBRANCH   6   7
BRANCH   5   9
ATOM      9  O   UNL     1       7.932   5.543  28.720  0.00  0.00    -0.386 OA
ATOM     10  H   UNL     1       7.752   5.625  29.676  0.00  0.00    +0.210 HD
ENDBRANCH   5   9
BRANCH   4  11
ATOM     11  O   UNL     1       6.932   7.108  26.723  0.00  0.00    -0.386 OA
ATOM     12  H   UNL     1       6.516   7.424  27.551  0.00  0.00    +0.210 HD
ENDBRANCH   4  11
BRANCH   3  13
ATOM     13  C   UNL     1       4.927   5.705  24.453  0.00  0.00    +0.266 C 
BRANCH  13  14
ATOM     14  O   UNL     1       6.003   6.419  23.617  0.00  0.00    -0.459 OA
BRANCH  14  15
ATOM     15  C   UNL     1       6.769   5.854  22.602  0.00  0.00    +0.332 C 
ATOM     16  O   UNL     1       7.178   6.461  21.620  0.00  0.00    -0.246 OA
BRANCH  15  17
ATOM     17  C   UNL     1       7.152   4.390  22.840  0.00  0.00    +0.092 C 
ATOM     18  C   UNL     1       7.281   3.420  21.884  0.00  0.00    +0.015 C 
BRANCH  18  19
ATOM     19  C   UNL     1       7.536   1.950  22.073  0.00  0.00    -0.025 A 
ATOM     20  C   UNL     1       8.657   1.252  21.580  0.00  0.00    +0.011 A 
ATOM     21  C   UNL     1       8.800  -0.154  21.712  0.00  0.00    +0.046 A 
ATOM     22  C   UNL     1       7.807  -0.904  22.349  0.00  0.00    +0.124 A 
ATOM     23  C   UNL     1       6.668  -0.217  22.787  0.00  0.00    +0.046 A 
ATOM     24  C   UNL     1       6.523   1.174  22.643  0.00  0.00    +0.011 A 
BRANCH  22  25
ATOM     25  O   UNL     1       7.786  -2.235  22.635  0.00  0.00    -0.461 OA
BRANCH  25  26
ATOM     26  C   UNL     1       6.936  -2.732  23.679  0.00  0.00    +0.339 C 
ATOM     27  O   UNL     1       7.693  -3.250  24.775  0.00  0.00    -0.331 OA
ATOM     28  C   UNL     1       8.485  -4.402  24.420  0.00  0.00    +0.179 C 
ATOM     29  C   UNL     1       7.596  -5.574  23.947  0.00  0.00    +0.177 C 
ATOM     30  C   UNL     1       6.741  -5.128  22.756  0.00  0.00    +0.180 C 
ATOM     31  C   UNL     1       5.991  -3.824  23.100  0.00  0.00    +0.214 C 
BRANCH  31  32
ATOM     32  O   UNL     1       5.224  -3.389  21.970  0.00  0.00    -0.383 OA
ATOM     33  H   UNL     1       4.278  -3.442  22.191  0.00  0.00    +0.210 HD
ENDBRANCH  31  32
BRANCH  30  34
ATOM     34  O   UNL     1       7.564  -5.037  21.587  0.00  0.00    -0.386 OA
ATOM     35  H   UNL     1       7.840  -5.931  21.319  0.00  0.00    +0.210 HD
ENDBRANCH  30  34
BRANCH  29  36
ATOM     36  O   UNL     1       6.750  -6.014  25.014  0.00  0.00    -0.386 OA
ATOM     37  H   UNL     1       5.824  -5.931  24.718  0.00  0.00    +0.210 HD
ENDBRANCH  29  36
BRANCH  28  38
ATOM     38  C   UNL     1       9.342  -4.810  25.626  0.00  0.00    +0.190 C 
BRANCH  38  39
ATOM     39  O   UNL     1       9.825  -6.151  25.509  0.00  0.00    -0.392 OA
ATOM     40  H   UNL     1      10.720  -6.190  25.886  0.00  0.00    +0.210 HD
ENDBRANCH  38  39
ENDBRANCH  28  38
ENDBRANCH  25  26
ENDBRANCH  22  25
ENDBRANCH  18  19
ENDBRANCH  15  17
ENDBRANCH  14  15
ENDBRANCH  13  14
ENDBRANCH   3  13
BRANCH   1  41
ATOM     41  O   UNL     1       4.224   3.636  28.143  0.00  0.00    -0.337 OA
BRANCH  41  46
ATOM     42  C   UNL     1       0.451   0.878  26.497  0.00  0.00    +0.041 C 
ATOM     43  C   UNL     1       1.891   1.303  26.291  0.00  0.00    +0.150 C 
ATOM     44  O   UNL     1       2.824   0.658  27.152  0.00  0.00    -0.334 OA
ATOM     45  C   UNL     1       3.220   1.267  28.406  0.00  0.00    +0.340 C 
ATOM     46  C   UNL     1       3.095   2.864  28.647  0.00  0.00    +0.221 C 
ATOM     47  C   UNL     1       1.860   3.205  27.873  0.00  0.00    +0.180 C 
ATOM     48  C   UNL     1       2.131   2.777  26.376  0.00  0.00    +0.174 C 
BRANCH  48  49
ATOM     49  O   UNL     1       3.498   2.866  25.854  0.00  0.00    -0.387 OA
ATOM     50  H   UNL     1       3.872   1.963  25.803  0.00  0.00    +0.210 HD
ENDBRANCH  48  49
BRANCH  47  51
ATOM     51  O   UNL     1       1.343   4.490  28.202  0.00  0.00    -0.386 OA
ATOM     52  H   UNL     1       0.374   4.505  28.272  0.00  0.00    +0.210 HD
ENDBRANCH  47  51
BRANCH  45  53
ATOM     53  O   UNL     1       4.599   0.878  28.555  0.00  0.00    -0.453 OA
BRANCH  53  54
ATOM     54  C   UNL     1       4.863  -0.436  28.234  0.00  0.00    +0.214 A 
ATOM     55  C   UNL     1       4.068  -1.492  28.958  0.00  0.00    +0.238 A 
ATOM     56  O   UNL     1       3.283  -1.184  29.848  0.00  0.00    -0.283 OA
ATOM     57  C   UNL     1       4.291  -2.892  28.606  0.00  0.00    +0.109 A 
ATOM     58  C   UNL     1       5.351  -3.161  27.756  0.00  0.00    +0.147 A 
ATOM     59  C   UNL     1       5.676  -4.478  27.432  0.00  0.00    +0.092 A 
ATOM     60  C   UNL     1       4.900  -5.500  27.945  0.00  0.00    +0.124 A 
ATOM     61  C   UNL     1       3.835  -5.267  28.788  0.00  0.00    +0.091 A 
ATOM     62  O   UNL     1       6.131  -2.188  27.198  0.00  0.00    -0.451 OA
ATOM     63  C   UNL     1       3.523  -3.951  29.118  0.00  0.00    +0.135 A 
ATOM     64  C   UNL     1       5.878  -0.828  27.425  0.00  0.00    +0.181 A 
BRANCH  64  65
ATOM     65  C   UNL     1       6.928   0.023  26.717  0.00  0.00    +0.025 A 
ATOM     66  C   UNL     1       6.621   1.405  26.547  0.00  0.00    +0.015 A 
ATOM     67  C   UNL     1       7.448   2.305  25.860  0.00  0.00    +0.050 A 
ATOM     68  C   UNL     1       8.637   1.850  25.341  0.00  0.00    +0.158 A 
ATOM     69  C   UNL     1       9.010   0.525  25.520  0.00  0.00    +0.159 A 
ATOM     70  C   UNL     1       8.173  -0.393  26.204  0.00  0.00    +0.060 A 
BRANCH  69  71
ATOM     71  O   UNL     1      10.232   0.174  25.006  0.00  0.00    -0.503 OA
ATOM     72  H   UNL     1      10.117  -0.175  24.108  0.00  0.00    +0.292 HD
ENDBRANCH  69  71
BRANCH  68  73
ATOM     73  O   UNL     1       9.439   2.735  24.668  0.00  0.00    -0.503 OA
ATOM     74  H   UNL     1       9.005   2.860  23.799  0.00  0.00    +0.292 HD
ENDBRANCH  68  73
ENDBRANCH  64  65
BRANCH  63  75
ATOM     75  O   UNL     1       2.447  -3.717  29.929  0.00  0.00    -0.506 OA
ATOM     76  H   UNL     1       2.329  -2.762  30.060  0.00  0.00    +0.292 HD
ENDBRANCH  63  75
BRANCH  60  77
ATOM     77  O   UNL     1       5.177  -6.818  27.644  0.00  0.00    -0.507 OA
ATOM     78  H   UNL     1       5.691  -6.857  26.817  0.00  0.00    +0.292 HD
ENDBRANCH  60  77
ENDBRANCH  53  54
ENDBRANCH  45  53
ENDBRANCH  41  46
ENDBRANCH   1  41
TORSDOF 26
ENDMDL
MODEL 3
REMARK VINA RESULT:      -4.5      2.363      7.142
REMARK  Name = 
REMARK  27 active torsions:
REMARK  status: ('A' for Active; 'I' for Inactive)
REMARK    1  A    between atoms: C_1  and  C_2
REMARK    2  A    between atoms: C_3  and  O_74
REMARK    3  A    between atoms: C_5  and  O_73
REMARK    4  A    between atoms: C_6  and  O_33
REMARK    5  A    between atoms: C_8  and  O_11
REMARK    6  A    between atoms: O_11  and  C_12
REMARK    7  A    between atoms: C_13  and  C_25
REMARK    8  A    between atoms: C_17  and  O_24
REMARK    9  A    between atoms: C_19  and  O_23
REMARK   10  A    between atoms: C_27  and  O_32
REMARK   11  A    between atoms: C_28  and  O_31
REMARK   12  A    between atoms: O_33  and  C_34
REMARK   13  A    between atoms: C_36  and  O_72
REMARK   14  A    between atoms: C_38  and  O_71
REMARK   15  A    between atoms: C_39  and  O_70
REMARK   16  A    between atoms: C_41  and  C_43
REMARK   17  A    between atoms: C_43  and  O_44
REMARK   18  A    between atoms: O_44  and  C_45
REMARK   19  A    between atoms: C_45  and  C_47
REMARK   20  A    between atoms: C_48  and  C_49
REMARK   21  A    between atoms: C_52  and  O_55
REMARK   22  A    between atoms: O_55  and  C_56
REMARK   23  A    between atoms: C_58  and  O_69
REMARK   24  A    between atoms: C_59  and  O_68
REMARK   25  A    between atoms: C_61  and  O_67
REMARK   26  A    between atoms: C_63  and  C_65
REMARK   27  A    between atoms: C_65  and  O_66
REMARK                            x       y       z     vdW  Elec       q    Type
REMARK                         _______ _______ _______ _____ _____    ______ ____
ROOT
ATOM      1  C   UNL     1       4.400   5.627  28.275  0.00  0.00    +0.282 C 
ATOM      2  O   UNL     1       4.778   6.495  27.145  0.00  0.00    -0.339 OA
ATOM      3  C   UNL     1       5.913   6.011  26.388  0.00  0.00    +0.190 C 
ATOM      4  C   UNL     1       7.166   5.846  27.296  0.00  0.00    +0.178 C 
ATOM      5  C   UNL     1       6.816   5.095  28.623  0.00  0.00    +0.179 C 
ATOM      6  C   UNL     1       5.555   5.655  29.309  0.00  0.00    +0.201 C 
ENDROOT
BRANCH   6   7
ATOM      7  O   UNL     1       5.821   6.969  29.829  0.00  0.00    -0.384 OA
ATOM      8  H   UNL     1       5.857   7.582  29.067  0.00  0.00    +0.210 HD
ENDBRANCH   6   7
BRANCH   5   9
ATOM      9  O   UNL     1       7.944   5.136  29.514  0.00  0.00    -0.386 OA
ATOM     10  H   UNL     1       8.439   4.308  29.371  0.00  0.00    +0.210 HD
ENDBRANCH   5   9
BRANCH   4  11
ATOM     11  O   UNL     1       7.748   7.108  27.640  0.00  0.00    -0.386 OA
ATOM     12  H   UNL     1       8.700   6.915  27.774  0.00  0.00    +0.210 HD
ENDBRANCH   4  11
BRANCH   3  13
ATOM     13  C   UNL     1       6.047   6.479  24.838  0.00  0.00    +0.266 C 
BRANCH  13  14
ATOM     14  O   UNL     1       7.362   6.190  24.093  0.00  0.00    -0.459 OA
BRANCH  14  15
ATOM     15  C   UNL     1       7.506   5.423  22.942  0.00  0.00    +0.332 C 
ATOM     16  O   UNL     1       7.561   5.878  21.806  0.00  0.00    -0.246 OA
BRANCH  15  17
ATOM     17  C   UNL     1       7.681   3.922  23.200  0.00  0.00    +0.092 C 
ATOM     18  C   UNL     1       7.626   2.927  22.264  0.00  0.00    +0.015 C 
BRANCH  18  19
ATOM     19  C   UNL     1       7.671   1.439  22.480  0.00  0.00    -0.025 A 
ATOM     20  C   UNL     1       8.723   0.594  22.074  0.00  0.00    +0.011 A 
ATOM     21  C   UNL     1       8.671  -0.817  22.223  0.00  0.00    +0.046 A 
ATOM     22  C   UNL     1       7.544  -1.421  22.789  0.00  0.00    +0.124 A 
ATOM     23  C   UNL     1       6.477  -0.585  23.138  0.00  0.00    +0.046 A 
ATOM     24  C   UNL     1       6.526   0.811  22.976  0.00  0.00    +0.011 A 
BRANCH  22  25
ATOM     25  O   UNL     1       7.328  -2.734  23.080  0.00  0.00    -0.461 OA
BRANCH  25  26
ATOM     26  C   UNL     1       6.316  -3.468  22.377  0.00  0.00    +0.339 C 
ATOM     27  O   UNL     1       5.023  -3.269  22.953  0.00  0.00    -0.331 OA
ATOM     28  C   UNL     1       4.921  -3.775  24.299  0.00  0.00    +0.179 C 
ATOM     29  C   UNL     1       5.159  -5.301  24.348  0.00  0.00    +0.177 C 
ATOM     30  C   UNL     1       6.535  -5.630  23.758  0.00  0.00    +0.180 C 
ATOM     31  C   UNL     1       6.685  -4.980  22.367  0.00  0.00    +0.214 C 
BRANCH  31  32
ATOM     32  O   UNL     1       7.988  -5.256  21.837  0.00  0.00    -0.383 OA
ATOM     33  H   UNL     1       8.369  -6.012  22.316  0.00  0.00    +0.210 HD
ENDBRANCH  31  32
BRANCH  30  34
ATOM     34  O   UNL     1       7.555  -5.253  24.692  0.00  0.00    -0.386 OA
ATOM     35  H   UNL     1       7.318  -5.586  25.575  0.00  0.00    +0.210 HD
ENDBRANCH  30  34
BRANCH  29  36
ATOM     36  O   UNL     1       4.140  -5.984  23.611  0.00  0.00    -0.386 OA
ATOM     37  H   UNL     1       3.826  -6.731  24.154  0.00  0.00    +0.210 HD
ENDBRANCH  29  36
BRANCH  28  38
ATOM     38  C   UNL     1       3.541  -3.413  24.866  0.00  0.00    +0.190 C 
BRANCH  38  39
ATOM     39  O   UNL     1       2.866  -4.554  25.400  0.00  0.00    -0.392 OA
ATOM     40  H   UNL     1       3.341  -4.849  26.195  0.00  0.00    +0.210 HD
ENDBRANCH  38  39
ENDBRANCH  28  38
ENDBRANCH  25  26
ENDBRANCH  22  25
ENDBRANCH  18  19
ENDBRANCH  15  17
ENDBRANCH  14  15
ENDBRANCH  13  14
ENDBRANCH   3  13
BRANCH   1  41
ATOM     41  O   UNL     1       4.144   4.225  27.950  0.00  0.00    -0.337 OA
BRANCH  41  46
ATOM     42  C   UNL     1       0.469   2.218  25.301  0.00  0.00    +0.041 C 
ATOM     43  C   UNL     1       1.967   2.365  25.478  0.00  0.00    +0.150 C 
ATOM     44  O   UNL     1       2.520   1.559  26.513  0.00  0.00    -0.334 OA
ATOM     45  C   UNL     1       2.692   2.087  27.852  0.00  0.00    +0.340 C 
ATOM     46  C   UNL     1       2.803   3.679  28.125  0.00  0.00    +0.221 C 
ATOM     47  C   UNL     1       1.885   4.244  27.085  0.00  0.00    +0.180 C 
ATOM     48  C   UNL     1       2.442   3.768  25.684  0.00  0.00    +0.174 C 
BRANCH  48  49
ATOM     49  O   UNL     1       3.889   3.598  25.521  0.00  0.00    -0.387 OA
ATOM     50  H   UNL     1       4.229   4.331  24.970  0.00  0.00    +0.210 HD
ENDBRANCH  48  49
BRANCH  47  51
ATOM     51  O   UNL     1       1.545   5.603  27.333  0.00  0.00    -0.386 OA
ATOM     52  H   UNL     1       0.951   5.715  28.094  0.00  0.00    +0.210 HD
ENDBRANCH  47  51
BRANCH  45  53
ATOM     53  O   UNL     1       3.895   1.447  28.320  0.00  0.00    -0.453 OA
BRANCH  53  54
ATOM     54  C   UNL     1       3.835   0.070  28.362  0.00  0.00    +0.214 A 
ATOM     55  C   UNL     1       2.705  -0.543  29.150  0.00  0.00    +0.238 A 
ATOM     56  O   UNL     1       1.931   0.164  29.787  0.00  0.00    -0.283 OA
ATOM     57  C   UNL     1       2.587  -1.998  29.176  0.00  0.00    +0.109 A 
ATOM     58  C   UNL     1       3.629  -2.719  28.619  0.00  0.00    +0.147 A 
ATOM     59  C   UNL     1       3.627  -4.113  28.670  0.00  0.00    +0.092 A 
ATOM     60  C   UNL     1       2.550  -4.755  29.253  0.00  0.00    +0.124 A 
ATOM     61  C   UNL     1       1.494  -4.068  29.810  0.00  0.00    +0.091 A 
ATOM     62  O   UNL     1       4.702  -2.136  28.005  0.00  0.00    -0.451 OA
ATOM     63  C   UNL     1       1.508  -2.676  29.766  0.00  0.00    +0.135 A 
ATOM     64  C   UNL     1       4.797  -0.745  27.865  0.00  0.00    +0.181 A 
BRANCH  64  65
ATOM     65  C   UNL     1       6.113  -0.378  27.185  0.00  0.00    +0.025 A 
ATOM     66  C   UNL     1       6.993  -1.457  26.874  0.00  0.00    +0.015 A 
ATOM     67  C   UNL     1       8.264  -1.283  26.311  0.00  0.00    +0.050 A 
ATOM     68  C   UNL     1       8.689  -0.010  26.011  0.00  0.00    +0.158 A 
ATOM     69  C   UNL     1       7.854   1.074  26.247  0.00  0.00    +0.159 A 
ATOM     70  C   UNL     1       6.571   0.905  26.826  0.00  0.00    +0.060 A 
BRANCH  69  71
ATOM     71  O   UNL     1       8.345   2.298  25.875  0.00  0.00    -0.503 OA
ATOM     72  H   UNL     1       9.310   2.248  25.792  0.00  0.00    +0.292 HD
ENDBRANCH  69  71
BRANCH  68  73
ATOM     73  O   UNL     1       9.936   0.153  25.464  0.00  0.00    -0.503 OA
ATOM     74  H   UNL     1      10.334  -0.742  25.470  0.00  0.00    +0.292 HD
ENDBRANCH  68  73
ENDBRANCH  64  65
BRANCH  63  75
ATOM     75  O   UNL     1       0.445  -1.995  30.291  0.00  0.00    -0.506 OA
ATOM     76  H   UNL     1       0.755  -1.200  30.758  0.00  0.00    +0.292 HD
ENDBRANCH  63  75
BRANCH  60  77
ATOM     77  O   UNL     1       2.499  -6.133  29.317  0.00  0.00    -0.507 OA
ATOM     78  H   UNL     1       3.395  -6.494  29.189  0.00  0.00    +0.292 HD
ENDBRANCH  60  77
ENDBRANCH  53  54
ENDBRANCH  45  53
ENDBRANCH  41  46
ENDBRANCH   1  41
TORSDOF 26
ENDMDL
MODEL 4
REMARK VINA RESULT:      -4.5      2.772      8.749
REMARK  Name = 
REMARK  27 active torsions:
REMARK  status: ('A' for Active; 'I' for Inactive)
REMARK    1  A    between atoms: C_1  and  C_2
REMARK    2  A    between atoms: C_3  and  O_74
REMARK    3  A    between atoms: C_5  and  O_73
REMARK    4  A    between atoms: C_6  and  O_33
REMARK    5  A    between atoms: C_8  and  O_11
REMARK    6  A    between atoms: O_11  and  C_12
REMARK    7  A    between atoms: C_13  and  C_25
REMARK    8  A    between atoms: C_17  and  O_24
REMARK    9  A    between atoms: C_19  and  O_23
REMARK   10  A    between atoms: C_27  and  O_32
REMARK   11  A    between atoms: C_28  and  O_31
REMARK   12  A    between atoms: O_33  and  C_34
REMARK   13  A    between atoms: C_36  and  O_72
REMARK   14  A    between atoms: C_38  and  O_71
REMARK   15  A    between atoms: C_39  and  O_70
REMARK   16  A    between atoms: C_41  and  C_43
REMARK   17  A    between atoms: C_43  and  O_44
REMARK   18  A    between atoms: O_44  and  C_45
REMARK   19  A    between atoms: C_45  and  C_47
REMARK   20  A    between atoms: C_48  and  C_49
REMARK   21  A    between atoms: C_52  and  O_55
REMARK   22  A    between atoms: O_55  and  C_56
REMARK   23  A    between atoms: C_58  and  O_69
REMARK   24  A    between atoms: C_59  and  O_68
REMARK   25  A    between atoms: C_61  and  O_67
REMARK   26  A    between atoms: C_63  and  C_65
REMARK   27  A    between atoms: C_65  and  O_66
REMARK                            x       y       z     vdW  Elec       q    Type
REMARK                         _______ _______ _______ _____ _____    ______ ____
ROOT
ATOM      1  C   UNL     1       1.068  -5.632  25.928  0.00  0.00    +0.282 C 
ATOM      2  O   UNL     1       0.490  -4.638  26.850  0.00  0.00    -0.339 OA
ATOM      3  C   UNL     1       1.462  -4.008  27.718  0.00  0.00    +0.190 C 
ATOM      4  C   UNL     1       2.219  -5.062  28.575  0.00  0.00    +0.178 C 
ATOM      5  C   UNL     1       2.710  -6.263  27.703  0.00  0.00    +0.179 C 
ATOM      6  C   UNL     1       1.610  -6.813  26.774  0.00  0.00    +0.201 C 
ENDROOT
BRANCH   6   7
ATOM      7  O   UNL     1       0.593  -7.469  27.550  0.00  0.00    -0.384 OA
ATOM      8  H   UNL     1       1.002  -8.259  27.959  0.00  0.00    +0.210 HD
ENDBRANCH   6   7
BRANCH   5   9
ATOM      9  O   UNL     1       3.225  -7.301  28.554  0.00  0.00    -0.386 OA
ATOM     10  H   UNL     1       3.651  -7.954  27.967  0.00  0.00    +0.210 HD
ENDBRANCH   5   9
BRANCH   4  11
ATOM     11  O   UNL     1       1.400  -5.583  29.629  0.00  0.00    -0.386 OA
ATOM     12  H   UNL     1       0.496  -5.608  29.252  0.00  0.00    +0.210 HD
ENDBRANCH   4  11
BRANCH   3  13
ATOM     13  C   UNL     1       1.111  -2.534  28.304  0.00  0.00    +0.266 C 
BRANCH  13  14
ATOM     14  O   UNL     1       1.773  -2.089  29.620  0.00  0.00    -0.459 OA
BRANCH  14  15
ATOM     15  C   UNL     1       3.087  -1.662  29.780  0.00  0.00    +0.332 C 
ATOM     16  O   UNL     1       3.919  -2.221  30.485  0.00  0.00    -0.246 OA
BRANCH  15  17
ATOM     17  C   UNL     1       3.467  -0.450  28.922  0.00  0.00    +0.092 C 
ATOM     18  C   UNL     1       4.342  -0.442  27.872  0.00  0.00    +0.015 C 
BRANCH  18  19
ATOM     19  C   UNL     1       4.838   0.736  27.078  0.00  0.00    -0.025 A 
ATOM     20  C   UNL     1       4.315   1.154  25.838  0.00  0.00    +0.011 A 
ATOM     21  C   UNL     1       4.882   2.219  25.090  0.00  0.00    +0.046 A 
ATOM     22  C   UNL     1       6.005   2.897  25.575  0.00  0.00    +0.124 A 
ATOM     23  C   UNL     1       6.557   2.443  26.778  0.00  0.00    +0.046 A 
ATOM     24  C   UNL     1       6.001   1.379  27.511  0.00  0.00    +0.011 A 
BRANCH  22  25
ATOM     25  O   UNL     1       6.649   3.977  25.051  0.00  0.00    -0.461 OA
BRANCH  25  26
ATOM     26  C   UNL     1       7.862   3.797  24.306  0.00  0.00    +0.339 C 
ATOM     27  O   UNL     1       8.964   4.465  24.922  0.00  0.00    -0.331 OA
ATOM     28  C   UNL     1       8.809   5.898  24.956  0.00  0.00    +0.179 C 
ATOM     29  C   UNL     1       8.718   6.489  23.532  0.00  0.00    +0.177 C 
ATOM     30  C   UNL     1       7.551   5.845  22.776  0.00  0.00    +0.180 C 
ATOM     31  C   UNL     1       7.656   4.307  22.850  0.00  0.00    +0.214 C 
BRANCH  31  32
ATOM     32  O   UNL     1       6.540   3.708  22.178  0.00  0.00    -0.383 OA
ATOM     33  H   UNL     1       6.764   2.788  21.954  0.00  0.00    +0.210 HD
ENDBRANCH  31  32
BRANCH  30  34
ATOM     34  O   UNL     1       6.314   6.370  23.274  0.00  0.00    -0.386 OA
ATOM     35  H   UNL     1       6.502   7.080  23.912  0.00  0.00    +0.210 HD
ENDBRANCH  30  34
BRANCH  29  36
ATOM     36  O   UNL     1       9.940   6.261  22.822  0.00  0.00    -0.386 OA
ATOM     37  H   UNL     1      10.225   5.346  23.001  0.00  0.00    +0.210 HD
ENDBRANCH  29  36
BRANCH  28  38
ATOM     38  C   UNL     1       9.982   6.511  25.734  0.00  0.00    +0.190 C 
BRANCH  38  39
ATOM     39  O   UNL     1       9.624   6.819  27.084  0.00  0.00    -0.392 OA
ATOM     40  H   UNL     1       9.043   7.597  27.079  0.00  0.00    +0.210 HD
ENDBRANCH  38  39
ENDBRANCH  28  38
ENDBRANCH  25  26
ENDBRANCH  22  25
ENDBRANCH  18  19
ENDBRANCH  15  17
ENDBRANCH  14  15
ENDBRANCH  13  14
ENDBRANCH   3  13
BRANCH   1  41
ATOM     41  O   UNL     1       2.168  -5.163  25.086  0.00  0.00    -0.337 OA
BRANCH  41  46
ATOM     42  C   UNL     1       5.749  -6.944  22.161  0.00  0.00    +0.041 C 
ATOM     43  C   UNL     1       4.686  -5.882  22.355  0.00  0.00    +0.150 C 
ATOM     44  O   UNL     1       5.054  -4.837  23.249  0.00  0.00    -0.334 OA
ATOM     45  C   UNL     1       4.706  -4.906  24.655  0.00  0.00    +0.340 C 
ATOM     46  C   UNL     1       3.470  -5.814  25.175  0.00  0.00    +0.221 C 
ATOM     47  C   UNL     1       3.519  -6.982  24.240  0.00  0.00    +0.180 C 
ATOM     48  C   UNL     1       3.349  -6.400  22.780  0.00  0.00    +0.174 C 
BRANCH  48  49
ATOM     49  O   UNL     1       2.517  -5.208  22.589  0.00  0.00    -0.387 OA
ATOM     50  H   UNL     1       3.103  -4.438  22.443  0.00  0.00    +0.210 HD
ENDBRANCH  48  49
BRANCH  47  51
ATOM     51  O   UNL     1       2.749  -8.087  24.699  0.00  0.00    -0.386 OA
ATOM     52  H   UNL     1       3.274  -8.737  25.196  0.00  0.00    +0.210 HD
ENDBRANCH  47  51
BRANCH  45  53
ATOM     53  O   UNL     1       4.460  -3.532  25.014  0.00  0.00    -0.453 OA
BRANCH  53  54
ATOM     54  C   UNL     1       5.596  -2.783  25.234  0.00  0.00    +0.214 A 
ATOM     55  C   UNL     1       5.961  -1.767  24.183  0.00  0.00    +0.238 A 
ATOM     56  O   UNL     1       5.312  -1.678  23.145  0.00  0.00    -0.283 OA
ATOM     57  C   UNL     1       7.134  -0.925  24.408  0.00  0.00    +0.109 A 
ATOM     58  C   UNL     1       7.933  -1.246  25.493  0.00  0.00    +0.147 A 
ATOM     59  C   UNL     1       9.110  -0.539  25.732  0.00  0.00    +0.092 A 
ATOM     60  C   UNL     1       9.441   0.508  24.891  0.00  0.00    +0.124 A 
ATOM     61  C   UNL     1       8.665   0.856  23.807  0.00  0.00    +0.091 A 
ATOM     62  O   UNL     1       7.638  -2.250  26.372  0.00  0.00    -0.451 OA
ATOM     63  C   UNL     1       7.497   0.138  23.566  0.00  0.00    +0.135 A 
ATOM     64  C   UNL     1       6.465  -3.007  26.250  0.00  0.00    +0.181 A 
BRANCH  64  65
ATOM     65  C   UNL     1       6.421  -4.078  27.336  0.00  0.00    +0.025 A 
ATOM     66  C   UNL     1       7.322  -5.174  27.189  0.00  0.00    +0.015 A 
ATOM     67  C   UNL     1       7.359  -6.269  28.062  0.00  0.00    +0.050 A 
ATOM     68  C   UNL     1       6.507  -6.289  29.140  0.00  0.00    +0.158 A 
ATOM     69  C   UNL     1       5.643  -5.225  29.361  0.00  0.00    +0.159 A 
ATOM     70  C   UNL     1       5.592  -4.119  28.475  0.00  0.00    +0.060 A 
BRANCH  69  71
ATOM     71  O   UNL     1       4.862  -5.313  30.485  0.00  0.00    -0.503 OA
ATOM     72  H   UNL     1       3.981  -5.637  30.242  0.00  0.00    +0.292 HD
ENDBRANCH  69  71
BRANCH  68  73
ATOM     73  O   UNL     1       6.547  -7.366  29.988  0.00  0.00    -0.503 OA
ATOM     74  H   UNL     1       6.679  -8.142  29.405  0.00  0.00    +0.292 HD
ENDBRANCH  68  73
ENDBRANCH  64  65
BRANCH  63  75
ATOM     75  O   UNL     1       6.710   0.505  22.509  0.00  0.00    -0.506 OA
ATOM     76  H   UNL     1       5.882  -0.003  22.517  0.00  0.00    +0.292 HD
ENDBRANCH  63  75
BRANCH  60  77
ATOM     77  O   UNL     1      10.591   1.243  25.095  0.00  0.00    -0.507 OA
ATOM     78  H   UNL     1      10.412   2.181  24.898  0.00  0.00    +0.292 HD
ENDBRANCH  60  77
ENDBRANCH  53  54
ENDBRANCH  45  53
ENDBRANCH  41  46
ENDBRANCH   1  41
TORSDOF 26
ENDMDL
MODEL 5
REMARK VINA RESULT:      -4.1      2.185      9.199
REMARK  Name = 
REMARK  27 active torsions:
REMARK  status: ('A' for Active; 'I' for Inactive)
REMARK    1  A    between atoms: C_1  and  C_2
REMARK    2  A    between atoms: C_3  and  O_74
REMARK    3  A    between atoms: C_5  and  O_73
REMARK    4  A    between atoms: C_6  and  O_33
REMARK    5  A    between atoms: C_8  and  O_11
REMARK    6  A    between atoms: O_11  and  C_12
REMARK    7  A    between atoms: C_13  and  C_25
REMARK    8  A    between atoms: C_17  and  O_24
REMARK    9  A    between atoms: C_19  and  O_23
REMARK   10  A    between atoms: C_27  and  O_32
REMARK   11  A    between atoms: C_28  and  O_31
REMARK   12  A    between atoms: O_33  and  C_34
REMARK   13  A    between atoms: C_36  and  O_72
REMARK   14  A    between atoms: C_38  and  O_71
REMARK   15  A    between atoms: C_39  and  O_70
REMARK   16  A    between atoms: C_41  and  C_43
REMARK   17  A    between atoms: C_43  and  O_44
REMARK   18  A    between atoms: O_44  and  C_45
REMARK   19  A    between atoms: C_45  and  C_47
REMARK   20  A    between atoms: C_48  and  C_49
REMARK   21  A    between atoms: C_52  and  O_55
REMARK   22  A    between atoms: O_55  and  C_56
REMARK   23  A    between atoms: C_58  and  O_69
REMARK   24  A    between atoms: C_59  and  O_68
REMARK   25  A    between atoms: C_61  and  O_67
REMARK   26  A    between atoms: C_63  and  C_65
REMARK   27  A    between atoms: C_65  and  O_66
REMARK                            x       y       z     vdW  Elec       q    Type
REMARK                         _______ _______ _______ _____ _____    ______ ____
ROOT
ATOM      1  C   UNL     1       6.402  -3.201  23.180  0.00  0.00    +0.282 C 
ATOM      2  O   UNL     1       6.854  -4.355  23.979  0.00  0.00    -0.339 OA
ATOM      3  C   UNL     1       7.868  -5.158  23.328  0.00  0.00    +0.190 C 
ATOM      4  C   UNL     1       7.364  -5.699  21.959  0.00  0.00    +0.178 C 
ATOM      5  C   UNL     1       6.689  -4.571  21.111  0.00  0.00    +0.179 C 
ATOM      6  C   UNL     1       5.675  -3.742  21.923  0.00  0.00    +0.201 C 
ENDROOT
BRANCH   6   7
ATOM      7  O   UNL     1       4.522  -4.544  22.234  0.00  0.00    -0.384 OA
ATOM      8  H   UNL     1       3.732  -4.045  21.941  0.00  0.00    +0.210 HD
ENDBRANCH   6   7
BRANCH   5   9
ATOM      9  O   UNL     1       6.066  -5.147  19.950  0.00  0.00    -0.386 OA
ATOM     10  H   UNL     1       6.702  -5.790  19.585  0.00  0.00    +0.210 HD
ENDBRANCH   5   9
BRANCH   4  11
ATOM     11  O   UNL     1       6.418  -6.762  22.119  0.00  0.00    -0.386 OA
ATOM     12  H   UNL     1       5.771  -6.630  21.395  0.00  0.00    +0.210 HD
ENDBRANCH   4  11
BRANCH   3  13
ATOM     13  C   UNL     1       8.863  -6.031  24.269  0.00  0.00    +0.266 C 
BRANCH  13  14
ATOM     14  O   UNL     1       9.059  -5.600  25.733  0.00  0.00    -0.459 OA
BRANCH  14  15
ATOM     15  C   UNL     1       8.084  -5.077  26.576  0.00  0.00    +0.332 C 
ATOM     16  O   UNL     1       7.194  -5.736  27.102  0.00  0.00    -0.246 OA
BRANCH  15  17
ATOM     17  C   UNL     1       8.246  -3.585  26.882  0.00  0.00    +0.092 C 
ATOM     18  C   UNL     1       7.239  -2.693  27.124  0.00  0.00    +0.015 C 
BRANCH  18  19
ATOM     19  C   UNL     1       7.335  -1.203  27.311  0.00  0.00    -0.025 A 
ATOM     20  C   UNL     1       8.235  -0.358  26.630  0.00  0.00    +0.011 A 
ATOM     21  C   UNL     1       8.343   1.028  26.913  0.00  0.00    +0.046 A 
ATOM     22  C   UNL     1       7.541   1.608  27.901  0.00  0.00    +0.124 A 
ATOM     23  C   UNL     1       6.690   0.757  28.615  0.00  0.00    +0.046 A 
ATOM     24  C   UNL     1       6.594  -0.619  28.342  0.00  0.00    +0.011 A 
BRANCH  22  25
ATOM     25  O   UNL     1       7.444   2.915  28.271  0.00  0.00    -0.461 OA
BRANCH  25  26
ATOM     26  C   UNL     1       6.218   3.631  28.062  0.00  0.00    +0.339 C 
ATOM     27  O   UNL     1       6.354   4.624  27.043  0.00  0.00    -0.331 OA
ATOM     28  C   UNL     1       7.287   5.666  27.390  0.00  0.00    +0.179 C 
ATOM     29  C   UNL     1       6.833   6.435  28.650  0.00  0.00    +0.177 C 
ATOM     30  C   UNL     1       6.665   5.459  29.820  0.00  0.00    +0.180 C 
ATOM     31  C   UNL     1       5.763   4.280  29.401  0.00  0.00    +0.214 C 
BRANCH  31  32
ATOM     32  O   UNL     1       5.641   3.349  30.485  0.00  0.00    -0.383 OA
ATOM     33  H   UNL     1       5.548   3.845  31.317  0.00  0.00    +0.210 HD
ENDBRANCH  31  32
BRANCH  30  34
ATOM     34  O   UNL     1       7.957   5.065  30.300  0.00  0.00    -0.386 OA
ATOM     35  H   UNL     1       8.607   5.158  29.582  0.00  0.00    +0.210 HD
ENDBRANCH  30  34
BRANCH  29  36
ATOM     36  O   UNL     1       5.595   7.108  28.399  0.00  0.00    -0.386 OA
ATOM     37  H   UNL     1       5.745   7.758  27.687  0.00  0.00    +0.210 HD
ENDBRANCH  29  36
BRANCH  28  38
ATOM     38  C   UNL     1       7.447   6.613  26.192  0.00  0.00    +0.190 C 
BRANCH  38  39
ATOM     39  O   UNL     1       6.212   6.816  25.502  0.00  0.00    -0.392 OA
ATOM     40  H   UNL     1       5.920   7.730  25.654  0.00  0.00    +0.210 HD
ENDBRANCH  38  39
ENDBRANCH  28  38
ENDBRANCH  25  26
ENDBRANCH  22  25
ENDBRANCH  18  19
ENDBRANCH  15  17
ENDBRANCH  14  15
ENDBRANCH  13  14
ENDBRANCH   3  13
BRANCH   1  41
ATOM     41  O   UNL     1       7.449  -2.292  22.716  0.00  0.00    -0.337 OA
BRANCH  41  46
ATOM     42  C   UNL     1      10.904   1.255  22.880  0.00  0.00    +0.041 C 
ATOM     43  C   UNL     1       9.729   0.669  22.125  0.00  0.00    +0.150 C 
ATOM     44  O   UNL     1       8.455   0.993  22.672  0.00  0.00    -0.334 OA
ATOM     45  C   UNL     1       7.806   0.106  23.617  0.00  0.00    +0.340 C 
ATOM     46  C   UNL     1       8.169  -1.471  23.682  0.00  0.00    +0.221 C 
ATOM     47  C   UNL     1       9.631  -1.473  23.360  0.00  0.00    +0.180 C 
ATOM     48  C   UNL     1       9.781  -0.813  21.931  0.00  0.00    +0.174 C 
BRANCH  48  49
ATOM     49  O   UNL     1       8.708  -1.003  20.951  0.00  0.00    -0.387 OA
ATOM     50  H   UNL     1       7.865  -0.706  21.350  0.00  0.00    +0.210 HD
ENDBRANCH  48  49
BRANCH  47  51
ATOM     51  O   UNL     1      10.264  -2.705  23.686  0.00  0.00    -0.386 OA
ATOM     52  H   UNL     1       9.972  -3.071  24.538  0.00  0.00    +0.210 HD
ENDBRANCH  47  51
BRANCH  45  53
ATOM     53  O   UNL     1       6.405   0.251  23.315  0.00  0.00    -0.453 OA
BRANCH  53  54
ATOM     54  C   UNL     1       5.637   0.718  24.360  0.00  0.00    +0.214 A 
ATOM     55  C   UNL     1       4.878  -0.306  25.164  0.00  0.00    +0.238 A 
ATOM     56  O   UNL     1       4.888  -1.489  24.840  0.00  0.00    -0.283 OA
ATOM     57  C   UNL     1       4.092   0.152  26.307  0.00  0.00    +0.109 A 
ATOM     58  C   UNL     1       3.956   1.521  26.463  0.00  0.00    +0.147 A 
ATOM     59  C   UNL     1       3.160   2.037  27.485  0.00  0.00    +0.092 A 
ATOM     60  C   UNL     1       2.544   1.158  28.356  0.00  0.00    +0.124 A 
ATOM     61  C   UNL     1       2.663  -0.209  28.232  0.00  0.00    +0.091 A 
ATOM     62  O   UNL     1       4.567   2.434  25.650  0.00  0.00    -0.451 OA
ATOM     63  C   UNL     1       3.449  -0.718  27.203  0.00  0.00    +0.135 A 
ATOM     64  C   UNL     1       5.417   2.033  24.610  0.00  0.00    +0.181 A 
BRANCH  64  65
ATOM     65  C   UNL     1       5.918   3.255  23.846  0.00  0.00    +0.025 A 
ATOM     66  C   UNL     1       4.925   4.080  23.240  0.00  0.00    +0.015 A 
ATOM     67  C   UNL     1       5.223   5.199  22.450  0.00  0.00    +0.050 A 
ATOM     68  C   UNL     1       6.539   5.549  22.264  0.00  0.00    +0.158 A 
ATOM     69  C   UNL     1       7.546   4.810  22.871  0.00  0.00    +0.159 A 
ATOM     70  C   UNL     1       7.251   3.671  23.662  0.00  0.00    +0.060 A 
BRANCH  69  71
ATOM     71  O   UNL     1       8.824   5.260  22.664  0.00  0.00    -0.503 OA
ATOM     72  H   UNL     1       9.012   5.992  23.272  0.00  0.00    +0.292 HD
ENDBRANCH  69  71
BRANCH  68  73
ATOM     73  O   UNL     1       6.823   6.642  21.487  0.00  0.00    -0.503 OA
ATOM     74  H   UNL     1       7.412   6.306  20.781  0.00  0.00    +0.292 HD
ENDBRANCH  68  73
ENDBRANCH  64  65
BRANCH  63  75
ATOM     75  O   UNL     1       3.594  -2.074  27.099  0.00  0.00    -0.506 OA
ATOM     76  H   UNL     1       3.704  -2.328  26.168  0.00  0.00    +0.292 HD
ENDBRANCH  63  75
BRANCH  60  77
ATOM     77  O   UNL     1       1.755   1.623  29.389  0.00  0.00    -0.507 OA
ATOM     78  H   UNL     1       0.894   1.910  29.032  0.00  0.00    +0.292 HD
ENDBRANCH  60  77
ENDBRANCH  53  54
ENDBRANCH  45  53
ENDBRANCH  41  46
ENDBRANCH   1  41
TORSDOF 26
ENDMDL
MODEL 6
REMARK VINA RESULT:      -3.4      2.389      8.621
REMARK  Name = 
REMARK  27 active torsions:
REMARK  status: ('A' for Active; 'I' for Inactive)
REMARK    1  A    between atoms: C_1  and  C_2
REMARK    2  A    between atoms: C_3  and  O_74
REMARK    3  A    between atoms: C_5  and  O_73
REMARK    4  A    between atoms: C_6  and  O_33
REMARK    5  A    between atoms: C_8  and  O_11
REMARK    6  A    between atoms: O_11  and  C_12
REMARK    7  A    between atoms: C_13  and  C_25
REMARK    8  A    between atoms: C_17  and  O_24
REMARK    9  A    between atoms: C_19  and  O_23
REMARK   10  A    between atoms: C_27  and  O_32
REMARK   11  A    between atoms: C_28  and  O_31
REMARK   12  A    between atoms: O_33  and  C_34
REMARK   13  A    between atoms: C_36  and  O_72
REMARK   14  A    between atoms: C_38  and  O_71
REMARK   15  A    between atoms: C_39  and  O_70
REMARK   16  A    between atoms: C_41  and  C_43
REMARK   17  A    between atoms: C_43  and  O_44
REMARK   18  A    between atoms: O_44  and  C_45
REMARK   19  A    between atoms: C_45  and  C_47
REMARK   20  A    between atoms: C_48  and  C_49
REMARK   21  A    between atoms: C_52  and  O_55
REMARK   22  A    between atoms: O_55  and  C_56
REMARK   23  A    between atoms: C_58  and  O_69
REMARK   24  A    between atoms: C_59  and  O_68
REMARK   25  A    between atoms: C_61  and  O_67
REMARK   26  A    between atoms: C_63  and  C_65
REMARK   27  A    between atoms: C_65  and  O_66
REMARK                            x       y       z     vdW  Elec       q    Type
REMARK                         _______ _______ _______ _____ _____    ______ ____
ROOT
ATOM      1  C   UNL     1       2.137  -5.565  24.025  0.00  0.00    +0.282 C 
ATOM      2  O   UNL     1       1.117  -4.565  24.392  0.00  0.00    -0.339 OA
ATOM      3  C   UNL     1       1.568  -3.598  25.370  0.00  0.00    +0.190 C 
ATOM      4  C   UNL     1       2.036  -4.297  26.679  0.00  0.00    +0.178 C 
ATOM      5  C   UNL     1       2.982  -5.505  26.376  0.00  0.00    +0.179 C 
ATOM      6  C   UNL     1       2.429  -6.433  25.276  0.00  0.00    +0.201 C 
ENDROOT
BRANCH   6   7
ATOM      7  O   UNL     1       1.274  -7.137  25.762  0.00  0.00    -0.384 OA
ATOM      8  H   UNL     1       0.500  -6.807  25.261  0.00  0.00    +0.210 HD
ENDBRANCH   6   7
BRANCH   5   9
ATOM      9  O   UNL     1       3.230  -6.240  27.587  0.00  0.00    -0.386 OA
ATOM     10  H   UNL     1       4.186  -6.159  27.768  0.00  0.00    +0.210 HD
ENDBRANCH   5   9
BRANCH   4  11
ATOM     11  O   UNL     1       0.931  -4.780  27.452  0.00  0.00    -0.386 OA
ATOM     12  H   UNL     1       1.008  -5.756  27.413  0.00  0.00    +0.210 HD
ENDBRANCH   4  11
BRANCH   3  13
ATOM     13  C   UNL     1       0.833  -2.150  25.400  0.00  0.00    +0.266 C 
BRANCH  13  14
ATOM     14  O   UNL     1       0.446  -1.549  26.763  0.00  0.00    -0.459 OA
BRANCH  14  15
ATOM     15  C   UNL     1       1.278  -0.826  27.612  0.00  0.00    +0.332 C 
ATOM     16  O   UNL     1       1.274  -0.920  28.834  0.00  0.00    -0.246 OA
BRANCH  15  17
ATOM     17  C   UNL     1       2.293   0.068  26.892  0.00  0.00    +0.092 C 
ATOM     18  C   UNL     1       3.116   0.991  27.475  0.00  0.00    +0.015 C 
BRANCH  18  19
ATOM     19  C   UNL     1       4.039   1.973  26.806  0.00  0.00    -0.025 A 
ATOM     20  C   UNL     1       4.019   3.368  27.005  0.00  0.00    +0.011 A 
ATOM     21  C   UNL     1       4.855   4.256  26.278  0.00  0.00    +0.046 A 
ATOM     22  C   UNL     1       5.741   3.757  25.319  0.00  0.00    +0.124 A 
ATOM     23  C   UNL     1       5.718   2.378  25.081  0.00  0.00    +0.046 A 
ATOM     24  C   UNL     1       4.879   1.502  25.793  0.00  0.00    +0.011 A 
BRANCH  22  25
ATOM     25  O   UNL     1       6.664   4.425  24.573  0.00  0.00    -0.461 OA
BRANCH  25  26
ATOM     26  C   UNL     1       8.064   4.211  24.803  0.00  0.00    +0.339 C 
ATOM     27  O   UNL     1       8.528   4.938  25.943  0.00  0.00    -0.331 OA
ATOM     28  C   UNL     1       8.437   6.368  25.777  0.00  0.00    +0.179 C 
ATOM     29  C   UNL     1       9.309   6.855  24.599  0.00  0.00    +0.177 C 
ATOM     30  C   UNL     1       8.886   6.142  23.310  0.00  0.00    +0.180 C 
ATOM     31  C   UNL     1       8.866   4.615  23.532  0.00  0.00    +0.214 C 
BRANCH  31  32
ATOM     32  O   UNL     1       8.431   3.953  22.337  0.00  0.00    -0.383 OA
ATOM     33  H   UNL     1       7.599   4.360  22.037  0.00  0.00    +0.210 HD
ENDBRANCH  31  32
BRANCH  30  34
ATOM     34  O   UNL     1       7.640   6.682  22.854  0.00  0.00    -0.386 OA
ATOM     35  H   UNL     1       6.924   6.368  23.434  0.00  0.00    +0.210 HD
ENDBRANCH  30  34
BRANCH  29  36
ATOM     36  O   UNL     1      10.691   6.596  24.865  0.00  0.00    -0.386 OA
ATOM     37  H   UNL     1      11.222   7.096  24.218  0.00  0.00    +0.210 HD
ENDBRANCH  29  36
BRANCH  28  38
ATOM     38  C   UNL     1       8.848   7.051  27.089  0.00  0.00    +0.190 C 
BRANCH  38  39
ATOM     39  O   UNL     1       8.080   6.581  28.199  0.00  0.00    -0.392 OA
ATOM     40  H   UNL     1       7.219   7.031  28.190  0.00  0.00    +0.210 HD
ENDBRANCH  38  39
ENDBRANCH  28  38
ENDBRANCH  25  26
ENDBRANCH  22  25
ENDBRANCH  18  19
ENDBRANCH  15  17
ENDBRANCH  14  15
ENDBRANCH  13  14
ENDBRANCH   3  13
BRANCH   1  41
ATOM     41  O   UNL     1       3.417  -5.034  23.559  0.00  0.00    -0.337 OA
BRANCH  41  46
ATOM     42  C   UNL     1       7.849  -6.966  22.477  0.00  0.00    +0.041 C 
ATOM     43  C   UNL     1       6.726  -6.051  22.033  0.00  0.00    +0.150 C 
ATOM     44  O   UNL     1       6.724  -4.773  22.661  0.00  0.00    -0.334 OA
ATOM     45  C   UNL     1       5.938  -4.535  23.855  0.00  0.00    +0.340 C 
ATOM     46  C   UNL     1       4.650  -5.450  24.215  0.00  0.00    +0.221 C 
ATOM     47  C   UNL     1       5.066  -6.796  23.710  0.00  0.00    +0.180 C 
ATOM     48  C   UNL     1       5.353  -6.630  22.164  0.00  0.00    +0.174 C 
BRANCH  48  49
ATOM     49  O   UNL     1       4.568  -5.655  21.402  0.00  0.00    -0.387 OA
ATOM     50  H   UNL     1       4.663  -5.853  20.449  0.00  0.00    +0.210 HD
ENDBRANCH  48  49
BRANCH  47  51
ATOM     51  O   UNL     1       4.249  -7.848  24.210  0.00  0.00    -0.386 OA
ATOM     52  H   UNL     1       4.582  -8.732  23.981  0.00  0.00    +0.210 HD
ENDBRANCH  47  51
BRANCH  45  53
ATOM     53  O   UNL     1       5.514  -3.165  23.719  0.00  0.00    -0.453 OA
BRANCH  53  54
ATOM     54  C   UNL     1       6.462  -2.232  24.081  0.00  0.00    +0.214 A 
ATOM     55  C   UNL     1       7.337  -1.682  22.983  0.00  0.00    +0.238 A 
ATOM     56  O   UNL     1       7.251  -2.115  21.838  0.00  0.00    -0.283 OA
ATOM     57  C   UNL     1       8.320  -0.658  23.326  0.00  0.00    +0.109 A 
ATOM     58  C   UNL     1       8.501  -0.393  24.673  0.00  0.00    +0.147 A 
ATOM     59  C   UNL     1       9.474   0.517  25.086  0.00  0.00    +0.092 A 
ATOM     60  C   UNL     1      10.222   1.173  24.125  0.00  0.00    +0.124 A 
ATOM     61  C   UNL     1      10.062   0.937  22.778  0.00  0.00    +0.091 A 
ATOM     62  O   UNL     1       7.769  -0.989  25.661  0.00  0.00    -0.451 OA
ATOM     63  C   UNL     1       9.098   0.018  22.372  0.00  0.00    +0.135 A 
ATOM     64  C   UNL     1       6.743  -1.896  25.364  0.00  0.00    +0.181 A 
BRANCH  64  65
ATOM     65  C   UNL     1       6.132  -2.433  26.655  0.00  0.00    +0.025 A 
ATOM     66  C   UNL     1       6.506  -3.756  27.037  0.00  0.00    +0.015 A 
ATOM     67  C   UNL     1       5.984  -4.417  28.156  0.00  0.00    +0.050 A 
ATOM     68  C   UNL     1       5.082  -3.756  28.956  0.00  0.00    +0.158 A 
ATOM     69  C   UNL     1       4.719  -2.450  28.661  0.00  0.00    +0.159 A 
ATOM     70  C   UNL     1       5.235  -1.779  27.523  0.00  0.00    +0.060 A 
BRANCH  69  71
ATOM     71  O   UNL     1       3.848  -1.859  29.539  0.00  0.00    -0.503 OA
ATOM     72  H   UNL     1       4.247  -1.050  29.896  0.00  0.00    +0.292 HD
ENDBRANCH  69  71
BRANCH  68  73
ATOM     73  O   UNL     1       4.572  -4.412  30.048  0.00  0.00    -0.503 OA
ATOM     74  H   UNL     1       3.611  -4.225  30.029  0.00  0.00    +0.292 HD
ENDBRANCH  68  73
ENDBRANCH  64  65
BRANCH  63  75
ATOM     75  O   UNL     1       8.918  -0.193  21.033  0.00  0.00    -0.506 OA
ATOM     76  H   UNL     1       9.779  -0.274  20.589  0.00  0.00    +0.292 HD
ENDBRANCH  63  75
BRANCH  60  77
ATOM     77  O   UNL     1      11.189   2.090  24.486  0.00  0.00    -0.507 OA
ATOM     78  H   UNL     1      11.197   2.182  25.457  0.00  0.00    +0.292 HD
ENDBRANCH  60  77
ENDBRANCH  53  54
ENDBRANCH  45  53
ENDBRANCH  41  46
ENDBRANCH   1  41
TORSDOF 26
ENDMDL
MODEL 7
REMARK VINA RESULT:      -3.2      1.771      2.309
REMARK  Name = 
REMARK  27 active torsions:
REMARK  status: ('A' for Active; 'I' for Inactive)
REMARK    1  A    between atoms: C_1  and  C_2
REMARK    2  A    between atoms: C_3  and  O_74
REMARK    3  A    between atoms: C_5  and  O_73
REMARK    4  A    between atoms: C_6  and  O_33
REMARK    5  A    between atoms: C_8  and  O_11
REMARK    6  A    between atoms: O_11  and  C_12
REMARK    7  A    between atoms: C_13  and  C_25
REMARK    8  A    between atoms: C_17  and  O_24
REMARK    9  A    between atoms: C_19  and  O_23
REMARK   10  A    between atoms: C_27  and  O_32
REMARK   11  A    between atoms: C_28  and  O_31
REMARK   12  A    between atoms: O_33  and  C_34
REMARK   13  A    between atoms: C_36  and  O_72
REMARK   14  A    between atoms: C_38  and  O_71
REMARK   15  A    between atoms: C_39  and  O_70
REMARK   16  A    between atoms: C_41  and  C_43
REMARK   17  A    between atoms: C_43  and  O_44
REMARK   18  A    between atoms: O_44  and  C_45
REMARK   19  A    between atoms: C_45  and  C_47
REMARK   20  A    between atoms: C_48  and  C_49
REMARK   21  A    between atoms: C_52  and  O_55
REMARK   22  A    between atoms: O_55  and  C_56
REMARK   23  A    between atoms: C_58  and  O_69
REMARK   24  A    between atoms: C_59  and  O_68
REMARK   25  A    between atoms: C_61  and  O_67
REMARK   26  A    between atoms: C_63  and  C_65
REMARK   27  A    between atoms: C_65  and  O_66
REMARK                            x       y       z     vdW  Elec       q    Type
REMARK                         _______ _______ _______ _____ _____    ______ ____
ROOT
ATOM      1  C   UNL     1       5.468   2.313  27.228  0.00  0.00    +0.282 C 
ATOM      2  O   UNL     1       4.715   2.026  28.463  0.00  0.00    -0.339 OA
ATOM      3  C   UNL     1       4.022   3.174  29.007  0.00  0.00    +0.190 C 
ATOM      4  C   UNL     1       5.010   4.335  29.316  0.00  0.00    +0.178 C 
ATOM      5  C   UNL     1       5.987   4.588  28.122  0.00  0.00    +0.179 C 
ATOM      6  C   UNL     1       6.619   3.290  27.584  0.00  0.00    +0.201 C 
ENDROOT
BRANCH   6   7
ATOM      7  O   UNL     1       7.540   2.755  28.550  0.00  0.00    -0.384 OA
ATOM      8  H   UNL     1       8.444   2.898  28.201  0.00  0.00    +0.210 HD
ENDBRANCH   6   7
BRANCH   5   9
ATOM      9  O   UNL     1       7.003   5.525  28.518  0.00  0.00    -0.386 OA
ATOM     10  H   UNL     1       6.950   6.272  27.892  0.00  0.00    +0.210 HD
ENDBRANCH   5   9
BRANCH   4  11
ATOM     11  O   UNL     1       5.795   4.073  30.485  0.00  0.00    -0.386 OA
ATOM     12  H   UNL     1       5.439   3.233  30.841  0.00  0.00    +0.210 HD
ENDBRANCH   4  11
BRANCH   3  13
ATOM     13  C   UNL     1       2.719   2.902  29.939  0.00  0.00    +0.266 C 
BRANCH  13  14
ATOM     14  O   UNL     1       1.743   1.784  29.531  0.00  0.00    -0.459 OA
BRANCH  14  15
ATOM     15  C   UNL     1       0.999   1.727  28.356  0.00  0.00    +0.332 C 
ATOM     16  O   UNL     1       0.520   2.702  27.789  0.00  0.00    -0.246 OA
BRANCH  15  17
ATOM     17  C   UNL     1       0.880   0.325  27.750  0.00  0.00    +0.092 C 
ATOM     18  C   UNL     1       1.095  -0.859  28.399  0.00  0.00    +0.015 C 
BRANCH  18  19
ATOM     19  C   UNL     1       1.110  -2.250  27.825  0.00  0.00    -0.025 A 
ATOM     20  C   UNL     1       1.433  -3.419  28.542  0.00  0.00    +0.011 A 
ATOM     21  C   UNL     1       1.518  -4.694  27.926  0.00  0.00    +0.046 A 
ATOM     22  C   UNL     1       1.280  -4.828  26.554  0.00  0.00    +0.124 A 
ATOM     23  C   UNL     1       1.015  -3.658  25.833  0.00  0.00    +0.046 A 
ATOM     24  C   UNL     1       0.945  -2.393  26.444  0.00  0.00    +0.011 A 
BRANCH  22  25
ATOM     25  O   UNL     1       1.243  -5.958  25.795  0.00  0.00    -0.461 OA
BRANCH  25  26
ATOM     26  C   UNL     1       2.437  -6.728  25.596  0.00  0.00    +0.339 C 
ATOM     27  O   UNL     1       3.589  -5.892  25.466  0.00  0.00    -0.331 OA
ATOM     28  C   UNL     1       3.545  -5.047  24.299  0.00  0.00    +0.179 C 
ATOM     29  C   UNL     1       3.498  -5.881  23.000  0.00  0.00    +0.177 C 
ATOM     30  C   UNL     1       2.284  -6.814  23.027  0.00  0.00    +0.180 C 
ATOM     31  C   UNL     1       2.269  -7.628  24.337  0.00  0.00    +0.214 C 
BRANCH  31  32
ATOM     32  O   UNL     1       1.110  -8.471  24.377  0.00  0.00    -0.383 OA
ATOM     33  H   UNL     1       0.416  -8.077  23.820  0.00  0.00    +0.210 HD
ENDBRANCH  31  32
BRANCH  30  34
ATOM     34  O   UNL     1       1.092  -6.051  22.800  0.00  0.00    -0.386 OA
ATOM     35  H   UNL     1       1.177  -5.567  21.961  0.00  0.00    +0.210 HD
ENDBRANCH  30  34
BRANCH  29  36
ATOM     36  O   UNL     1       4.698  -6.649  22.862  0.00  0.00    -0.386 OA
ATOM     37  H   UNL     1       5.445  -6.095  23.152  0.00  0.00    +0.210 HD
ENDBRANCH  29  36
BRANCH  28  38
ATOM     38  C   UNL     1       4.763  -4.112  24.313  0.00  0.00    +0.190 C 
BRANCH  38  39
ATOM     39  O   UNL     1       5.930  -4.762  24.824  0.00  0.00    -0.392 OA
ATOM     40  H   UNL     1       5.971  -4.612  25.783  0.00  0.00    +0.210 HD
ENDBRANCH  38  39
ENDBRANCH  28  38
ENDBRANCH  25  26
ENDBRANCH  22  25
ENDBRANCH  18  19
ENDBRANCH  15  17
ENDBRANCH  14  15
ENDBRANCH  13  14
ENDBRANCH   3  13
BRANCH   1  41
ATOM     41  O   UNL     1       4.706   2.921  26.139  0.00  0.00    -0.337 OA
BRANCH  41  46
ATOM     42  C   UNL     1       4.976   4.510  21.454  0.00  0.00    +0.041 C 
ATOM     43  C   UNL     1       5.322   4.783  22.903  0.00  0.00    +0.150 C 
ATOM     44  O   UNL     1       6.438   4.045  23.392  0.00  0.00    -0.334 OA
ATOM     45  C   UNL     1       6.250   2.778  24.069  0.00  0.00    +0.340 C 
ATOM     46  C   UNL     1       4.847   2.402  24.784  0.00  0.00    +0.221 C 
ATOM     47  C   UNL     1       3.846   3.055  23.883  0.00  0.00    +0.180 C 
ATOM     48  C   UNL     1       4.192   4.598  23.866  0.00  0.00    +0.174 C 
BRANCH  48  49
ATOM     49  O   UNL     1       4.755   5.207  25.074  0.00  0.00    -0.387 OA
ATOM     50  H   UNL     1       5.611   4.777  25.271  0.00  0.00    +0.210 HD
ENDBRANCH  48  49
BRANCH  47  51
ATOM     51  O   UNL     1       2.520   2.588  24.104  0.00  0.00    -0.386 OA
ATOM     52  H   UNL     1       1.900   3.297  24.340  0.00  0.00    +0.210 HD
ENDBRANCH  47  51
BRANCH  45  53
ATOM     53  O   UNL     1       7.299   2.759  25.057  0.00  0.00    -0.453 OA
BRANCH  53  54
ATOM     54  C   UNL     1       8.552   3.062  24.570  0.00  0.00    +0.214 A 
ATOM     55  C   UNL     1       9.002   4.496  24.677  0.00  0.00    +0.238 A 
ATOM     56  O   UNL     1       8.243   5.359  25.107  0.00  0.00    -0.283 OA
ATOM     57  C   UNL     1      10.343   4.840  24.213  0.00  0.00    +0.109 A 
ATOM     58  C   UNL     1      11.043   3.853  23.539  0.00  0.00    +0.147 A 
ATOM     59  C   UNL     1      12.299   4.125  22.999  0.00  0.00    +0.092 A 
ATOM     60  C   UNL     1      12.844   5.383  23.182  0.00  0.00    +0.124 A 
ATOM     61  C   UNL     1      12.177   6.385  23.852  0.00  0.00    +0.091 A 
ATOM     62  O   UNL     1      10.565   2.586  23.356  0.00  0.00    -0.451 OA
ATOM     63  C   UNL     1      10.918   6.111  24.379  0.00  0.00    +0.135 A 
ATOM     64  C   UNL     1       9.329   2.188  23.883  0.00  0.00    +0.181 A 
BRANCH  64  65
ATOM     65  C   UNL     1       9.034   0.744  23.487  0.00  0.00    +0.025 A 
ATOM     66  C   UNL     1       9.274   0.394  22.125  0.00  0.00    +0.015 A 
ATOM     67  C   UNL     1       8.992  -0.870  21.588  0.00  0.00    +0.050 A 
ATOM     68  C   UNL     1       8.484  -1.844  22.414  0.00  0.00    +0.158 A 
ATOM     69  C   UNL     1       8.278  -1.574  23.760  0.00  0.00    +0.159 A 
ATOM     70  C   UNL     1       8.550  -0.295  24.307  0.00  0.00    +0.060 A 
BRANCH  69  71
ATOM     71  O   UNL     1       7.810  -2.620  24.514  0.00  0.00    -0.503 OA
ATOM     72  H   UNL     1       7.059  -3.035  24.061  0.00  0.00    +0.292 HD
ENDBRANCH  69  71
BRANCH  68  73
ATOM     73  O   UNL     1       8.207  -3.076  21.880  0.00  0.00    -0.503 OA
ATOM     74  H   UNL     1       8.034  -2.908  20.931  0.00  0.00    +0.292 HD
ENDBRANCH  68  73
ENDBRANCH  64  65
BRANCH  63  75
ATOM     75  O   UNL     1      10.270   7.096  25.072  0.00  0.00    -0.506 OA
ATOM     76  H   UNL     1      10.021   6.775  25.955  0.00  0.00    +0.292 HD
ENDBRANCH  63  75
BRANCH  60  77
ATOM     77  O   UNL     1      14.088   5.696  22.674  0.00  0.00    -0.507 OA
ATOM     78  H   UNL     1      14.210   6.663  22.693  0.00  0.00    +0.292 HD
ENDBRANCH  60  77
ENDBRANCH  53  54
ENDBRANCH  45  53
ENDBRANCH  41  46
ENDBRANCH   1  41
TORSDOF 26
ENDMDL
MODEL 8
REMARK VINA RESULT:      -3.0      2.447      6.741
REMARK  Name = 
REMARK  27 active torsions:
REMARK  status: ('A' for Active; 'I' for Inactive)
REMARK    1  A    between atoms: C_1  and  C_2
REMARK    2  A    between atoms: C_3  and  O_74
REMARK    3  A    between atoms: C_5  and  O_73
REMARK    4  A    between atoms: C_6  and  O_33
REMARK    5  A    between atoms: C_8  and  O_11
REMARK    6  A    between atoms: O_11  and  C_12
REMARK    7  A    between atoms: C_13  and  C_25
REMARK    8  A    between atoms: C_17  and  O_24
REMARK    9  A    between atoms: C_19  and  O_23
REMARK   10  A    between atoms: C_27  and  O_32
REMARK   11  A    between atoms: C_28  and  O_31
REMARK   12  A    between atoms: O_33  and  C_34
REMARK   13  A    between atoms: C_36  and  O_72
REMARK   14  A    between atoms: C_38  and  O_71
REMARK   15  A    between atoms: C_39  and  O_70
REMARK   16  A    between atoms: C_41  and  C_43
REMARK   17  A    between atoms: C_43  and  O_44
REMARK   18  A    between atoms: O_44  and  C_45
REMARK   19  A    between atoms: C_45  and  C_47
REMARK   20  A    between atoms: C_48  and  C_49
REMARK   21  A    between atoms: C_52  and  O_55
REMARK   22  A    between atoms: O_55  and  C_56
REMARK   23  A    between atoms: C_58  and  O_69
REMARK   24  A    between atoms: C_59  and  O_68
REMARK   25  A    between atoms: C_61  and  O_67
REMARK   26  A    between atoms: C_63  and  C_65
REMARK   27  A    between atoms: C_65  and  O_66
REMARK                            x       y       z     vdW  Elec       q    Type
REMARK                         _______ _______ _______ _____ _____    ______ ____
ROOT
ATOM      1  C   UNL     1       4.114  -2.788  27.611  0.00  0.00    +0.282 C 
ATOM      2  O   UNL     1       2.835  -3.347  28.086  0.00  0.00    -0.339 OA
ATOM      3  C   UNL     1       2.751  -3.477  29.525  0.00  0.00    +0.190 C 
ATOM      4  C   UNL     1       3.893  -4.378  30.078  0.00  0.00    +0.178 C 
ATOM      5  C   UNL     1       5.279  -3.977  29.474  0.00  0.00    +0.179 C 
ATOM      6  C   UNL     1       5.236  -3.806  27.943  0.00  0.00    +0.201 C 
ENDROOT
BRANCH   6   7
ATOM      7  O   UNL     1       5.049  -5.083  27.311  0.00  0.00    -0.384 OA
ATOM      8  H   UNL     1       5.332  -5.769  27.950  0.00  0.00    +0.210 HD
ENDBRANCH   6   7
BRANCH   5   9
ATOM      9  O   UNL     1       6.270  -4.949  29.851  0.00  0.00    -0.386 OA
ATOM     10  H   UNL     1       5.782  -5.732  30.168  0.00  0.00    +0.210 HD
ENDBRANCH   5   9
BRANCH   4  11
ATOM     11  O   UNL     1       3.668  -5.763  29.793  0.00  0.00    -0.386 OA
ATOM     12  H   UNL     1       4.398  -6.232  30.248  0.00  0.00    +0.210 HD
ENDBRANCH   4  11
BRANCH   3  13
ATOM     13  C   UNL     1       1.274  -3.475  30.202  0.00  0.00    +0.266 C 
BRANCH  13  14
ATOM     14  O   UNL     1       0.494  -4.800  30.272  0.00  0.00    -0.459 OA
BRANCH  14  15
ATOM     15  C   UNL     1       0.711  -5.927  29.486  0.00  0.00    +0.332 C 
ATOM     16  O   UNL     1       0.443  -7.073  29.826  0.00  0.00    -0.246 OA
BRANCH  15  17
ATOM     17  C   UNL     1       1.250  -5.626  28.083  0.00  0.00    +0.092 C 
ATOM     18  C   UNL     1       1.937  -6.490  27.276  0.00  0.00    +0.015 C 
BRANCH  18  19
ATOM     19  C   UNL     1       2.588  -6.211  25.949  0.00  0.00    -0.025 A 
ATOM     20  C   UNL     1       2.282  -5.121  25.110  0.00  0.00    +0.011 A 
ATOM     21  C   UNL     1       2.865  -4.958  23.827  0.00  0.00    +0.046 A 
ATOM     22  C   UNL     1       3.781  -5.900  23.347  0.00  0.00    +0.124 A 
ATOM     23  C   UNL     1       4.040  -7.012  24.157  0.00  0.00    +0.046 A 
ATOM     24  C   UNL     1       3.450  -7.178  25.423  0.00  0.00    +0.011 A 
BRANCH  22  25
ATOM     25  O   UNL     1       4.495  -5.890  22.187  0.00  0.00    -0.461 OA
BRANCH  25  26
ATOM     26  C   UNL     1       5.905  -6.156  22.211  0.00  0.00    +0.339 C 
ATOM     27  O   UNL     1       6.502  -5.734  23.439  0.00  0.00    -0.331 OA
ATOM     28  C   UNL     1       6.433  -4.308  23.640  0.00  0.00    +0.179 C 
ATOM     29  C   UNL     1       7.194  -3.545  22.533  0.00  0.00    +0.177 C 
ATOM     30  C   UNL     1       6.624  -3.917  21.161  0.00  0.00    +0.180 C 
ATOM     31  C   UNL     1       6.585  -5.451  21.001  0.00  0.00    +0.214 C 
BRANCH  31  32
ATOM     32  O   UNL     1       6.013  -5.796  19.732  0.00  0.00    -0.383 OA
ATOM     33  H   UNL     1       5.595  -5.005  19.350  0.00  0.00    +0.210 HD
ENDBRANCH  31  32
BRANCH  30  34
ATOM     34  O   UNL     1       5.353  -3.279  20.984  0.00  0.00    -0.386 OA
ATOM     35  H   UNL     1       4.707  -3.935  20.670  0.00  0.00    +0.210 HD
ENDBRANCH  30  34
BRANCH  29  36
ATOM     36  O   UNL     1       8.589  -3.864  22.582  0.00  0.00    -0.386 OA
ATOM     37  H   UNL     1       8.863  -4.151  21.691  0.00  0.00    +0.210 HD
ENDBRANCH  29  36
BRANCH  28  38
ATOM     38  C   UNL     1       6.993  -3.971  25.029  0.00  0.00    +0.190 C 
BRANCH  38  39
ATOM     39  O   UNL     1       7.970  -2.928  24.973  0.00  0.00    -0.392 OA
ATOM     40  H   UNL     1       8.853  -3.331  25.014  0.00  0.00    +0.210 HD
ENDBRANCH  38  39
ENDBRANCH  28  38
ENDBRANCH  25  26
ENDBRANCH  22  25
ENDBRANCH  18  19
ENDBRANCH  15  17
ENDBRANCH  14  15
ENDBRANCH  13  14
ENDBRANCH   3  13
BRANCH   1  41
ATOM     41  O   UNL     1       4.509  -1.506  28.191  0.00  0.00    -0.337 OA
BRANCH  41  46
ATOM     42  C   UNL     1       4.367   3.339  29.222  0.00  0.00    +0.041 C 
ATOM     43  C   UNL     1       5.215   2.165  28.776  0.00  0.00    +0.150 C 
ATOM     44  O   UNL     1       5.042   1.799  27.411  0.00  0.00    -0.334 OA
ATOM     45  C   UNL     1       4.092   0.770  27.034  0.00  0.00    +0.340 C 
ATOM     46  C   UNL     1       3.611  -0.362  28.087  0.00  0.00    +0.221 C 
ATOM     47  C   UNL     1       3.597   0.393  29.380  0.00  0.00    +0.180 C 
ATOM     48  C   UNL     1       5.067   0.930  29.605  0.00  0.00    +0.174 C 
BRANCH  48  49
ATOM     49  O   UNL     1       6.193   0.129  29.114  0.00  0.00    -0.387 OA
ATOM     50  H   UNL     1       5.840  -0.676  28.685  0.00  0.00    +0.210 HD
ENDBRANCH  48  49
BRANCH  47  51
ATOM     51  O   UNL     1       2.883  -0.286  30.406  0.00  0.00    -0.386 OA
ATOM     52  H   UNL     1       3.410  -0.425  31.210  0.00  0.00    +0.210 HD
ENDBRANCH  47  51
BRANCH  45  53
ATOM     53  O   UNL     1       4.717   0.125  25.907  0.00  0.00    -0.453 OA
BRANCH  53  54
ATOM     54  C   UNL     1       5.657   0.893  25.253  0.00  0.00    +0.214 A 
ATOM     55  C   UNL     1       7.106   0.565  25.507  0.00  0.00    +0.238 A 
ATOM     56  O   UNL     1       7.420  -0.295  26.323  0.00  0.00    -0.283 OA
ATOM     57  C   UNL     1       8.125   1.330  24.794  0.00  0.00    +0.109 A 
ATOM     58  C   UNL     1       7.690   2.426  24.068  0.00  0.00    +0.147 A 
ATOM     59  C   UNL     1       8.609   3.251  23.420  0.00  0.00    +0.092 A 
ATOM     60  C   UNL     1       9.953   2.932  23.487  0.00  0.00    +0.124 A 
ATOM     61  C   UNL     1      10.418   1.845  24.196  0.00  0.00    +0.091 A 
ATOM     62  O   UNL     1       6.373   2.769  23.944  0.00  0.00    -0.451 OA
ATOM     63  C   UNL     1       9.497   1.033  24.850  0.00  0.00    +0.135 A 
ATOM     64  C   UNL     1       5.358   1.996  24.524  0.00  0.00    +0.181 A 
BRANCH  64  65
ATOM     65  C   UNL     1       3.999   2.638  24.262  0.00  0.00    +0.025 A 
ATOM     66  C   UNL     1       3.733   3.043  22.920  0.00  0.00    +0.015 A 
ATOM     67  C   UNL     1       2.562   3.706  22.528  0.00  0.00    +0.050 A 
ATOM     68  C   UNL     1       1.596   3.961  23.472  0.00  0.00    +0.158 A 
ATOM     69  C   UNL     1       1.780   3.546  24.784  0.00  0.00    +0.159 A 
ATOM     70  C   UNL     1       2.967   2.884  25.189  0.00  0.00    +0.060 A 
BRANCH  69  71
ATOM     71  O   UNL     1       0.745   3.805  25.644  0.00  0.00    -0.503 OA
ATOM     72  H   UNL     1       0.063   4.319  25.184  0.00  0.00    +0.292 HD
ENDBRANCH  69  71
BRANCH  68  73
ATOM     73  O   UNL     1       0.455   4.614  23.082  0.00  0.00    -0.503 OA
ATOM     74  H   UNL     1      -0.138   3.910  22.746  0.00  0.00    +0.292 HD
ENDBRANCH  68  73
ENDBRANCH  64  65
BRANCH  63  75
ATOM     75  O   UNL     1       9.956  -0.064  25.526  0.00  0.00    -0.506 OA
ATOM     76  H   UNL     1       9.541  -0.870  25.177  0.00  0.00    +0.292 HD
ENDBRANCH  63  75
BRANCH  60  77
ATOM     77  O   UNL     1      10.898   3.713  22.854  0.00  0.00    -0.507 OA
ATOM     78  H   UNL     1      11.783   3.337  23.010  0.00  0.00    +0.292 HD
ENDBRANCH  60  77
ENDBRANCH  53  54
ENDBRANCH  45  53
ENDBRANCH  41  46
ENDBRANCH   1  41
TORSDOF 26
ENDMDL
MODEL 9
REMARK VINA RESULT:      -2.9      3.281      7.039
REMARK  Name = 
REMARK  27 active torsions:
REMARK  status: ('A' for Active; 'I' for Inactive)
REMARK    1  A    between atoms: C_1  and  C_2
REMARK    2  A    between atoms: C_3  and  O_74
REMARK    3  A    between atoms: C_5  and  O_73
REMARK    4  A    between atoms: C_6  and  O_33
REMARK    5  A    between atoms: C_8  and  O_11
REMARK    6  A    between atoms: O_11  and  C_12
REMARK    7  A    between atoms: C_13  and  C_25
REMARK    8  A    between atoms: C_17  and  O_24
REMARK    9  A    between atoms: C_19  and  O_23
REMARK   10  A    between atoms: C_27  and  O_32
REMARK   11  A    between atoms: C_28  and  O_31
REMARK   12  A    between atoms: O_33  and  C_34
REMARK   13  A    between atoms: C_36  and  O_72
REMARK   14  A    between atoms: C_38  and  O_71
REMARK   15  A    between atoms: C_39  and  O_70
REMARK   16  A    between atoms: C_41  and  C_43
REMARK   17  A    between atoms: C_43  and  O_44
REMARK   18  A    between atoms: O_44  and  C_45
REMARK   19  A    between atoms: C_45  and  C_47
REMARK   20  A    between atoms: C_48  and  C_49
REMARK   21  A    between atoms: C_52  and  O_55
REMARK   22  A    between atoms: O_55  and  C_56
REMARK   23  A    between atoms: C_58  and  O_69
REMARK   24  A    between atoms: C_59  and  O_68
REMARK   25  A    between atoms: C_61  and  O_67
REMARK   26  A    between atoms: C_63  and  C_65
REMARK   27  A    between atoms: C_65  and  O_66
REMARK                            x       y       z     vdW  Elec       q    Type
REMARK                         _______ _______ _______ _____ _____    ______ ____
ROOT
ATOM      1  C   UNL     1       3.595  -2.740  27.860  0.00  0.00    +0.282 C 
ATOM      2  O   UNL     1       2.433  -3.607  28.126  0.00  0.00    -0.339 OA
ATOM      3  C   UNL     1       2.265  -3.951  29.522  0.00  0.00    +0.190 C 
ATOM      4  C   UNL     1       3.526  -4.669  30.081  0.00  0.00    +0.178 C 
ATOM      5  C   UNL     1       4.838  -3.916  29.681  0.00  0.00    +0.179 C 
ATOM      6  C   UNL     1       4.879  -3.546  28.186  0.00  0.00    +0.201 C 
ENDROOT
BRANCH   6   7
ATOM      7  O   UNL     1       5.022  -4.734  27.389  0.00  0.00    -0.384 OA
ATOM      8  H   UNL     1       4.852  -4.483  26.458  0.00  0.00    +0.210 HD
ENDBRANCH   6   7
BRANCH   5   9
ATOM      9  O   UNL     1       5.981  -4.710  30.043  0.00  0.00    -0.386 OA
ATOM     10  H   UNL     1       6.765  -4.233  29.710  0.00  0.00    +0.210 HD
ENDBRANCH   5   9
BRANCH   4  11
ATOM     11  O   UNL     1       3.628  -6.018  29.610  0.00  0.00    -0.386 OA
ATOM     12  H   UNL     1       3.258  -5.994  28.703  0.00  0.00    +0.210 HD
ENDBRANCH   4  11
BRANCH   3  13
ATOM     13  C   UNL     1       0.773  -4.342  30.033  0.00  0.00    +0.266 C 
BRANCH  13  14
ATOM     14  O   UNL     1       0.446  -5.825  30.284  0.00  0.00    -0.459 OA
BRANCH  14  15
ATOM     15  C   UNL     1       0.668  -6.879  29.404  0.00  0.00    +0.332 C 
ATOM     16  O   UNL     1       0.443  -8.056  29.660  0.00  0.00    -0.246 OA
BRANCH  15  17
ATOM     17  C   UNL     1       1.152  -6.453  28.014  0.00  0.00    +0.092 C 
ATOM     18  C   UNL     1       2.015  -7.143  27.209  0.00  0.00    +0.015 C 
BRANCH  18  19
ATOM     19  C   UNL     1       2.612  -6.715  25.897  0.00  0.00    -0.025 A 
ATOM     20  C   UNL     1       1.904  -6.089  24.851  0.00  0.00    +0.011 A 
ATOM     21  C   UNL     1       2.500  -5.789  23.598  0.00  0.00    +0.046 A 
ATOM     22  C   UNL     1       3.838  -6.117  23.361  0.00  0.00    +0.124 A 
ATOM     23  C   UNL     1       4.522  -6.791  24.379  0.00  0.00    +0.046 A 
ATOM     24  C   UNL     1       3.926  -7.099  25.615  0.00  0.00    +0.011 A 
BRANCH  22  25
ATOM     25  O   UNL     1       4.606  -5.856  22.266  0.00  0.00    -0.461 OA
BRANCH  25  26
ATOM     26  C   UNL     1       6.023  -6.073  22.315  0.00  0.00    +0.339 C 
ATOM     27  O   UNL     1       6.592  -5.572  23.526  0.00  0.00    -0.331 OA
ATOM     28  C   UNL     1       6.475  -4.141  23.656  0.00  0.00    +0.179 C 
ATOM     29  C   UNL     1       7.222  -3.408  22.520  0.00  0.00    +0.177 C 
ATOM     30  C   UNL     1       6.679  -3.866  21.162  0.00  0.00    +0.180 C 
ATOM     31  C   UNL     1       6.692  -5.406  21.078  0.00  0.00    +0.214 C 
BRANCH  31  32
ATOM     32  O   UNL     1       6.145  -5.832  19.823  0.00  0.00    -0.383 OA
ATOM     33  H   UNL     1       5.201  -5.597  19.795  0.00  0.00    +0.210 HD
ENDBRANCH  31  32
BRANCH  30  34
ATOM     34  O   UNL     1       5.389  -3.280  20.943  0.00  0.00    -0.386 OA
ATOM     35  H   UNL     1       4.714  -3.981  20.955  0.00  0.00    +0.210 HD
ENDBRANCH  30  34
BRANCH  29  36
ATOM     36  O   UNL     1       8.625  -3.677  22.597  0.00  0.00    -0.386 OA
ATOM     37  H   UNL     1       8.870  -3.732  23.539  0.00  0.00    +0.210 HD
ENDBRANCH  29  36
BRANCH  28  38
ATOM     38  C   UNL     1       7.009  -3.718  25.032  0.00  0.00    +0.190 C 
BRANCH  38  39
ATOM     39  O   UNL     1       8.125  -4.513  25.440  0.00  0.00    -0.392 OA
ATOM     40  H   UNL     1       8.847  -3.918  25.702  0.00  0.00    +0.210 HD
ENDBRANCH  38  39
ENDBRANCH  28  38
ENDBRANCH  25  26
ENDBRANCH  22  25
ENDBRANCH  18  19
ENDBRANCH  15  17
ENDBRANCH  14  15
ENDBRANCH  13  14
ENDBRANCH   3  13
BRANCH   1  41
ATOM     41  O   UNL     1       3.658  -1.498  28.628  0.00  0.00    -0.337 OA
BRANCH  41  46
ATOM     42  C   UNL     1       2.380   2.991  30.290  0.00  0.00    +0.041 C 
ATOM     43  C   UNL     1       3.512   2.056  29.917  0.00  0.00    +0.150 C 
ATOM     44  O   UNL     1       3.739   1.936  28.517  0.00  0.00    -0.334 OA
ATOM     45  C   UNL     1       3.114   0.875  27.752  0.00  0.00    +0.340 C 
ATOM     46  C   UNL     1       2.615  -0.494  28.459  0.00  0.00    +0.221 C 
ATOM     47  C   UNL     1       2.154  -0.009  29.799  0.00  0.00    +0.180 C 
ATOM     48  C   UNL     1       3.403   0.677  30.485  0.00  0.00    +0.174 C 
BRANCH  48  49
ATOM     49  O   UNL     1       4.741   0.152  30.198  0.00  0.00    -0.387 OA
ATOM     50  H   UNL     1       5.399   0.848  30.398  0.00  0.00    +0.210 HD
ENDBRANCH  48  49
BRANCH  47  51
ATOM     51  O   UNL     1       1.356  -0.966  30.485  0.00  0.00    -0.386 OA
ATOM     52  H   UNL     1       0.556  -0.582  30.882  0.00  0.00    +0.210 HD
ENDBRANCH  47  51
BRANCH  45  53
ATOM     53  O   UNL     1       4.097   0.551  26.750  0.00  0.00    -0.453 OA
BRANCH  53  54
ATOM     54  C   UNL     1       4.185   1.460  25.717  0.00  0.00    +0.214 A 
ATOM     55  C   UNL     1       2.942   2.247  25.388  0.00  0.00    +0.238 A 
ATOM     56  O   UNL     1       1.886   2.019  25.969  0.00  0.00    -0.283 OA
ATOM     57  C   UNL     1       3.016   3.250  24.330  0.00  0.00    +0.109 A 
ATOM     58  C   UNL     1       4.179   3.282  23.580  0.00  0.00    +0.147 A 
ATOM     59  C   UNL     1       4.298   4.161  22.503  0.00  0.00    +0.092 A 
ATOM     60  C   UNL     1       3.250   5.020  22.227  0.00  0.00    +0.124 A 
ATOM     61  C   UNL     1       2.082   5.018  22.958  0.00  0.00    +0.091 A 
ATOM     62  O   UNL     1       5.255   2.478  23.828  0.00  0.00    -0.451 OA
ATOM     63  C   UNL     1       1.965   4.130  24.023  0.00  0.00    +0.135 A 
ATOM     64  C   UNL     1       5.263   1.578  24.903  0.00  0.00    +0.181 A 
BRANCH  64  65
ATOM     65  C   UNL     1       6.566   0.785  24.910  0.00  0.00    +0.025 A 
ATOM     66  C   UNL     1       7.198   0.585  23.646  0.00  0.00    +0.015 A 
ATOM     67  C   UNL     1       8.362  -0.176  23.474  0.00  0.00    +0.050 A 
ATOM     68  C   UNL     1       8.955  -0.742  24.577  0.00  0.00    +0.158 A 
ATOM     69  C   UNL     1       8.412  -0.539  25.838  0.00  0.00    +0.159 A 
ATOM     70  C   UNL     1       7.228   0.221  26.018  0.00  0.00    +0.060 A 
BRANCH  69  71
ATOM     71  O   UNL     1       9.096  -1.106  26.882  0.00  0.00    -0.503 OA
ATOM     72  H   UNL     1      10.047  -0.949  26.769  0.00  0.00    +0.292 HD
ENDBRANCH  69  71
BRANCH  68  73
ATOM     73  O   UNL     1      10.092  -1.488  24.399  0.00  0.00    -0.503 OA
ATOM     74  H   UNL     1       9.836  -2.402  24.644  0.00  0.00    +0.292 HD
ENDBRANCH  68  73
ENDBRANCH  64  65
BRANCH  63  75
ATOM     75  O   UNL     1       0.818   4.150  24.768  0.00  0.00    -0.506 OA
ATOM     76  H   UNL     1       0.677   5.037  25.140  0.00  0.00    +0.292 HD
ENDBRANCH  63  75
BRANCH  60  77
ATOM     77  O   UNL     1       3.326   5.914  21.178  0.00  0.00    -0.507 OA
ATOM     78  H   UNL     1       2.718   6.657  21.344  0.00  0.00    +0.292 HD
ENDBRANCH  60  77
ENDBRANCH  53  54
ENDBRANCH  45  53
ENDBRANCH  41  46
ENDBRANCH   1  41
TORSDOF 26
ENDMDL
