MODEL 1
REMARK VINA RESULT:      -6.1      0.000      0.000
REMARK  Name = 
REMARK  32 active torsions:
REMARK  status: ('A' for Active; 'I' for Inactive)
REMARK    1  A    between atoms: C_1  and  C_2
REMARK    2  A    between atoms: C_3  and  O_87
REMARK    3  A    between atoms: C_5  and  O_86
REMARK    4  A    between atoms: C_6  and  O_85
REMARK    5  A    between atoms: C_8  and  O_11
REMARK    6  A    between atoms: O_11  and  C_12
REMARK    7  A    between atoms: C_12  and  C_13
REMARK    8  A    between atoms: C_14  and  O_84
REMARK    9  A    between atoms: C_16  and  O_72
REMARK   10  A    between atoms: C_18  and  O_58
REMARK   11  A    between atoms: C_19  and  O_22
REMARK   12  A    between atoms: O_22  and  C_23
REMARK   13  A    between atoms: C_24  and  C_49
REMARK   14  A    between atoms: C_28  and  O_35
REMARK   15  A    between atoms: C_30  and  O_34
REMARK   16  A    between atoms: O_35  and  C_36
REMARK   17  A    between atoms: C_38  and  O_48
REMARK   18  A    between atoms: C_40  and  O_47
REMARK   19  A    between atoms: C_41  and  O_46
REMARK   20  A    between atoms: C_43  and  C_45
REMARK   21  A    between atoms: C_51  and  O_56
REMARK   22  A    between atoms: C_52  and  O_55
REMARK   23  A    between atoms: O_56  and  C_57
REMARK   24  A    between atoms: O_58  and  C_59
REMARK   25  A    between atoms: C_61  and  O_71
REMARK   26  A    between atoms: C_63  and  O_70
REMARK   27  A    between atoms: C_64  and  O_69
REMARK   28  A    between atoms: C_66  and  C_68
REMARK   29  A    between atoms: O_72  and  C_73
REMARK   30  A    between atoms: C_73  and  C_75
REMARK   31  A    between atoms: C_76  and  C_77
REMARK   32  A    between atoms: C_80  and  O_83
REMARK                            x       y       z     vdW  Elec       q    Type
REMARK                         _______ _______ _______ _____ _____    ______ ____
ROOT
ATOM      1  C   UNL     1       9.356  -1.123  23.179  0.00  0.00    +0.180 C 
ATOM      2  O   UNL     1       8.059  -0.600  23.566  0.00  0.00    -0.331 OA
ATOM      3  C   UNL     1       7.614  -0.806  24.921  0.00  0.00    +0.341 C 
ATOM      4  C   UNL     1       7.763  -2.306  25.382  0.00  0.00    +0.233 C 
ATOM      5  C   UNL     1       9.252  -2.629  25.229  0.00  0.00    +0.242 C 
ATOM      6  C   UNL     1       9.643  -2.549  23.738  0.00  0.00    +0.189 C 
ENDROOT
BRANCH   6   7
ATOM      7  O   UNL     1       8.952  -3.539  22.958  0.00  0.00    -0.385 OA
ATOM      8  H   UNL     1       8.840  -3.196  22.047  0.00  0.00    +0.210 HD
ENDBRANCH   6   7
BRANCH   4   9
ATOM      9  O   UNL     1       6.891  -3.211  24.642  0.00  0.00    -0.335 OA
BRANCH   9  10
ATOM     10  C   UNL     1       5.735  -2.652  23.975  0.00  0.00    +0.282 C 
ATOM     11  O   UNL     1       4.536  -3.241  24.508  0.00  0.00    -0.343 OA
ATOM     12  C   UNL     1       4.408  -4.642  24.241  0.00  0.00    +0.149 C 
ATOM     13  C   UNL     1       3.040  -5.086  24.761  0.00  0.00    +0.041 C 
ATOM     14  C   UNL     1       4.536  -4.994  22.745  0.00  0.00    +0.174 C 
ATOM     15  C   UNL     1       5.734  -4.288  22.101  0.00  0.00    +0.179 C 
ATOM     16  C   UNL     1       5.685  -2.800  22.437  0.00  0.00    +0.201 C 
BRANCH  15  17
ATOM     17  O   UNL     1       5.702  -4.455  20.676  0.00  0.00    -0.386 OA
ATOM     18  H   UNL     1       5.863  -5.406  20.515  0.00  0.00    +0.210 HD
ENDBRANCH  15  17
BRANCH  16  19
ATOM     19  O   UNL     1       6.723  -2.139  21.701  0.00  0.00    -0.384 OA
ATOM     20  H   UNL     1       6.705  -1.195  21.940  0.00  0.00    +0.210 HD
ENDBRANCH  16  19
BRANCH  14  21
ATOM     21  O   UNL     1       4.617  -6.415  22.590  0.00  0.00    -0.387 OA
ATOM     22  H   UNL     1       3.719  -6.760  22.442  0.00  0.00    +0.210 HD
ENDBRANCH  14  21
ENDBRANCH   9  10
ENDBRANCH   4   9
BRANCH   5  23
ATOM     23  O   UNL     1       9.546  -3.922  25.820  0.00  0.00    -0.453 OA
BRANCH  23  24
ATOM     24  C   UNL     1       8.640  -4.902  25.564  0.00  0.00    +0.332 C 
ATOM     25  O   UNL     1       8.648  -5.633  24.586  0.00  0.00    -0.246 OA
BRANCH  24  26
ATOM     26  C   UNL     1       7.682  -4.969  26.678  0.00  0.00    +0.092 C 
ATOM     27  C   UNL     1       6.526  -5.629  26.521  0.00  0.00    +0.015 C 
BRANCH  27  28
ATOM     28  C   UNL     1       5.557  -5.691  27.610  0.00  0.00    -0.025 A 
ATOM     29  C   UNL     1       5.004  -4.518  28.135  0.00  0.00    +0.011 A 
ATOM     30  C   UNL     1       4.012  -4.591  29.113  0.00  0.00    +0.046 A 
ATOM     31  C   UNL     1       3.575  -5.834  29.561  0.00  0.00    +0.117 A 
ATOM     32  C   UNL     1       4.137  -7.008  29.069  0.00  0.00    +0.046 A 
ATOM     33  C   UNL     1       5.132  -6.935  28.092  0.00  0.00    +0.011 A 
BRANCH  31  34
ATOM     34  O   UNL     1       2.573  -5.861  30.485  0.00  0.00    -0.507 OA
ATOM     35  H   UNL     1       1.737  -5.646  30.041  0.00  0.00    +0.292 HD
ENDBRANCH  31  34
ENDBRANCH  27  28
ENDBRANCH  24  26
ENDBRANCH  23  24
ENDBRANCH   5  23
BRANCH   3  36
ATOM     36  O   UNL     1       6.223  -0.465  25.089  0.00  0.00    -0.453 OA
BRANCH  36  37
ATOM     37  C   UNL     1       5.663   0.788  24.846  0.00  0.00    +0.214 A 
ATOM     38  C   UNL     1       5.829   1.581  23.580  0.00  0.00    +0.238 A 
ATOM     39  O   UNL     1       6.390   1.091  22.609  0.00  0.00    -0.283 OA
ATOM     40  C   UNL     1       5.240   2.964  23.555  0.00  0.00    +0.109 A 
ATOM     41  C   UNL     1       4.456   3.358  24.627  0.00  0.00    +0.147 A 
ATOM     42  C   UNL     1       3.784   4.594  24.657  0.00  0.00    +0.093 A 
ATOM     43  C   UNL     1       3.956   5.526  23.638  0.00  0.00    +0.131 A 
ATOM     44  C   UNL     1       4.782   5.165  22.567  0.00  0.00    +0.092 A 
ATOM     45  O   UNL     1       4.299   2.595  25.745  0.00  0.00    -0.451 OA
ATOM     46  C   UNL     1       5.394   3.889  22.516  0.00  0.00    +0.135 A 
ATOM     47  C   UNL     1       4.945   1.384  25.818  0.00  0.00    +0.181 A 
BRANCH  47  48
ATOM     48  C   UNL     1       4.580   0.683  27.044  0.00  0.00    +0.025 A 
ATOM     49  C   UNL     1       5.616   0.461  27.949  0.00  0.00    +0.015 A 
ATOM     50  C   UNL     1       5.424  -0.396  29.012  0.00  0.00    +0.050 A 
ATOM     51  C   UNL     1       4.141  -0.858  29.292  0.00  0.00    +0.158 A 
ATOM     52  C   UNL     1       3.054  -0.548  28.471  0.00  0.00    +0.162 A 
ATOM     53  C   UNL     1       3.308   0.155  27.284  0.00  0.00    +0.061 A 
BRANCH  52  54
ATOM     54  O   UNL     1       1.725  -0.744  28.692  0.00  0.00    -0.491 OA
ATOM     55  C   UNL     1       0.753  -0.549  27.678  0.00  0.00    +0.277 C 
ENDBRANCH  52  54
BRANCH  51  56
ATOM     56  O   UNL     1       4.032  -1.505  30.485  0.00  0.00    -0.503 OA
ATOM     57  H   UNL     1       3.235  -1.114  30.887  0.00  0.00    +0.292 HD
ENDBRANCH  51  56
ENDBRANCH  47  48
BRANCH  46  58
ATOM     58  O   UNL     1       6.191   3.601  21.447  0.00  0.00    -0.506 OA
ATOM     59  H   UNL     1       7.011   3.187  21.771  0.00  0.00    +0.292 HD
ENDBRANCH  46  58
BRANCH  43  60
ATOM     60  O   UNL     1       3.417   6.798  23.622  0.00  0.00    -0.461 OA
BRANCH  60  61
ATOM     61  C   UNL     1       2.033   6.908  23.231  0.00  0.00    +0.339 C 
ATOM     62  O   UNL     1       1.174   6.898  24.377  0.00  0.00    -0.334 OA
ATOM     63  C   UNL     1       1.230   5.645  25.075  0.00  0.00    +0.150 C 
ATOM     64  C   UNL     1       0.444   5.807  26.369  0.00  0.00    +0.041 C 
ATOM     65  C   UNL     1       0.665   4.518  24.201  0.00  0.00    +0.174 C 
ATOM     66  C   UNL     1       1.439   4.439  22.872  0.00  0.00    +0.180 C 
ATOM     67  C   UNL     1       1.553   5.825  22.224  0.00  0.00    +0.214 C 
BRANCH  67  68
ATOM     68  O   UNL     1       2.371   5.767  21.053  0.00  0.00    -0.383 OA
ATOM     69  H   UNL     1       2.749   6.650  20.901  0.00  0.00    +0.210 HD
ENDBRANCH  67  68
BRANCH  66  70
ATOM     70  O   UNL     1       0.772   3.517  21.987  0.00  0.00    -0.386 OA
ATOM     71  H   UNL     1       1.408   3.207  21.321  0.00  0.00    +0.210 HD
ENDBRANCH  66  70
BRANCH  65  72
ATOM     72  O   UNL     1       0.698   3.270  24.898  0.00  0.00    -0.387 OA
ATOM     73  H   UNL     1       0.721   3.449  25.855  0.00  0.00    +0.210 HD
ENDBRANCH  65  72
ENDBRANCH  60  61
ENDBRANCH  43  60
ENDBRANCH  36  37
ENDBRANCH   3  36
BRANCH   1  74
ATOM     74  C   UNL     1      10.574  -0.200  23.494  0.00  0.00    +0.197 C 
BRANCH  74  75
ATOM     75  O   UNL     1      10.483   0.586  24.674  0.00  0.00    -0.346 OA
BRANCH  75  79
ATOM     76  C   UNL     1       8.272   4.000  26.019  0.00  0.00    +0.041 C 
ATOM     77  C   UNL     1       8.357   3.520  24.574  0.00  0.00    +0.149 C 
ATOM     78  O   UNL     1       8.870   2.185  24.515  0.00  0.00    -0.343 OA
ATOM     79  C   UNL     1      10.296   2.000  24.649  0.00  0.00    +0.282 C 
ATOM     80  C   UNL     1      11.019   2.823  23.549  0.00  0.00    +0.201 C 
ATOM     81  C   UNL     1      10.628   4.305  23.731  0.00  0.00    +0.179 C 
ATOM     82  C   UNL     1       9.107   4.495  23.658  0.00  0.00    +0.174 C 
BRANCH  80  83
ATOM     83  O   UNL     1      10.650   2.394  22.221  0.00  0.00    -0.384 OA
ATOM     84  H   UNL     1      10.273   3.184  21.787  0.00  0.00    +0.210 HD
ENDBRANCH  80  83
BRANCH  81  85
ATOM     85  O   UNL     1      11.239   5.119  22.714  0.00  0.00    -0.386 OA
ATOM     86  H   UNL     1      11.713   4.486  22.134  0.00  0.00    +0.210 HD
ENDBRANCH  81  85
BRANCH  82  87
ATOM     87  O   UNL     1       8.701   4.298  22.287  0.00  0.00    -0.387 OA
ATOM     88  H   UNL     1       9.466   4.578  21.735  0.00  0.00    +0.210 HD
ENDBRANCH  82  87
ENDBRANCH  75  79
ENDBRANCH  74  75
ENDBRANCH   1  74
TORSDOF 28
ENDMDL
MODEL 2
REMARK VINA RESULT:      -5.8      1.766      2.523
REMARK  Name = 
REMARK  32 active torsions:
REMARK  status: ('A' for Active; 'I' for Inactive)
REMARK    1  A    between atoms: C_1  and  C_2
REMARK    2  A    between atoms: C_3  and  O_87
REMARK    3  A    between atoms: C_5  and  O_86
REMARK    4  A    between atoms: C_6  and  O_85
REMARK    5  A    between atoms: C_8  and  O_11
REMARK    6  A    between atoms: O_11  and  C_12
REMARK    7  A    between atoms: C_12  and  C_13
REMARK    8  A    between atoms: C_14  and  O_84
REMARK    9  A    between atoms: C_16  and  O_72
REMARK   10  A    between atoms: C_18  and  O_58
REMARK   11  A    between atoms: C_19  and  O_22
REMARK   12  A    between atoms: O_22  and  C_23
REMARK   13  A    between atoms: C_24  and  C_49
REMARK   14  A    between atoms: C_28  and  O_35
REMARK   15  A    between atoms: C_30  and  O_34
REMARK   16  A    between atoms: O_35  and  C_36
REMARK   17  A    between atoms: C_38  and  O_48
REMARK   18  A    between atoms: C_40  and  O_47
REMARK   19  A    between atoms: C_41  and  O_46
REMARK   20  A    between atoms: C_43  and  C_45
REMARK   21  A    between atoms: C_51  and  O_56
REMARK   22  A    between atoms: C_52  and  O_55
REMARK   23  A    between atoms: O_56  and  C_57
REMARK   24  A    between atoms: O_58  and  C_59
REMARK   25  A    between atoms: C_61  and  O_71
REMARK   26  A    between atoms: C_63  and  O_70
REMARK   27  A    between atoms: C_64  and  O_69
REMARK   28  A    between atoms: C_66  and  C_68
REMARK   29  A    between atoms: O_72  and  C_73
REMARK   30  A    between atoms: C_73  and  C_75
REMARK   31  A    between atoms: C_76  and  C_77
REMARK   32  A    between atoms: C_80  and  O_83
REMARK                            x       y       z     vdW  Elec       q    Type
REMARK                         _______ _______ _______ _____ _____    ______ ____
ROOT
ATOM      1  C   UNL     1       9.214  -0.666  23.421  0.00  0.00    +0.180 C 
ATOM      2  O   UNL     1       7.818  -0.325  23.628  0.00  0.00    -0.331 OA
ATOM      3  C   UNL     1       7.225  -0.612  24.909  0.00  0.00    +0.341 C 
ATOM      4  C   UNL     1       7.507  -2.087  25.386  0.00  0.00    +0.233 C 
ATOM      5  C   UNL     1       9.032  -2.210  25.438  0.00  0.00    +0.242 C 
ATOM      6  C   UNL     1       9.608  -2.053  24.014  0.00  0.00    +0.189 C 
ENDROOT
BRANCH   6   7
ATOM      7  O   UNL     1       9.165  -3.110  23.147  0.00  0.00    -0.385 OA
ATOM      8  H   UNL     1       8.229  -2.946  22.908  0.00  0.00    +0.210 HD
ENDBRANCH   6   7
BRANCH   4   9
ATOM      9  O   UNL     1       6.871  -3.084  24.533  0.00  0.00    -0.335 OA
BRANCH   9  10
ATOM     10  C   UNL     1       5.811  -2.651  23.648  0.00  0.00    +0.282 C 
ATOM     11  O   UNL     1       4.543  -3.113  24.145  0.00  0.00    -0.343 OA
ATOM     12  C   UNL     1       4.401  -4.538  24.134  0.00  0.00    +0.149 C 
ATOM     13  C   UNL     1       2.971  -4.859  24.572  0.00  0.00    +0.041 C 
ATOM     14  C   UNL     1       4.677  -5.171  22.756  0.00  0.00    +0.174 C 
ATOM     15  C   UNL     1       5.960  -4.615  22.128  0.00  0.00    +0.179 C 
ATOM     16  C   UNL     1       5.923  -3.090  22.170  0.00  0.00    +0.201 C 
BRANCH  15  17
ATOM     17  O   UNL     1       6.076  -5.051  20.766  0.00  0.00    -0.386 OA
ATOM     18  H   UNL     1       5.320  -5.651  20.612  0.00  0.00    +0.210 HD
ENDBRANCH  15  17
BRANCH  16  19
ATOM     19  O   UNL     1       7.055  -2.593  21.444  0.00  0.00    -0.384 OA
ATOM     20  H   UNL     1       7.384  -3.311  20.874  0.00  0.00    +0.210 HD
ENDBRANCH  16  19
BRANCH  14  21
ATOM     21  O   UNL     1       4.728  -6.596  22.881  0.00  0.00    -0.387 OA
ATOM     22  H   UNL     1       5.316  -6.820  23.625  0.00  0.00    +0.210 HD
ENDBRANCH  14  21
ENDBRANCH   9  10
ENDBRANCH   4   9
BRANCH   5  23
ATOM     23  O   UNL     1       9.411  -3.464  26.063  0.00  0.00    -0.453 OA
BRANCH  23  24
ATOM     24  C   UNL     1       8.709  -4.555  25.660  0.00  0.00    +0.332 C 
ATOM     25  O   UNL     1       8.839  -5.120  24.584  0.00  0.00    -0.246 OA
BRANCH  24  26
ATOM     26  C   UNL     1       7.807  -4.970  26.744  0.00  0.00    +0.092 C 
ATOM     27  C   UNL     1       6.713  -5.691  26.459  0.00  0.00    +0.015 C 
BRANCH  27  28
ATOM     28  C   UNL     1       5.799  -6.096  27.521  0.00  0.00    -0.025 A 
ATOM     29  C   UNL     1       4.487  -6.479  27.221  0.00  0.00    +0.011 A 
ATOM     30  C   UNL     1       3.649  -6.952  28.232  0.00  0.00    +0.046 A 
ATOM     31  C   UNL     1       4.125  -7.041  29.536  0.00  0.00    +0.117 A 
ATOM     32  C   UNL     1       5.417  -6.635  29.854  0.00  0.00    +0.046 A 
ATOM     33  C   UNL     1       6.256  -6.160  28.843  0.00  0.00    +0.011 A 
BRANCH  31  34
ATOM     34  O   UNL     1       3.289  -7.549  30.485  0.00  0.00    -0.507 OA
ATOM     35  H   UNL     1       2.953  -8.406  30.175  0.00  0.00    +0.292 HD
ENDBRANCH  31  34
ENDBRANCH  27  28
ENDBRANCH  24  26
ENDBRANCH  23  24
ENDBRANCH   5  23
BRANCH   3  36
ATOM     36  O   UNL     1       5.792  -0.459  24.885  0.00  0.00    -0.453 OA
BRANCH  36  37
ATOM     37  C   UNL     1       5.102   0.729  25.122  0.00  0.00    +0.214 A 
ATOM     38  C   UNL     1       5.206   1.974  24.285  0.00  0.00    +0.238 A 
ATOM     39  O   UNL     1       5.838   1.967  23.238  0.00  0.00    -0.283 OA
ATOM     40  C   UNL     1       4.469   3.191  24.771  0.00  0.00    +0.109 A 
ATOM     41  C   UNL     1       3.622   3.048  25.859  0.00  0.00    +0.147 A 
ATOM     42  C   UNL     1       2.817   4.101  26.331  0.00  0.00    +0.093 A 
ATOM     43  C   UNL     1       2.907   5.375  25.777  0.00  0.00    +0.131 A 
ATOM     44  C   UNL     1       3.790   5.550  24.705  0.00  0.00    +0.092 A 
ATOM     45  O   UNL     1       3.527   1.891  26.572  0.00  0.00    -0.451 OA
ATOM     46  C   UNL     1       4.541   4.463  24.194  0.00  0.00    +0.135 A 
ATOM     47  C   UNL     1       4.302   0.818  26.203  0.00  0.00    +0.181 A 
BRANCH  47  48
ATOM     48  C   UNL     1       3.989  -0.345  27.026  0.00  0.00    +0.025 A 
ATOM     49  C   UNL     1       4.805  -0.537  28.140  0.00  0.00    +0.015 A 
ATOM     50  C   UNL     1       4.745  -1.727  28.834  0.00  0.00    +0.050 A 
ATOM     51  C   UNL     1       3.726  -2.632  28.550  0.00  0.00    +0.158 A 
ATOM     52  C   UNL     1       2.812  -2.406  27.517  0.00  0.00    +0.162 A 
ATOM     53  C   UNL     1       3.015  -1.291  26.693  0.00  0.00    +0.061 A 
BRANCH  52  54
ATOM     54  O   UNL     1       1.658  -3.070  27.229  0.00  0.00    -0.491 OA
ATOM     55  C   UNL     1       0.566  -2.441  26.581  0.00  0.00    +0.277 C 
ENDBRANCH  52  54
BRANCH  51  56
ATOM     56  O   UNL     1       3.628  -3.656  29.442  0.00  0.00    -0.503 OA
ATOM     57  H   UNL     1       2.827  -3.439  29.953  0.00  0.00    +0.292 HD
ENDBRANCH  51  56
ENDBRANCH  47  48
BRANCH  46  58
ATOM     58  O   UNL     1       5.388   4.702  23.151  0.00  0.00    -0.506 OA
ATOM     59  H   UNL     1       6.299   4.748  23.493  0.00  0.00    +0.292 HD
ENDBRANCH  46  58
BRANCH  43  60
ATOM     60  O   UNL     1       2.231   6.491  26.230  0.00  0.00    -0.461 OA
BRANCH  60  61
ATOM     61  C   UNL     1       2.697   7.071  27.465  0.00  0.00    +0.339 C 
ATOM     62  O   UNL     1       4.049   6.684  27.737  0.00  0.00    -0.334 OA
ATOM     63  C   UNL     1       4.165   5.271  27.961  0.00  0.00    +0.150 C 
ATOM     64  C   UNL     1       5.649   4.941  28.042  0.00  0.00    +0.041 C 
ATOM     65  C   UNL     1       3.420   4.868  29.240  0.00  0.00    +0.174 C 
ATOM     66  C   UNL     1       1.941   5.288  29.147  0.00  0.00    +0.180 C 
ATOM     67  C   UNL     1       1.816   6.753  28.706  0.00  0.00    +0.214 C 
BRANCH  67  68
ATOM     68  O   UNL     1       0.444   7.104  28.508  0.00  0.00    -0.383 OA
ATOM     69  H   UNL     1      -0.051   6.856  29.306  0.00  0.00    +0.210 HD
ENDBRANCH  67  68
BRANCH  66  70
ATOM     70  O   UNL     1       1.308   5.086  30.425  0.00  0.00    -0.386 OA
ATOM     71  H   UNL     1       1.408   4.154  30.682  0.00  0.00    +0.210 HD
ENDBRANCH  66  70
BRANCH  65  72
ATOM     72  O   UNL     1       3.548   3.465  29.482  0.00  0.00    -0.387 OA
ATOM     73  H   UNL     1       4.334   3.139  29.009  0.00  0.00    +0.210 HD
ENDBRANCH  65  72
ENDBRANCH  60  61
ENDBRANCH  43  60
ENDBRANCH  36  37
ENDBRANCH   3  36
BRANCH   1  74
ATOM     74  C   UNL     1      10.245   0.402  23.900  0.00  0.00    +0.197 C 
BRANCH  74  75
ATOM     75  O   UNL     1       9.818   1.272  24.939  0.00  0.00    -0.346 OA
BRANCH  75  79
ATOM     76  C   UNL     1       8.246   5.065  26.161  0.00  0.00    +0.041 C 
ATOM     77  C   UNL     1       8.142   4.480  24.757  0.00  0.00    +0.149 C 
ATOM     78  O   UNL     1       8.448   3.082  24.768  0.00  0.00    -0.343 OA
ATOM     79  C   UNL     1       9.838   2.693  24.815  0.00  0.00    +0.282 C 
ATOM     80  C   UNL     1      10.581   3.320  23.605  0.00  0.00    +0.201 C 
ATOM     81  C   UNL     1      10.426   4.853  23.696  0.00  0.00    +0.179 C 
ATOM     82  C   UNL     1       8.948   5.266  23.715  0.00  0.00    +0.174 C 
BRANCH  80  83
ATOM     83  O   UNL     1      10.046   2.863  22.344  0.00  0.00    -0.384 OA
ATOM     84  H   UNL     1       9.573   3.630  21.967  0.00  0.00    +0.210 HD
ENDBRANCH  80  83
BRANCH  81  85
ATOM     85  O   UNL     1      11.064   5.494  22.576  0.00  0.00    -0.386 OA
ATOM     86  H   UNL     1      11.474   6.304  22.948  0.00  0.00    +0.210 HD
ENDBRANCH  81  85
BRANCH  82  87
ATOM     87  O   UNL     1       8.406   5.040  22.396  0.00  0.00    -0.387 OA
ATOM     88  H   UNL     1       7.608   5.611  22.329  0.00  0.00    +0.210 HD
ENDBRANCH  82  87
ENDBRANCH  75  79
ENDBRANCH  74  75
ENDBRANCH   1  74
TORSDOF 28
ENDMDL
MODEL 3
REMARK VINA RESULT:      -5.7      2.447      8.784
REMARK  Name = 
REMARK  32 active torsions:
REMARK  status: ('A' for Active; 'I' for Inactive)
REMARK    1  A    between atoms: C_1  and  C_2
REMARK    2  A    between atoms: C_3  and  O_87
REMARK    3  A    between atoms: C_5  and  O_86
REMARK    4  A    between atoms: C_6  and  O_85
REMARK    5  A    between atoms: C_8  and  O_11
REMARK    6  A    between atoms: O_11  and  C_12
REMARK    7  A    between atoms: C_12  and  C_13
REMARK    8  A    between atoms: C_14  and  O_84
REMARK    9  A    between atoms: C_16  and  O_72
REMARK   10  A    between atoms: C_18  and  O_58
REMARK   11  A    between atoms: C_19  and  O_22
REMARK   12  A    between atoms: O_22  and  C_23
REMARK   13  A    between atoms: C_24  and  C_49
REMARK   14  A    between atoms: C_28  and  O_35
REMARK   15  A    between atoms: C_30  and  O_34
REMARK   16  A    between atoms: O_35  and  C_36
REMARK   17  A    between atoms: C_38  and  O_48
REMARK   18  A    between atoms: C_40  and  O_47
REMARK   19  A    between atoms: C_41  and  O_46
REMARK   20  A    between atoms: C_43  and  C_45
REMARK   21  A    between atoms: C_51  and  O_56
REMARK   22  A    between atoms: C_52  and  O_55
REMARK   23  A    between atoms: O_56  and  C_57
REMARK   24  A    between atoms: O_58  and  C_59
REMARK   25  A    between atoms: C_61  and  O_71
REMARK   26  A    between atoms: C_63  and  O_70
REMARK   27  A    between atoms: C_64  and  O_69
REMARK   28  A    between atoms: C_66  and  C_68
REMARK   29  A    between atoms: O_72  and  C_73
REMARK   30  A    between atoms: C_73  and  C_75
REMARK   31  A    between atoms: C_76  and  C_77
REMARK   32  A    between atoms: C_80  and  O_83
REMARK                            x       y       z     vdW  Elec       q    Type
REMARK                         _______ _______ _______ _____ _____    ______ ____
ROOT
ATOM      1  C   UNL     1       4.490   2.769  24.023  0.00  0.00    +0.180 C 
ATOM      2  O   UNL     1       4.677   1.428  24.547  0.00  0.00    -0.331 OA
ATOM      3  C   UNL     1       5.530   1.253  25.694  0.00  0.00    +0.341 C 
ATOM      4  C   UNL     1       6.920   1.977  25.526  0.00  0.00    +0.233 C 
ATOM      5  C   UNL     1       6.582   3.453  25.302  0.00  0.00    +0.242 C 
ATOM      6  C   UNL     1       5.803   3.607  23.978  0.00  0.00    +0.189 C 
ENDROOT
BRANCH   6   7
ATOM      7  O   UNL     1       6.603   3.219  22.849  0.00  0.00    -0.385 OA
ATOM      8  H   UNL     1       6.011   2.866  22.153  0.00  0.00    +0.210 HD
ENDBRANCH   6   7
BRANCH   4   9
ATOM      9  O   UNL     1       7.730   1.397  24.461  0.00  0.00    -0.335 OA
BRANCH   9  10
ATOM     10  C   UNL     1       9.110   1.072  24.751  0.00  0.00    +0.282 C 
ATOM     11  O   UNL     1       9.822   0.832  23.525  0.00  0.00    -0.343 OA
ATOM     12  C   UNL     1       9.369  -0.323  22.809  0.00  0.00    +0.149 C 
ATOM     13  C   UNL     1      10.295  -0.507  21.605  0.00  0.00    +0.041 C 
ATOM     14  C   UNL     1       9.360  -1.607  23.660  0.00  0.00    +0.174 C 
ATOM     15  C   UNL     1       8.720  -1.369  25.032  0.00  0.00    +0.179 C 
ATOM     16  C   UNL     1       9.353  -0.141  25.679  0.00  0.00    +0.201 C 
BRANCH  15  17
ATOM     17  O   UNL     1       8.920  -2.510  25.879  0.00  0.00    -0.386 OA
ATOM     18  H   UNL     1       8.100  -2.600  26.405  0.00  0.00    +0.210 HD
ENDBRANCH  15  17
BRANCH  16  19
ATOM     19  O   UNL     1       8.850  -0.029  27.017  0.00  0.00    -0.384 OA
ATOM     20  H   UNL     1       8.156  -0.701  27.134  0.00  0.00    +0.210 HD
ENDBRANCH  16  19
BRANCH  14  21
ATOM     21  O   UNL     1       8.696  -2.655  22.945  0.00  0.00    -0.387 OA
ATOM     22  H   UNL     1       8.619  -2.391  22.012  0.00  0.00    +0.210 HD
ENDBRANCH  14  21
ENDBRANCH   9  10
ENDBRANCH   4   9
BRANCH   5  23
ATOM     23  O   UNL     1       7.792   4.254  25.340  0.00  0.00    -0.453 OA
BRANCH  23  24
ATOM     24  C   UNL     1       7.615   5.591  25.175  0.00  0.00    +0.332 C 
ATOM     25  O   UNL     1       8.075   6.258  24.260  0.00  0.00    -0.246 OA
BRANCH  24  26
ATOM     26  C   UNL     1       6.741   6.092  26.246  0.00  0.00    +0.092 C 
ATOM     27  C   UNL     1       5.577   5.475  26.496  0.00  0.00    +0.015 C 
BRANCH  27  28
ATOM     28  C   UNL     1       4.690   5.969  27.544  0.00  0.00    -0.025 A 
ATOM     29  C   UNL     1       3.541   6.697  27.216  0.00  0.00    +0.011 A 
ATOM     30  C   UNL     1       2.652   7.086  28.219  0.00  0.00    +0.046 A 
ATOM     31  C   UNL     1       2.912   6.746  29.542  0.00  0.00    +0.117 A 
ATOM     32  C   UNL     1       4.066   6.048  29.886  0.00  0.00    +0.046 A 
ATOM     33  C   UNL     1       4.957   5.660  28.883  0.00  0.00    +0.011 A 
BRANCH  31  34
ATOM     34  O   UNL     1       1.996   7.108  30.484  0.00  0.00    -0.507 OA
ATOM     35  H   UNL     1       1.251   7.544  30.040  0.00  0.00    +0.292 HD
ENDBRANCH  31  34
ENDBRANCH  27  28
ENDBRANCH  24  26
ENDBRANCH  23  24
ENDBRANCH   5  23
BRANCH   3  36
ATOM     36  O   UNL     1       5.823  -0.137  25.941  0.00  0.00    -0.453 OA
BRANCH  36  37
ATOM     37  C   UNL     1       4.940  -1.197  25.739  0.00  0.00    +0.214 A 
ATOM     38  C   UNL     1       5.106  -2.278  24.707  0.00  0.00    +0.238 A 
ATOM     39  O   UNL     1       6.132  -2.351  24.044  0.00  0.00    -0.283 OA
ATOM     40  C   UNL     1       3.986  -3.271  24.568  0.00  0.00    +0.109 A 
ATOM     41  C   UNL     1       2.955  -3.224  25.493  0.00  0.00    +0.147 A 
ATOM     42  C   UNL     1       1.911  -4.166  25.506  0.00  0.00    +0.093 A 
ATOM     43  C   UNL     1       1.816  -5.143  24.520  0.00  0.00    +0.131 A 
ATOM     44  C   UNL     1       2.824  -5.179  23.549  0.00  0.00    +0.092 A 
ATOM     45  O   UNL     1       2.858  -2.248  26.439  0.00  0.00    -0.451 OA
ATOM     46  C   UNL     1       3.908  -4.268  23.590  0.00  0.00    +0.135 A 
ATOM     47  C   UNL     1       3.817  -1.265  26.480  0.00  0.00    +0.181 A 
BRANCH  47  48
ATOM     48  C   UNL     1       3.587  -0.374  27.612  0.00  0.00    +0.025 A 
ATOM     49  C   UNL     1       2.308   0.173  27.704  0.00  0.00    +0.015 A 
ATOM     50  C   UNL     1       2.068   1.204  28.588  0.00  0.00    +0.050 A 
ATOM     51  C   UNL     1       3.041   1.539  29.526  0.00  0.00    +0.158 A 
ATOM     52  C   UNL     1       4.292   0.917  29.538  0.00  0.00    +0.162 A 
ATOM     53  C   UNL     1       4.589   0.018  28.505  0.00  0.00    +0.061 A 
BRANCH  52  54
ATOM     54  O   UNL     1       5.273   0.977  30.482  0.00  0.00    -0.491 OA
ATOM     55  C   UNL     1       6.313   1.938  30.431  0.00  0.00    +0.277 C 
ENDBRANCH  52  54
BRANCH  51  56
ATOM     56  O   UNL     1       2.612   2.405  30.485  0.00  0.00    -0.503 OA
ATOM     57  H   UNL     1       3.378   2.484  31.082  0.00  0.00    +0.292 HD
ENDBRANCH  51  56
ENDBRANCH  47  48
BRANCH  46  58
ATOM     58  O   UNL     1       4.854  -4.353  22.611  0.00  0.00    -0.506 OA
ATOM     59  H   UNL     1       5.289  -3.486  22.522  0.00  0.00    +0.292 HD
ENDBRANCH  46  58
BRANCH  43  60
ATOM     60  O   UNL     1       0.782  -6.051  24.393  0.00  0.00    -0.461 OA
BRANCH  60  61
ATOM     61  C   UNL     1       0.930  -7.301  25.096  0.00  0.00    +0.339 C 
ATOM     62  O   UNL     1       0.446  -7.197  26.439  0.00  0.00    -0.334 OA
ATOM     63  C   UNL     1       1.225  -6.277  27.218  0.00  0.00    +0.150 C 
ATOM     64  C   UNL     1       0.516  -6.091  28.553  0.00  0.00    +0.041 C 
ATOM     65  C   UNL     1       2.655  -6.804  27.399  0.00  0.00    +0.174 C 
ATOM     66  C   UNL     1       3.307  -7.049  26.026  0.00  0.00    +0.180 C 
ATOM     67  C   UNL     1       2.378  -7.867  25.118  0.00  0.00    +0.214 C 
BRANCH  67  68
ATOM     68  O   UNL     1       2.937  -7.992  23.808  0.00  0.00    -0.383 OA
ATOM     69  H   UNL     1       3.831  -8.362  23.893  0.00  0.00    +0.210 HD
ENDBRANCH  67  68
BRANCH  66  70
ATOM     70  O   UNL     1       4.564  -7.729  26.211  0.00  0.00    -0.386 OA
ATOM     71  H   UNL     1       4.657  -7.966  27.149  0.00  0.00    +0.210 HD
ENDBRANCH  66  70
BRANCH  65  72
ATOM     72  O   UNL     1       3.432  -5.903  28.191  0.00  0.00    -0.387 OA
ATOM     73  H   UNL     1       4.368  -6.000  27.943  0.00  0.00    +0.210 HD
ENDBRANCH  65  72
ENDBRANCH  60  61
ENDBRANCH  43  60
ENDBRANCH  36  37
ENDBRANCH   3  36
BRANCH   1  74
ATOM     74  C   UNL     1       3.374   3.612  24.716  0.00  0.00    +0.197 C 
BRANCH  74  75
ATOM     75  O   UNL     1       2.033   3.254  24.414  0.00  0.00    -0.346 OA
BRANCH  75  79
ATOM     76  C   UNL     1       0.464   1.962  20.642  0.00  0.00    +0.041 C 
ATOM     77  C   UNL     1       1.650   2.903  20.827  0.00  0.00    +0.149 C 
ATOM     78  O   UNL     1       2.129   2.854  22.174  0.00  0.00    -0.343 OA
ATOM     79  C   UNL     1       1.401   3.591  23.180  0.00  0.00    +0.282 C 
ATOM     80  C   UNL     1       1.337   5.086  22.766  0.00  0.00    +0.201 C 
ATOM     81  C   UNL     1       0.635   5.168  21.394  0.00  0.00    +0.179 C 
ATOM     82  C   UNL     1       1.369   4.329  20.338  0.00  0.00    +0.174 C 
BRANCH  80  83
ATOM     83  O   UNL     1       2.651   5.676  22.663  0.00  0.00    -0.384 OA
ATOM     84  H   UNL     1       3.279   4.930  22.735  0.00  0.00    +0.210 HD
ENDBRANCH  80  83
BRANCH  81  85
ATOM     85  O   UNL     1       0.578   6.531  20.935  0.00  0.00    -0.386 OA
ATOM     86  H   UNL     1       1.215   7.016  21.501  0.00  0.00    +0.210 HD
ENDBRANCH  81  85
BRANCH  82  87
ATOM     87  O   UNL     1       2.608   4.998  20.023  0.00  0.00    -0.387 OA
ATOM     88  H   UNL     1       2.358   5.824  19.550  0.00  0.00    +0.210 HD
ENDBRANCH  82  87
ENDBRANCH  75  79
ENDBRANCH  74  75
ENDBRANCH   1  74
TORSDOF 28
ENDMDL
MODEL 4
REMARK VINA RESULT:      -5.7      2.243      7.722
REMARK  Name = 
REMARK  32 active torsions:
REMARK  status: ('A' for Active; 'I' for Inactive)
REMARK    1  A    between atoms: C_1  and  C_2
REMARK    2  A    between atoms: C_3  and  O_87
REMARK    3  A    between atoms: C_5  and  O_86
REMARK    4  A    between atoms: C_6  and  O_85
REMARK    5  A    between atoms: C_8  and  O_11
REMARK    6  A    between atoms: O_11  and  C_12
REMARK    7  A    between atoms: C_12  and  C_13
REMARK    8  A    between atoms: C_14  and  O_84
REMARK    9  A    between atoms: C_16  and  O_72
REMARK   10  A    between atoms: C_18  and  O_58
REMARK   11  A    between atoms: C_19  and  O_22
REMARK   12  A    between atoms: O_22  and  C_23
REMARK   13  A    between atoms: C_24  and  C_49
REMARK   14  A    between atoms: C_28  and  O_35
REMARK   15  A    between atoms: C_30  and  O_34
REMARK   16  A    between atoms: O_35  and  C_36
REMARK   17  A    between atoms: C_38  and  O_48
REMARK   18  A    between atoms: C_40  and  O_47
REMARK   19  A    between atoms: C_41  and  O_46
REMARK   20  A    between atoms: C_43  and  C_45
REMARK   21  A    between atoms: C_51  and  O_56
REMARK   22  A    between atoms: C_52  and  O_55
REMARK   23  A    between atoms: O_56  and  C_57
REMARK   24  A    between atoms: O_58  and  C_59
REMARK   25  A    between atoms: C_61  and  O_71
REMARK   26  A    between atoms: C_63  and  O_70
REMARK   27  A    between atoms: C_64  and  O_69
REMARK   28  A    between atoms: C_66  and  C_68
REMARK   29  A    between atoms: O_72  and  C_73
REMARK   30  A    between atoms: C_73  and  C_75
REMARK   31  A    between atoms: C_76  and  C_77
REMARK   32  A    between atoms: C_80  and  O_83
REMARK                            x       y       z     vdW  Elec       q    Type
REMARK                         _______ _______ _______ _____ _____    ______ ____
ROOT
ATOM      1  C   UNL     1       7.027   5.205  24.482  0.00  0.00    +0.180 C 
ATOM      2  O   UNL     1       5.855   4.600  25.087  0.00  0.00    -0.331 OA
ATOM      3  C   UNL     1       5.664   3.179  24.940  0.00  0.00    +0.341 C 
ATOM      4  C   UNL     1       5.819   2.703  23.446  0.00  0.00    +0.233 C 
ATOM      5  C   UNL     1       7.234   3.121  23.034  0.00  0.00    +0.242 C 
ATOM      6  C   UNL     1       7.340   4.661  23.055  0.00  0.00    +0.189 C 
ENDROOT
BRANCH   6   7
ATOM      7  O   UNL     1       6.463   5.263  22.089  0.00  0.00    -0.385 OA
ATOM      8  H   UNL     1       6.333   6.204  22.328  0.00  0.00    +0.210 HD
ENDBRANCH   6   7
BRANCH   4   9
ATOM      9  O   UNL     1       4.778   3.235  22.575  0.00  0.00    -0.335 OA
BRANCH   9  10
ATOM     10  C   UNL     1       3.507   3.591  23.168  0.00  0.00    +0.282 C 
ATOM     11  O   UNL     1       2.458   2.801  22.582  0.00  0.00    -0.343 OA
ATOM     12  C   UNL     1       2.243   3.064  21.191  0.00  0.00    +0.149 C 
ATOM     13  C   UNL     1       1.030   2.242  20.751  0.00  0.00    +0.041 C 
ATOM     14  C   UNL     1       2.002   4.555  20.880  0.00  0.00    +0.174 C 
ATOM     15  C   UNL     1       3.025   5.451  21.587  0.00  0.00    +0.179 C 
ATOM     16  C   UNL     1       3.088   5.075  23.065  0.00  0.00    +0.201 C 
BRANCH  15  17
ATOM     17  O   UNL     1       2.649   6.829  21.462  0.00  0.00    -0.386 OA
ATOM     18  H   UNL     1       3.420   7.282  21.066  0.00  0.00    +0.210 HD
ENDBRANCH  15  17
BRANCH  16  19
ATOM     19  O   UNL     1       3.933   6.022  23.733  0.00  0.00    -0.384 OA
ATOM     20  H   UNL     1       4.557   5.526  24.291  0.00  0.00    +0.210 HD
ENDBRANCH  16  19
BRANCH  14  21
ATOM     21  O   UNL     1       2.014   4.760  19.463  0.00  0.00    -0.387 OA
ATOM     22  H   UNL     1       2.010   3.891  19.026  0.00  0.00    +0.210 HD
ENDBRANCH  14  21
ENDBRANCH   9  10
ENDBRANCH   4   9
BRANCH   5  23
ATOM     23  O   UNL     1       7.566   2.551  21.741  0.00  0.00    -0.453 OA
BRANCH  23  24
ATOM     24  C   UNL     1       8.471   1.537  21.764  0.00  0.00    +0.332 C 
ATOM     25  O   UNL     1       9.651   1.636  21.463  0.00  0.00    -0.246 OA
BRANCH  24  26
ATOM     26  C   UNL     1       7.809   0.319  22.256  0.00  0.00    +0.092 C 
ATOM     27  C   UNL     1       8.518  -0.811  22.394  0.00  0.00    +0.015 C 
BRANCH  27  28
ATOM     28  C   UNL     1       7.873  -2.033  22.863  0.00  0.00    -0.025 A 
ATOM     29  C   UNL     1       6.529  -2.284  22.570  0.00  0.00    +0.011 A 
ATOM     30  C   UNL     1       5.947  -3.496  22.944  0.00  0.00    +0.046 A 
ATOM     31  C   UNL     1       6.710  -4.451  23.607  0.00  0.00    +0.117 A 
ATOM     32  C   UNL     1       8.040  -4.203  23.933  0.00  0.00    +0.046 A 
ATOM     33  C   UNL     1       8.622  -2.989  23.560  0.00  0.00    +0.011 A 
BRANCH  31  34
ATOM     34  O   UNL     1       6.115  -5.638  23.916  0.00  0.00    -0.507 OA
ATOM     35  H   UNL     1       6.498  -5.970  24.745  0.00  0.00    +0.292 HD
ENDBRANCH  31  34
ENDBRANCH  27  28
ENDBRANCH  24  26
ENDBRANCH  23  24
ENDBRANCH   5  23
BRANCH   3  36
ATOM     36  O   UNL     1       4.350   2.766  25.365  0.00  0.00    -0.453 OA
BRANCH  36  37
ATOM     37  C   UNL     1       4.074   1.702  26.222  0.00  0.00    +0.214 A 
ATOM     38  C   UNL     1       4.767   0.368  26.198  0.00  0.00    +0.238 A 
ATOM     39  O   UNL     1       5.733   0.183  25.471  0.00  0.00    -0.283 OA
ATOM     40  C   UNL     1       4.247  -0.692  27.129  0.00  0.00    +0.109 A 
ATOM     41  C   UNL     1       3.278  -0.330  28.052  0.00  0.00    +0.147 A 
ATOM     42  C   UNL     1       2.795  -1.221  29.027  0.00  0.00    +0.093 A 
ATOM     43  C   UNL     1       3.208  -2.550  29.049  0.00  0.00    +0.131 A 
ATOM     44  C   UNL     1       4.153  -2.947  28.096  0.00  0.00    +0.092 A 
ATOM     45  O   UNL     1       2.698   0.903  28.066  0.00  0.00    -0.451 OA
ATOM     46  C   UNL     1       4.683  -2.020  27.165  0.00  0.00    +0.135 A 
ATOM     47  C   UNL     1       3.084   1.829  27.128  0.00  0.00    +0.181 A 
BRANCH  47  48
ATOM     48  C   UNL     1       2.420   3.106  27.366  0.00  0.00    +0.025 A 
ATOM     49  C   UNL     1       1.356   3.405  26.515  0.00  0.00    +0.015 A 
ATOM     50  C   UNL     1       0.828   4.679  26.504  0.00  0.00    +0.050 A 
ATOM     51  C   UNL     1       1.213   5.586  27.486  0.00  0.00    +0.158 A 
ATOM     52  C   UNL     1       2.190   5.270  28.434  0.00  0.00    +0.162 A 
ATOM     53  C   UNL     1       2.860   4.045  28.303  0.00  0.00    +0.061 A 
BRANCH  52  54
ATOM     54  O   UNL     1       2.544   5.945  29.563  0.00  0.00    -0.491 OA
ATOM     55  C   UNL     1       3.872   5.941  30.060  0.00  0.00    +0.277 C 
ENDBRANCH  52  54
BRANCH  51  56
ATOM     56  O   UNL     1       0.465   6.723  27.515  0.00  0.00    -0.503 OA
ATOM     57  H   UNL     1       0.826   7.216  28.274  0.00  0.00    +0.292 HD
ENDBRANCH  51  56
ENDBRANCH  47  48
BRANCH  46  58
ATOM     58  O   UNL     1       5.598  -2.473  26.259  0.00  0.00    -0.506 OA
ATOM     59  H   UNL     1       5.241  -3.268  25.826  0.00  0.00    +0.292 HD
ENDBRANCH  46  58
BRANCH  43  60
ATOM     60  O   UNL     1       2.724  -3.521  29.904  0.00  0.00    -0.461 OA
BRANCH  60  61
ATOM     61  C   UNL     1       1.474  -4.139  29.538  0.00  0.00    +0.339 C 
ATOM     62  O   UNL     1       1.354  -5.442  30.121  0.00  0.00    -0.334 OA
ATOM     63  C   UNL     1       2.342  -6.348  29.611  0.00  0.00    +0.150 C 
ATOM     64  C   UNL     1       2.255  -7.629  30.430  0.00  0.00    +0.041 C 
ATOM     65  C   UNL     1       2.110  -6.610  28.117  0.00  0.00    +0.174 C 
ATOM     66  C   UNL     1       2.131  -5.282  27.337  0.00  0.00    +0.180 C 
ATOM     67  C   UNL     1       1.222  -4.242  28.007  0.00  0.00    +0.214 C 
BRANCH  67  68
ATOM     68  O   UNL     1       1.335  -2.977  27.348  0.00  0.00    -0.383 OA
ATOM     69  H   UNL     1       1.733  -3.124  26.474  0.00  0.00    +0.210 HD
ENDBRANCH  67  68
BRANCH  66  70
ATOM     70  O   UNL     1       1.714  -5.521  25.979  0.00  0.00    -0.386 OA
ATOM     71  H   UNL     1       2.184  -6.302  25.640  0.00  0.00    +0.210 HD
ENDBRANCH  66  70
BRANCH  65  72
ATOM     72  O   UNL     1       3.078  -7.529  27.606  0.00  0.00    -0.387 OA
ATOM     73  H   UNL     1       3.651  -7.817  28.339  0.00  0.00    +0.210 HD
ENDBRANCH  65  72
ENDBRANCH  60  61
ENDBRANCH  43  60
ENDBRANCH  36  37
ENDBRANCH   3  36
BRANCH   1  74
ATOM     74  C   UNL     1       8.328   5.156  25.340  0.00  0.00    +0.197 C 
BRANCH  74  75
ATOM     75  O   UNL     1       9.348   4.274  24.893  0.00  0.00    -0.346 OA
BRANCH  75  79
ATOM     76  C   UNL     1      12.434   7.106  25.794  0.00  0.00    +0.041 C 
ATOM     77  C   UNL     1      11.892   6.808  24.400  0.00  0.00    +0.149 C 
ATOM     78  O   UNL     1      10.656   6.092  24.481  0.00  0.00    -0.343 OA
ATOM     79  C   UNL     1      10.711   4.674  24.751  0.00  0.00    +0.282 C 
ATOM     80  C   UNL     1      11.575   3.983  23.662  0.00  0.00    +0.201 C 
ATOM     81  C   UNL     1      12.983   4.615  23.703  0.00  0.00    +0.179 C 
ATOM     82  C   UNL     1      12.922   6.133  23.485  0.00  0.00    +0.174 C 
BRANCH  80  83
ATOM     83  O   UNL     1      11.018   4.151  22.341  0.00  0.00    -0.384 OA
ATOM     84  H   UNL     1      10.308   3.483  22.270  0.00  0.00    +0.210 HD
ENDBRANCH  80  83
BRANCH  81  85
ATOM     85  O   UNL     1      13.825   4.042  22.687  0.00  0.00    -0.386 OA
ATOM     86  H   UNL     1      14.617   4.620  22.659  0.00  0.00    +0.210 HD
ENDBRANCH  81  85
BRANCH  82  87
ATOM     87  O   UNL     1      12.584   6.369  22.101  0.00  0.00    -0.387 OA
ATOM     88  H   UNL     1      11.813   6.980  22.110  0.00  0.00    +0.210 HD
ENDBRANCH  82  87
ENDBRANCH  75  79
ENDBRANCH  74  75
ENDBRANCH   1  74
TORSDOF 28
ENDMDL
MODEL 5
REMARK VINA RESULT:      -5.4      2.302      9.305
REMARK  Name = 
REMARK  32 active torsions:
REMARK  status: ('A' for Active; 'I' for Inactive)
REMARK    1  A    between atoms: C_1  and  C_2
REMARK    2  A    between atoms: C_3  and  O_87
REMARK    3  A    between atoms: C_5  and  O_86
REMARK    4  A    between atoms: C_6  and  O_85
REMARK    5  A    between atoms: C_8  and  O_11
REMARK    6  A    between atoms: O_11  and  C_12
REMARK    7  A    between atoms: C_12  and  C_13
REMARK    8  A    between atoms: C_14  and  O_84
REMARK    9  A    between atoms: C_16  and  O_72
REMARK   10  A    between atoms: C_18  and  O_58
REMARK   11  A    between atoms: C_19  and  O_22
REMARK   12  A    between atoms: O_22  and  C_23
REMARK   13  A    between atoms: C_24  and  C_49
REMARK   14  A    between atoms: C_28  and  O_35
REMARK   15  A    between atoms: C_30  and  O_34
REMARK   16  A    between atoms: O_35  and  C_36
REMARK   17  A    between atoms: C_38  and  O_48
REMARK   18  A    between atoms: C_40  and  O_47
REMARK   19  A    between atoms: C_41  and  O_46
REMARK   20  A    between atoms: C_43  and  C_45
REMARK   21  A    between atoms: C_51  and  O_56
REMARK   22  A    between atoms: C_52  and  O_55
REMARK   23  A    between atoms: O_56  and  C_57
REMARK   24  A    between atoms: O_58  and  C_59
REMARK   25  A    between atoms: C_61  and  O_71
REMARK   26  A    between atoms: C_63  and  O_70
REMARK   27  A    between atoms: C_64  and  O_69
REMARK   28  A    between atoms: C_66  and  C_68
REMARK   29  A    between atoms: O_72  and  C_73
REMARK   30  A    between atoms: C_73  and  C_75
REMARK   31  A    between atoms: C_76  and  C_77
REMARK   32  A    between atoms: C_80  and  O_83
REMARK                            x       y       z     vdW  Elec       q    Type
REMARK                         _______ _______ _______ _____ _____    ______ ____
ROOT
ATOM      1  C   UNL     1       4.484   2.707  24.032  0.00  0.00    +0.180 C 
ATOM      2  O   UNL     1       4.469   1.452  24.762  0.00  0.00    -0.331 OA
ATOM      3  C   UNL     1       5.202   1.370  26.000  0.00  0.00    +0.341 C 
ATOM      4  C   UNL     1       6.677   1.909  25.862  0.00  0.00    +0.233 C 
ATOM      5  C   UNL     1       6.534   3.360  25.393  0.00  0.00    +0.242 C 
ATOM      6  C   UNL     1       5.887   3.385  23.992  0.00  0.00    +0.189 C 
ENDROOT
BRANCH   6   7
ATOM      7  O   UNL     1       6.722   2.743  23.014  0.00  0.00    -0.385 OA
ATOM      8  H   UNL     1       6.516   3.118  22.133  0.00  0.00    +0.210 HD
ENDBRANCH   6   7
BRANCH   4   9
ATOM      9  O   UNL     1       7.494   1.088  24.977  0.00  0.00    -0.335 OA
BRANCH   9  10
ATOM     10  C   UNL     1       8.890   0.903  25.311  0.00  0.00    +0.282 C 
ATOM     11  O   UNL     1       9.653   0.684  24.112  0.00  0.00    -0.343 OA
ATOM     12  C   UNL     1       9.327  -0.534  23.433  0.00  0.00    +0.149 C 
ATOM     13  C   UNL     1      10.297  -0.679  22.259  0.00  0.00    +0.041 C 
ATOM     14  C   UNL     1       9.412  -1.781  24.335  0.00  0.00    +0.174 C 
ATOM     15  C   UNL     1       8.717  -1.551  25.682  0.00  0.00    +0.179 C 
ATOM     16  C   UNL     1       9.218  -0.245  26.292  0.00  0.00    +0.201 C 
BRANCH  15  17
ATOM     17  O   UNL     1       8.999  -2.635  26.578  0.00  0.00    -0.386 OA
ATOM     18  H   UNL     1       9.468  -2.238  27.339  0.00  0.00    +0.210 HD
ENDBRANCH  15  17
BRANCH  16  19
ATOM     19  O   UNL     1       8.673  -0.129  27.613  0.00  0.00    -0.384 OA
ATOM     20  H   UNL     1       9.415  -0.057  28.239  0.00  0.00    +0.210 HD
ENDBRANCH  16  19
BRANCH  14  21
ATOM     21  O   UNL     1       8.867  -2.912  23.648  0.00  0.00    -0.387 OA
ATOM     22  H   UNL     1       9.351  -3.708  23.931  0.00  0.00    +0.210 HD
ENDBRANCH  14  21
ENDBRANCH   9  10
ENDBRANCH   4   9
BRANCH   5  23
ATOM     23  O   UNL     1       7.824   4.025  25.429  0.00  0.00    -0.453 OA
BRANCH  23  24
ATOM     24  C   UNL     1       7.793   5.372  25.248  0.00  0.00    +0.332 C 
ATOM     25  O   UNL     1       6.882   6.110  25.590  0.00  0.00    -0.246 OA
BRANCH  24  26
ATOM     26  C   UNL     1       9.053   5.798  24.620  0.00  0.00    +0.092 C 
ATOM     27  C   UNL     1      10.005   4.890  24.359  0.00  0.00    +0.015 C 
BRANCH  27  28
ATOM     28  C   UNL     1      11.267   5.299  23.753  0.00  0.00    -0.025 A 
ATOM     29  C   UNL     1      11.669   4.767  22.523  0.00  0.00    +0.011 A 
ATOM     30  C   UNL     1      12.832   5.232  21.907  0.00  0.00    +0.046 A 
ATOM     31  C   UNL     1      13.586   6.225  22.522  0.00  0.00    +0.117 A 
ATOM     32  C   UNL     1      13.215   6.742  23.759  0.00  0.00    +0.046 A 
ATOM     33  C   UNL     1      12.052   6.276  24.376  0.00  0.00    +0.011 A 
BRANCH  31  34
ATOM     34  O   UNL     1      14.691   6.682  21.866  0.00  0.00    -0.507 OA
ATOM     35  H   UNL     1      14.706   6.293  20.976  0.00  0.00    +0.292 HD
ENDBRANCH  31  34
ENDBRANCH  27  28
ENDBRANCH  24  26
ENDBRANCH  23  24
ENDBRANCH   5  23
BRANCH   3  36
ATOM     36  O   UNL     1       5.308   0.014  26.475  0.00  0.00    -0.453 OA
BRANCH  36  37
ATOM     37  C   UNL     1       4.461  -1.036  26.120  0.00  0.00    +0.214 A 
ATOM     38  C   UNL     1       4.790  -2.117  25.128  0.00  0.00    +0.238 A 
ATOM     39  O   UNL     1       5.914  -2.202  24.652  0.00  0.00    -0.283 OA
ATOM     40  C   UNL     1       3.699  -3.096  24.794  0.00  0.00    +0.109 A 
ATOM     41  C   UNL     1       2.524  -3.038  25.528  0.00  0.00    +0.147 A 
ATOM     42  C   UNL     1       1.483  -3.968  25.357  0.00  0.00    +0.093 A 
ATOM     43  C   UNL     1       1.549  -4.942  24.366  0.00  0.00    +0.131 A 
ATOM     44  C   UNL     1       2.708  -4.989  23.584  0.00  0.00    +0.092 A 
ATOM     45  O   UNL     1       2.277  -2.063  26.446  0.00  0.00    -0.451 OA
ATOM     46  C   UNL     1       3.779  -4.092  23.815  0.00  0.00    +0.135 A 
ATOM     47  C   UNL     1       3.226  -1.091  26.656  0.00  0.00    +0.181 A 
BRANCH  47  48
ATOM     48  C   UNL     1       2.815  -0.199  27.733  0.00  0.00    +0.025 A 
ATOM     49  C   UNL     1       1.442  -0.114  27.961  0.00  0.00    +0.015 A 
ATOM     50  C   UNL     1       0.946   0.874  28.785  0.00  0.00    +0.050 A 
ATOM     51  C   UNL     1       1.828   1.635  29.547  0.00  0.00    +0.158 A 
ATOM     52  C   UNL     1       3.213   1.484  29.433  0.00  0.00    +0.162 A 
ATOM     53  C   UNL     1       3.699   0.619  28.442  0.00  0.00    +0.061 A 
BRANCH  52  54
ATOM     54  O   UNL     1       4.201   1.990  30.221  0.00  0.00    -0.491 OA
ATOM     55  C   UNL     1       5.397   1.277  30.485  0.00  0.00    +0.277 C 
ENDBRANCH  52  54
BRANCH  51  56
ATOM     56  O   UNL     1       1.223   2.414  30.484  0.00  0.00    -0.503 OA
ATOM     57  H   UNL     1       0.359   2.623  30.086  0.00  0.00    +0.292 HD
ENDBRANCH  51  56
ENDBRANCH  47  48
BRANCH  46  58
ATOM     58  O   UNL     1       4.880  -4.186  23.013  0.00  0.00    -0.506 OA
ATOM     59  H   UNL     1       5.388  -3.359  23.083  0.00  0.00    +0.292 HD
ENDBRANCH  46  58
BRANCH  43  60
ATOM     60  O   UNL     1       0.541  -5.837  24.060  0.00  0.00    -0.461 OA
BRANCH  60  61
ATOM     61  C   UNL     1       0.767  -7.214  24.424  0.00  0.00    +0.339 C 
ATOM     62  O   UNL     1       0.444  -7.441  25.801  0.00  0.00    -0.334 OA
ATOM     63  C   UNL     1       1.312  -6.711  26.680  0.00  0.00    +0.150 C 
ATOM     64  C   UNL     1       0.765  -6.863  28.093  0.00  0.00    +0.041 C 
ATOM     65  C   UNL     1       2.751  -7.231  26.566  0.00  0.00    +0.174 C 
ATOM     66  C   UNL     1       3.237  -7.129  25.109  0.00  0.00    +0.180 C 
ATOM     67  C   UNL     1       2.206  -7.733  24.146  0.00  0.00    +0.214 C 
BRANCH  67  68
ATOM     68  O   UNL     1       2.607  -7.532  22.788  0.00  0.00    -0.383 OA
ATOM     69  H   UNL     1       2.303  -8.292  22.265  0.00  0.00    +0.210 HD
ENDBRANCH  67  68
BRANCH  66  70
ATOM     70  O   UNL     1       4.505  -7.802  24.982  0.00  0.00    -0.386 OA
ATOM     71  H   UNL     1       4.572  -8.478  25.678  0.00  0.00    +0.210 HD
ENDBRANCH  66  70
BRANCH  65  72
ATOM     72  O   UNL     1       3.618  -6.523  27.455  0.00  0.00    -0.387 OA
ATOM     73  H   UNL     1       3.123  -5.783  27.849  0.00  0.00    +0.210 HD
ENDBRANCH  65  72
ENDBRANCH  60  61
ENDBRANCH  43  60
ENDBRANCH  36  37
ENDBRANCH   3  36
BRANCH   1  74
ATOM     74  C   UNL     1       3.425   3.759  24.483  0.00  0.00    +0.197 C 
BRANCH  74  75
ATOM     75  O   UNL     1       2.062   3.417  24.268  0.00  0.00    -0.346 OA
BRANCH  75  79
ATOM     76  C   UNL     1       0.446   1.613  20.735  0.00  0.00    +0.041 C 
ATOM     77  C   UNL     1       1.632   2.570  20.770  0.00  0.00    +0.149 C 
ATOM     78  O   UNL     1       2.130   2.709  22.105  0.00  0.00    -0.343 OA
ATOM     79  C   UNL     1       1.414   3.580  23.007  0.00  0.00    +0.282 C 
ATOM     80  C   UNL     1       1.343   5.002  22.390  0.00  0.00    +0.201 C 
ATOM     81  C   UNL     1       0.623   4.893  21.029  0.00  0.00    +0.179 C 
ATOM     82  C   UNL     1       1.343   3.915  20.091  0.00  0.00    +0.174 C 
BRANCH  80  83
ATOM     83  O   UNL     1       2.654   5.571  22.188  0.00  0.00    -0.384 OA
ATOM     84  H   UNL     1       3.226   5.157  22.864  0.00  0.00    +0.210 HD
ENDBRANCH  80  83
BRANCH  81  85
ATOM     85  O   UNL     1       0.558   6.178  20.385  0.00  0.00    -0.386 OA
ATOM     86  H   UNL     1       1.464   6.547  20.465  0.00  0.00    +0.210 HD
ENDBRANCH  81  85
BRANCH  82  87
ATOM     87  O   UNL     1       2.577   4.532  19.669  0.00  0.00    -0.387 OA
ATOM     88  H   UNL     1       3.264   3.829  19.720  0.00  0.00    +0.210 HD
ENDBRANCH  82  87
ENDBRANCH  75  79
ENDBRANCH  74  75
ENDBRANCH   1  74
TORSDOF 28
ENDMDL
MODEL 6
REMARK VINA RESULT:      -5.1      2.235      9.736
REMARK  Name = 
REMARK  32 active torsions:
REMARK  status: ('A' for Active; 'I' for Inactive)
REMARK    1  A    between atoms: C_1  and  C_2
REMARK    2  A    between atoms: C_3  and  O_87
REMARK    3  A    between atoms: C_5  and  O_86
REMARK    4  A    between atoms: C_6  and  O_85
REMARK    5  A    between atoms: C_8  and  O_11
REMARK    6  A    between atoms: O_11  and  C_12
REMARK    7  A    between atoms: C_12  and  C_13
REMARK    8  A    between atoms: C_14  and  O_84
REMARK    9  A    between atoms: C_16  and  O_72
REMARK   10  A    between atoms: C_18  and  O_58
REMARK   11  A    between atoms: C_19  and  O_22
REMARK   12  A    between atoms: O_22  and  C_23
REMARK   13  A    between atoms: C_24  and  C_49
REMARK   14  A    between atoms: C_28  and  O_35
REMARK   15  A    between atoms: C_30  and  O_34
REMARK   16  A    between atoms: O_35  and  C_36
REMARK   17  A    between atoms: C_38  and  O_48
REMARK   18  A    between atoms: C_40  and  O_47
REMARK   19  A    between atoms: C_41  and  O_46
REMARK   20  A    between atoms: C_43  and  C_45
REMARK   21  A    between atoms: C_51  and  O_56
REMARK   22  A    between atoms: C_52  and  O_55
REMARK   23  A    between atoms: O_56  and  C_57
REMARK   24  A    between atoms: O_58  and  C_59
REMARK   25  A    between atoms: C_61  and  O_71
REMARK   26  A    between atoms: C_63  and  O_70
REMARK   27  A    between atoms: C_64  and  O_69
REMARK   28  A    between atoms: C_66  and  C_68
REMARK   29  A    between atoms: O_72  and  C_73
REMARK   30  A    between atoms: C_73  and  C_75
REMARK   31  A    between atoms: C_76  and  C_77
REMARK   32  A    between atoms: C_80  and  O_83
REMARK                            x       y       z     vdW  Elec       q    Type
REMARK                         _______ _______ _______ _____ _____    ______ ____
ROOT
ATOM      1  C   UNL     1       6.792  -3.018  23.148  0.00  0.00    +0.180 C 
ATOM      2  O   UNL     1       6.389  -2.834  24.531  0.00  0.00    -0.331 OA
ATOM      3  C   UNL     1       6.252  -1.490  25.032  0.00  0.00    +0.341 C 
ATOM      4  C   UNL     1       7.505  -0.594  24.700  0.00  0.00    +0.233 C 
ATOM      5  C   UNL     1       7.620  -0.610  23.173  0.00  0.00    +0.242 C 
ATOM      6  C   UNL     1       7.925  -2.047  22.697  0.00  0.00    +0.189 C 
ENDROOT
BRANCH   6   7
ATOM      7  O   UNL     1       9.197  -2.505  23.185  0.00  0.00    -0.385 OA
ATOM      8  H   UNL     1       9.687  -1.738  23.547  0.00  0.00    +0.210 HD
ENDBRANCH   6   7
BRANCH   4   9
ATOM      9  O   UNL     1       8.714  -1.043  25.380  0.00  0.00    -0.335 OA
BRANCH   9  10
ATOM     10  C   UNL     1       9.416  -0.099  26.222  0.00  0.00    +0.282 C 
ATOM     11  O   UNL     1       8.580   0.282  27.328  0.00  0.00    -0.343 OA
ATOM     12  C   UNL     1       7.408   1.010  26.946  0.00  0.00    +0.149 C 
ATOM     13  C   UNL     1       6.696   1.441  28.229  0.00  0.00    +0.041 C 
ATOM     14  C   UNL     1       7.712   2.248  26.079  0.00  0.00    +0.174 C 
ATOM     15  C   UNL     1       8.701   1.919  24.955  0.00  0.00    +0.179 C 
ATOM     16  C   UNL     1       9.911   1.198  25.542  0.00  0.00    +0.201 C 
BRANCH  15  17
ATOM     17  O   UNL     1       9.133   3.123  24.305  0.00  0.00    -0.386 OA
ATOM     18  H   UNL     1       8.697   3.125  23.429  0.00  0.00    +0.210 HD
ENDBRANCH  15  17
BRANCH  16  19
ATOM     19  O   UNL     1      10.886   1.039  24.502  0.00  0.00    -0.384 OA
ATOM     20  H   UNL     1      11.666   1.570  24.739  0.00  0.00    +0.210 HD
ENDBRANCH  16  19
BRANCH  14  21
ATOM     21  O   UNL     1       6.490   2.787  25.563  0.00  0.00    -0.387 OA
ATOM     22  H   UNL     1       5.898   2.049  25.336  0.00  0.00    +0.210 HD
ENDBRANCH  14  21
ENDBRANCH   9  10
ENDBRANCH   4   9
BRANCH   5  23
ATOM     23  O   UNL     1       8.617   0.351  22.737  0.00  0.00    -0.453 OA
BRANCH  23  24
ATOM     24  C   UNL     1       8.396   0.911  21.519  0.00  0.00    +0.332 C 
ATOM     25  O   UNL     1       8.674   0.398  20.445  0.00  0.00    -0.246 OA
BRANCH  24  26
ATOM     26  C   UNL     1       7.726   2.206  21.703  0.00  0.00    +0.092 C 
ATOM     27  C   UNL     1       6.422   2.241  22.013  0.00  0.00    +0.015 C 
BRANCH  27  28
ATOM     28  C   UNL     1       5.738   3.518  22.182  0.00  0.00    -0.025 A 
ATOM     29  C   UNL     1       4.342   3.589  22.129  0.00  0.00    +0.011 A 
ATOM     30  C   UNL     1       3.694   4.798  22.382  0.00  0.00    +0.046 A 
ATOM     31  C   UNL     1       4.441   5.930  22.689  0.00  0.00    +0.117 A 
ATOM     32  C   UNL     1       5.832   5.882  22.716  0.00  0.00    +0.046 A 
ATOM     33  C   UNL     1       6.481   4.672  22.461  0.00  0.00    +0.011 A 
BRANCH  31  34
ATOM     34  O   UNL     1       3.767   7.080  22.973  0.00  0.00    -0.507 OA
ATOM     35  H   UNL     1       4.345   7.657  23.498  0.00  0.00    +0.292 HD
ENDBRANCH  31  34
ENDBRANCH  27  28
ENDBRANCH  24  26
ENDBRANCH  23  24
ENDBRANCH   5  23
BRANCH   3  36
ATOM     36  O   UNL     1       6.100  -1.463  26.465  0.00  0.00    -0.453 OA
BRANCH  36  37
ATOM     37  C   UNL     1       5.467  -2.442  27.230  0.00  0.00    +0.214 A 
ATOM     38  C   UNL     1       5.967  -3.846  27.426  0.00  0.00    +0.238 A 
ATOM     39  O   UNL     1       7.066  -4.180  27.004  0.00  0.00    -0.283 OA
ATOM     40  C   UNL     1       5.081  -4.788  28.194  0.00  0.00    +0.109 A 
ATOM     41  C   UNL     1       3.948  -4.269  28.800  0.00  0.00    +0.147 A 
ATOM     42  C   UNL     1       3.107  -5.046  29.617  0.00  0.00    +0.093 A 
ATOM     43  C   UNL     1       3.327  -6.410  29.778  0.00  0.00    +0.131 A 
ATOM     44  C   UNL     1       4.442  -6.963  29.137  0.00  0.00    +0.092 A 
ATOM     45  O   UNL     1       3.546  -2.978  28.628  0.00  0.00    -0.451 OA
ATOM     46  C   UNL     1       5.320  -6.154  28.376  0.00  0.00    +0.135 A 
ATOM     47  C   UNL     1       4.290  -2.153  27.819  0.00  0.00    +0.181 A 
BRANCH  47  48
ATOM     48  C   UNL     1       3.751  -0.798  27.837  0.00  0.00    +0.025 A 
ATOM     49  C   UNL     1       2.967  -0.471  28.942  0.00  0.00    +0.015 A 
ATOM     50  C   UNL     1       2.222   0.689  28.932  0.00  0.00    +0.050 A 
ATOM     51  C   UNL     1       2.427   1.623  27.920  0.00  0.00    +0.158 A 
ATOM     52  C   UNL     1       3.305   1.376  26.861  0.00  0.00    +0.162 A 
ATOM     53  C   UNL     1       3.896   0.107  26.782  0.00  0.00    +0.061 A 
BRANCH  52  54
ATOM     54  O   UNL     1       3.767   2.233  25.910  0.00  0.00    -0.491 OA
ATOM     55  C   UNL     1       2.896   2.982  25.079  0.00  0.00    +0.277 C 
ENDBRANCH  52  54
BRANCH  51  56
ATOM     56  O   UNL     1       1.811   2.818  28.135  0.00  0.00    -0.503 OA
ATOM     57  H   UNL     1       1.534   3.097  27.244  0.00  0.00    +0.292 HD
ENDBRANCH  51  56
ENDBRANCH  47  48
BRANCH  46  58
ATOM     58  O   UNL     1       6.386  -6.756  27.771  0.00  0.00    -0.506 OA
ATOM     59  H   UNL     1       6.542  -7.617  28.199  0.00  0.00    +0.292 HD
ENDBRANCH  46  58
BRANCH  43  60
ATOM     60  O   UNL     1       2.508  -7.272  30.481  0.00  0.00    -0.461 OA
BRANCH  60  61
ATOM     61  C   UNL     1       1.111  -7.270  30.124  0.00  0.00    +0.339 C 
ATOM     62  O   UNL     1       0.487  -8.509  30.480  0.00  0.00    -0.334 OA
ATOM     63  C   UNL     1       1.025  -9.611  29.735  0.00  0.00    +0.150 C 
ATOM     64  C   UNL     1       0.443 -10.890  30.323  0.00  0.00    +0.041 C 
ATOM     65  C   UNL     1       0.691  -9.465  28.244  0.00  0.00    +0.174 C 
ATOM     66  C   UNL     1       1.232  -8.127  27.709  0.00  0.00    +0.180 C 
ATOM     67  C   UNL     1       0.822  -6.966  28.627  0.00  0.00    +0.214 C 
BRANCH  67  68
ATOM     68  O   UNL     1       1.423  -5.744  28.191  0.00  0.00    -0.383 OA
ATOM     69  H   UNL     1       2.074  -5.954  27.501  0.00  0.00    +0.210 HD
ENDBRANCH  67  68
BRANCH  66  70
ATOM     70  O   UNL     1       0.739  -7.915  26.372  0.00  0.00    -0.386 OA
ATOM     71  H   UNL     1      -0.124  -8.353  26.283  0.00  0.00    +0.210 HD
ENDBRANCH  66  70
BRANCH  65  72
ATOM     72  O   UNL     1       1.206 -10.570  27.498  0.00  0.00    -0.387 OA
ATOM     73  H   UNL     1       1.564 -10.237  26.656  0.00  0.00    +0.210 HD
ENDBRANCH  65  72
ENDBRANCH  60  61
ENDBRANCH  43  60
ENDBRANCH  36  37
ENDBRANCH   3  36
BRANCH   1  74
ATOM     74  C   UNL     1       5.638  -2.971  22.100  0.00  0.00    +0.197 C 
BRANCH  74  75
ATOM     75  O   UNL     1       5.188  -4.223  21.600  0.00  0.00    -0.346 OA
BRANCH  75  79
ATOM     76  C   UNL     1       1.166  -4.830  22.947  0.00  0.00    +0.041 C 
ATOM     77  C   UNL     1       2.379  -4.646  23.852  0.00  0.00    +0.149 C 
ATOM     78  O   UNL     1       3.487  -4.125  23.112  0.00  0.00    -0.343 OA
ATOM     79  C   UNL     1       4.249  -5.042  22.296  0.00  0.00    +0.282 C 
ATOM     80  C   UNL     1       4.789  -6.189  23.191  0.00  0.00    +0.201 C 
ATOM     81  C   UNL     1       3.579  -6.892  23.843  0.00  0.00    +0.179 C 
ATOM     82  C   UNL     1       2.729  -5.905  24.655  0.00  0.00    +0.174 C 
BRANCH  80  83
ATOM     83  O   UNL     1       5.668  -5.700  24.227  0.00  0.00    -0.384 OA
ATOM     84  H   UNL     1       6.556  -6.036  23.997  0.00  0.00    +0.210 HD
ENDBRANCH  80  83
BRANCH  81  85
ATOM     85  O   UNL     1       4.017  -7.946  24.719  0.00  0.00    -0.386 OA
ATOM     86  H   UNL     1       3.216  -8.206  25.223  0.00  0.00    +0.210 HD
ENDBRANCH  81  85
BRANCH  82  87
ATOM     87  O   UNL     1       3.474  -5.548  25.838  0.00  0.00    -0.387 OA
ATOM     88  H   UNL     1       3.445  -4.566  25.891  0.00  0.00    +0.210 HD
ENDBRANCH  82  87
ENDBRANCH  75  79
ENDBRANCH  74  75
ENDBRANCH   1  74
TORSDOF 28
ENDMDL
MODEL 7
REMARK VINA RESULT:      -4.4      2.380      7.532
REMARK  Name = 
REMARK  32 active torsions:
REMARK  status: ('A' for Active; 'I' for Inactive)
REMARK    1  A    between atoms: C_1  and  C_2
REMARK    2  A    between atoms: C_3  and  O_87
REMARK    3  A    between atoms: C_5  and  O_86
REMARK    4  A    between atoms: C_6  and  O_85
REMARK    5  A    between atoms: C_8  and  O_11
REMARK    6  A    between atoms: O_11  and  C_12
REMARK    7  A    between atoms: C_12  and  C_13
REMARK    8  A    between atoms: C_14  and  O_84
REMARK    9  A    between atoms: C_16  and  O_72
REMARK   10  A    between atoms: C_18  and  O_58
REMARK   11  A    between atoms: C_19  and  O_22
REMARK   12  A    between atoms: O_22  and  C_23
REMARK   13  A    between atoms: C_24  and  C_49
REMARK   14  A    between atoms: C_28  and  O_35
REMARK   15  A    between atoms: C_30  and  O_34
REMARK   16  A    between atoms: O_35  and  C_36
REMARK   17  A    between atoms: C_38  and  O_48
REMARK   18  A    between atoms: C_40  and  O_47
REMARK   19  A    between atoms: C_41  and  O_46
REMARK   20  A    between atoms: C_43  and  C_45
REMARK   21  A    between atoms: C_51  and  O_56
REMARK   22  A    between atoms: C_52  and  O_55
REMARK   23  A    between atoms: O_56  and  C_57
REMARK   24  A    between atoms: O_58  and  C_59
REMARK   25  A    between atoms: C_61  and  O_71
REMARK   26  A    between atoms: C_63  and  O_70
REMARK   27  A    between atoms: C_64  and  O_69
REMARK   28  A    between atoms: C_66  and  C_68
REMARK   29  A    between atoms: O_72  and  C_73
REMARK   30  A    between atoms: C_73  and  C_75
REMARK   31  A    between atoms: C_76  and  C_77
REMARK   32  A    between atoms: C_80  and  O_83
REMARK                            x       y       z     vdW  Elec       q    Type
REMARK                         _______ _______ _______ _____ _____    ______ ____
ROOT
ATOM      1  C   UNL     1       8.207   2.429  24.817  0.00  0.00    +0.180 C 
ATOM      2  O   UNL     1       7.373   2.225  25.987  0.00  0.00    -0.331 OA
ATOM      3  C   UNL     1       6.725   0.949  26.153  0.00  0.00    +0.341 C 
ATOM      4  C   UNL     1       5.967   0.486  24.852  0.00  0.00    +0.233 C 
ATOM      5  C   UNL     1       7.040   0.428  23.760  0.00  0.00    +0.242 C 
ATOM      6  C   UNL     1       7.592   1.848  23.508  0.00  0.00    +0.189 C 
ENDROOT
BRANCH   6   7
ATOM      7  O   UNL     1       6.574   2.727  23.003  0.00  0.00    -0.385 OA
ATOM      8  H   UNL     1       6.714   2.847  22.041  0.00  0.00    +0.210 HD
ENDBRANCH   6   7
BRANCH   4   9
ATOM      9  O   UNL     1       4.842   1.351  24.518  0.00  0.00    -0.335 OA
BRANCH   9  10
ATOM     10  C   UNL     1       4.403   2.313  25.505  0.00  0.00    +0.282 C 
ATOM     11  O   UNL     1       3.062   2.006  25.921  0.00  0.00    -0.343 OA
ATOM     12  C   UNL     1       2.085   2.151  24.884  0.00  0.00    +0.149 C 
ATOM     13  C   UNL     1       0.711   1.908  25.510  0.00  0.00    +0.041 C 
ATOM     14  C   UNL     1       2.112   3.535  24.206  0.00  0.00    +0.174 C 
ATOM     15  C   UNL     1       3.541   3.963  23.854  0.00  0.00    +0.179 C 
ATOM     16  C   UNL     1       4.433   3.800  25.081  0.00  0.00    +0.201 C 
BRANCH  15  17
ATOM     17  O   UNL     1       3.559   5.334  23.431  0.00  0.00    -0.386 OA
ATOM     18  H   UNL     1       3.746   5.315  22.472  0.00  0.00    +0.210 HD
ENDBRANCH  15  17
BRANCH  16  19
ATOM     19  O   UNL     1       5.722   4.348  24.774  0.00  0.00    -0.384 OA
ATOM     20  H   UNL     1       6.237   4.383  25.600  0.00  0.00    +0.210 HD
ENDBRANCH  16  19
BRANCH  14  21
ATOM     21  O   UNL     1       1.267   3.523  23.050  0.00  0.00    -0.387 OA
ATOM     22  H   UNL     1       1.768   3.146  22.306  0.00  0.00    +0.210 HD
ENDBRANCH  14  21
ENDBRANCH   9  10
ENDBRANCH   4   9
BRANCH   5  23
ATOM     23  O   UNL     1       6.499  -0.187  22.561  0.00  0.00    -0.453 OA
BRANCH  23  24
ATOM     24  C   UNL     1       7.299  -1.110  21.966  0.00  0.00    +0.332 C 
ATOM     25  O   UNL     1       8.245  -0.859  21.235  0.00  0.00    -0.246 OA
BRANCH  24  26
ATOM     26  C   UNL     1       6.871  -2.453  22.385  0.00  0.00    +0.092 C 
ATOM     27  C   UNL     1       5.606  -2.652  22.784  0.00  0.00    +0.015 C 
BRANCH  27  28
ATOM     28  C   UNL     1       5.170  -3.974  23.220  0.00  0.00    -0.025 A 
ATOM     29  C   UNL     1       4.142  -4.109  24.159  0.00  0.00    +0.011 A 
ATOM     30  C   UNL     1       3.669  -5.377  24.500  0.00  0.00    +0.046 A 
ATOM     31  C   UNL     1       4.224  -6.503  23.902  0.00  0.00    +0.117 A 
ATOM     32  C   UNL     1       5.267  -6.386  22.988  0.00  0.00    +0.046 A 
ATOM     33  C   UNL     1       5.741  -5.118  22.648  0.00  0.00    +0.011 A 
BRANCH  31  34
ATOM     34  O   UNL     1       3.704  -7.720  24.231  0.00  0.00    -0.507 OA
ATOM     35  H   UNL     1       4.347  -8.192  24.785  0.00  0.00    +0.292 HD
ENDBRANCH  31  34
ENDBRANCH  27  28
ENDBRANCH  24  26
ENDBRANCH  23  24
ENDBRANCH   5  23
BRANCH   3  36
ATOM     36  O   UNL     1       5.741   0.978  27.207  0.00  0.00    -0.453 OA
BRANCH  36  37
ATOM     37  C   UNL     1       5.208  -0.140  27.847  0.00  0.00    +0.214 A 
ATOM     38  C   UNL     1       5.606  -1.565  27.577  0.00  0.00    +0.238 A 
ATOM     39  O   UNL     1       6.546  -1.817  26.835  0.00  0.00    -0.283 OA
ATOM     40  C   UNL     1       4.832  -2.639  28.288  0.00  0.00    +0.109 A 
ATOM     41  C   UNL     1       3.917  -2.251  29.256  0.00  0.00    +0.147 A 
ATOM     42  C   UNL     1       3.213  -3.181  30.042  0.00  0.00    +0.093 A 
ATOM     43  C   UNL     1       3.336  -4.549  29.816  0.00  0.00    +0.131 A 
ATOM     44  C   UNL     1       4.220  -4.958  28.812  0.00  0.00    +0.092 A 
ATOM     45  O   UNL     1       3.609  -0.947  29.498  0.00  0.00    -0.451 OA
ATOM     46  C   UNL     1       4.977  -4.014  28.077  0.00  0.00    +0.135 A 
ATOM     47  C   UNL     1       4.225   0.030  28.753  0.00  0.00    +0.181 A 
BRANCH  47  48
ATOM     48  C   UNL     1       3.833   1.354  29.222  0.00  0.00    +0.025 A 
ATOM     49  C   UNL     1       2.501   1.491  29.612  0.00  0.00    +0.015 A 
ATOM     50  C   UNL     1       1.981   2.747  29.837  0.00  0.00    +0.050 A 
ATOM     51  C   UNL     1       2.838   3.843  29.884  0.00  0.00    +0.158 A 
ATOM     52  C   UNL     1       4.204   3.717  29.620  0.00  0.00    +0.162 A 
ATOM     53  C   UNL     1       4.678   2.468  29.194  0.00  0.00    +0.061 A 
BRANCH  52  54
ATOM     54  O   UNL     1       5.204   4.622  29.808  0.00  0.00    -0.491 OA
ATOM     55  C   UNL     1       6.566   4.239  29.885  0.00  0.00    +0.277 C 
ENDBRANCH  52  54
BRANCH  51  56
ATOM     56  O   UNL     1       2.253   4.986  30.336  0.00  0.00    -0.503 OA
ATOM     57  H   UNL     1       2.157   4.833  31.293  0.00  0.00    +0.292 HD
ENDBRANCH  51  56
ENDBRANCH  47  48
BRANCH  46  58
ATOM     58  O   UNL     1       5.818  -4.479  27.108  0.00  0.00    -0.506 OA
ATOM     59  H   UNL     1       6.368  -3.741  26.791  0.00  0.00    +0.292 HD
ENDBRANCH  46  58
BRANCH  43  60
ATOM     60  O   UNL     1       2.618  -5.532  30.469  0.00  0.00    -0.461 OA
BRANCH  60  61
ATOM     61  C   UNL     1       1.227  -5.662  30.112  0.00  0.00    +0.339 C 
ATOM     62  O   UNL     1       0.796  -7.024  30.212  0.00  0.00    -0.334 OA
ATOM     63  C   UNL     1       1.468  -7.868  29.266  0.00  0.00    +0.150 C 
ATOM     64  C   UNL     1       1.089  -9.307  29.586  0.00  0.00    +0.041 C 
ATOM     65  C   UNL     1       1.082  -7.481  27.833  0.00  0.00    +0.174 C 
ATOM     66  C   UNL     1       1.413  -5.999  27.576  0.00  0.00    +0.180 C 
ATOM     67  C   UNL     1       0.863  -5.114  28.703  0.00  0.00    +0.214 C 
BRANCH  67  68
ATOM     68  O   UNL     1       1.272  -3.756  28.522  0.00  0.00    -0.383 OA
ATOM     69  H   UNL     1       2.190  -3.671  28.831  0.00  0.00    +0.210 HD
ENDBRANCH  67  68
BRANCH  66  70
ATOM     70  O   UNL     1       0.863  -5.602  26.305  0.00  0.00    -0.386 OA
ATOM     71  H   UNL     1       1.192  -4.713  26.085  0.00  0.00    +0.210 HD
ENDBRANCH  66  70
BRANCH  65  72
ATOM     72  O   UNL     1       1.732  -8.331  26.884  0.00  0.00    -0.387 OA
ATOM     73  H   UNL     1       2.264  -7.778  26.285  0.00  0.00    +0.210 HD
ENDBRANCH  65  72
ENDBRANCH  60  61
ENDBRANCH  43  60
ENDBRANCH  36  37
ENDBRANCH   3  36
BRANCH   1  74
ATOM     74  C   UNL     1       9.681   1.935  24.947  0.00  0.00    +0.197 C 
BRANCH  74  75
ATOM     75  O   UNL     1      10.569   2.314  23.905  0.00  0.00    -0.346 OA
BRANCH  75  79
ATOM     76  C   UNL     1      12.920   5.295  21.919  0.00  0.00    +0.041 C 
ATOM     77  C   UNL     1      12.482   5.348  23.379  0.00  0.00    +0.149 C 
ATOM     78  O   UNL     1      12.024   4.064  23.815  0.00  0.00    -0.343 OA
ATOM     79  C   UNL     1      10.689   3.658  23.441  0.00  0.00    +0.282 C 
ATOM     80  C   UNL     1       9.675   4.713  23.959  0.00  0.00    +0.201 C 
ATOM     81  C   UNL     1      10.043   6.074  23.330  0.00  0.00    +0.179 C 
ATOM     82  C   UNL     1      11.484   6.475  23.669  0.00  0.00    +0.174 C 
BRANCH  80  83
ATOM     83  O   UNL     1       9.703   4.832  25.397  0.00  0.00    -0.384 OA
ATOM     84  H   UNL     1      10.650   4.841  25.640  0.00  0.00    +0.210 HD
ENDBRANCH  80  83
BRANCH  81  85
ATOM     85  O   UNL     1       9.158   7.106  23.802  0.00  0.00    -0.386 OA
ATOM     86  H   UNL     1       8.353   7.023  23.248  0.00  0.00    +0.210 HD
ENDBRANCH  81  85
BRANCH  82  87
ATOM     87  O   UNL     1      11.529   6.829  25.068  0.00  0.00    -0.387 OA
ATOM     88  H   UNL     1      12.330   6.390  25.433  0.00  0.00    +0.210 HD
ENDBRANCH  82  87
ENDBRANCH  75  79
ENDBRANCH  74  75
ENDBRANCH   1  74
TORSDOF 28
ENDMDL
MODEL 8
REMARK VINA RESULT:      -3.8      2.737      9.562
REMARK  Name = 
REMARK  32 active torsions:
REMARK  status: ('A' for Active; 'I' for Inactive)
REMARK    1  A    between atoms: C_1  and  C_2
REMARK    2  A    between atoms: C_3  and  O_87
REMARK    3  A    between atoms: C_5  and  O_86
REMARK    4  A    between atoms: C_6  and  O_85
REMARK    5  A    between atoms: C_8  and  O_11
REMARK    6  A    between atoms: O_11  and  C_12
REMARK    7  A    between atoms: C_12  and  C_13
REMARK    8  A    between atoms: C_14  and  O_84
REMARK    9  A    between atoms: C_16  and  O_72
REMARK   10  A    between atoms: C_18  and  O_58
REMARK   11  A    between atoms: C_19  and  O_22
REMARK   12  A    between atoms: O_22  and  C_23
REMARK   13  A    between atoms: C_24  and  C_49
REMARK   14  A    between atoms: C_28  and  O_35
REMARK   15  A    between atoms: C_30  and  O_34
REMARK   16  A    between atoms: O_35  and  C_36
REMARK   17  A    between atoms: C_38  and  O_48
REMARK   18  A    between atoms: C_40  and  O_47
REMARK   19  A    between atoms: C_41  and  O_46
REMARK   20  A    between atoms: C_43  and  C_45
REMARK   21  A    between atoms: C_51  and  O_56
REMARK   22  A    between atoms: C_52  and  O_55
REMARK   23  A    between atoms: O_56  and  C_57
REMARK   24  A    between atoms: O_58  and  C_59
REMARK   25  A    between atoms: C_61  and  O_71
REMARK   26  A    between atoms: C_63  and  O_70
REMARK   27  A    between atoms: C_64  and  O_69
REMARK   28  A    between atoms: C_66  and  C_68
REMARK   29  A    between atoms: O_72  and  C_73
REMARK   30  A    between atoms: C_73  and  C_75
REMARK   31  A    between atoms: C_76  and  C_77
REMARK   32  A    between atoms: C_80  and  O_83
REMARK                            x       y       z     vdW  Elec       q    Type
REMARK                         _______ _______ _______ _____ _____    ______ ____
ROOT
ATOM      1  C   UNL     1       6.543   1.803  23.646  0.00  0.00    +0.180 C 
ATOM      2  O   UNL     1       5.951   0.781  24.490  0.00  0.00    -0.331 OA
ATOM      3  C   UNL     1       5.019   1.190  25.510  0.00  0.00    +0.341 C 
ATOM      4  C   UNL     1       5.571   2.376  26.388  0.00  0.00    +0.233 C 
ATOM      5  C   UNL     1       5.852   3.513  25.401  0.00  0.00    +0.242 C 
ATOM      6  C   UNL     1       6.970   3.082  24.427  0.00  0.00    +0.189 C 
ENDROOT
BRANCH   6   7
ATOM      7  O   UNL     1       8.210   2.855  25.117  0.00  0.00    -0.385 OA
ATOM      8  H   UNL     1       8.014   2.658  26.056  0.00  0.00    +0.210 HD
ENDBRANCH   6   7
BRANCH   4   9
ATOM      9  O   UNL     1       6.732   1.994  27.182  0.00  0.00    -0.335 OA
BRANCH   9  10
ATOM     10  C   UNL     1       6.506   1.357  28.461  0.00  0.00    +0.282 C 
ATOM     11  O   UNL     1       5.522   2.095  29.205  0.00  0.00    -0.343 OA
ATOM     12  C   UNL     1       5.944   3.412  29.579  0.00  0.00    +0.149 C 
ATOM     13  C   UNL     1       4.847   4.014  30.457  0.00  0.00    +0.041 C 
ATOM     14  C   UNL     1       7.287   3.432  30.336  0.00  0.00    +0.174 C 
ATOM     15  C   UNL     1       8.337   2.556  29.645  0.00  0.00    +0.179 C 
ATOM     16  C   UNL     1       7.743   1.177  29.371  0.00  0.00    +0.201 C 
BRANCH  15  17
ATOM     17  O   UNL     1       9.496   2.418  30.480  0.00  0.00    -0.386 OA
ATOM     18  H   UNL     1       9.578   1.461  30.667  0.00  0.00    +0.210 HD
ENDBRANCH  15  17
BRANCH  16  19
ATOM     19  O   UNL     1       8.786   0.331  28.867  0.00  0.00    -0.384 OA
ATOM     20  H   UNL     1       9.601   0.860  28.813  0.00  0.00    +0.210 HD
ENDBRANCH  16  19
BRANCH  14  21
ATOM     21  O   UNL     1       7.740   4.783  30.478  0.00  0.00    -0.387 OA
ATOM     22  H   UNL     1       7.267   5.336  29.832  0.00  0.00    +0.210 HD
ENDBRANCH  14  21
ENDBRANCH   9  10
ENDBRANCH   4   9
BRANCH   5  23
ATOM     23  O   UNL     1       6.170   4.733  26.121  0.00  0.00    -0.453 OA
BRANCH  23  24
ATOM     24  C   UNL     1       6.266   5.854  25.360  0.00  0.00    +0.332 C 
ATOM     25  O   UNL     1       5.408   6.719  25.265  0.00  0.00    -0.246 OA
BRANCH  24  26
ATOM     26  C   UNL     1       7.585   5.879  24.710  0.00  0.00    +0.092 C 
ATOM     27  C   UNL     1       8.694   5.925  25.462  0.00  0.00    +0.015 C 
BRANCH  27  28
ATOM     28  C   UNL     1      10.010   5.968  24.834  0.00  0.00    -0.025 A 
ATOM     29  C   UNL     1      11.024   6.773  25.364  0.00  0.00    +0.011 A 
ATOM     30  C   UNL     1      12.305   6.737  24.810  0.00  0.00    +0.046 A 
ATOM     31  C   UNL     1      12.567   5.898  23.733  0.00  0.00    +0.117 A 
ATOM     32  C   UNL     1      11.561   5.115  23.176  0.00  0.00    +0.046 A 
ATOM     33  C   UNL     1      10.279   5.151  23.729  0.00  0.00    +0.011 A 
BRANCH  31  34
ATOM     34  O   UNL     1      13.842   5.861  23.251  0.00  0.00    -0.507 OA
ATOM     35  H   UNL     1      14.243   5.013  23.500  0.00  0.00    +0.292 HD
ENDBRANCH  31  34
ENDBRANCH  27  28
ENDBRANCH  24  26
ENDBRANCH  23  24
ENDBRANCH   5  23
BRANCH   3  36
ATOM     36  O   UNL     1       4.713   0.117  26.422  0.00  0.00    -0.453 OA
BRANCH  36  37
ATOM     37  C   UNL     1       3.948  -1.009  26.119  0.00  0.00    +0.214 A 
ATOM     38  C   UNL     1       4.417  -2.182  25.303  0.00  0.00    +0.238 A 
ATOM     39  O   UNL     1       5.585  -2.265  24.950  0.00  0.00    -0.283 OA
ATOM     40  C   UNL     1       3.404  -3.247  24.989  0.00  0.00    +0.109 A 
ATOM     41  C   UNL     1       2.160  -3.163  25.596  0.00  0.00    +0.147 A 
ATOM     42  C   UNL     1       1.178  -4.158  25.442  0.00  0.00    +0.093 A 
ATOM     43  C   UNL     1       1.381  -5.238  24.588  0.00  0.00    +0.131 A 
ATOM     44  C   UNL     1       2.614  -5.317  23.931  0.00  0.00    +0.092 A 
ATOM     45  O   UNL     1       1.784  -2.100  26.360  0.00  0.00    -0.451 OA
ATOM     46  C   UNL     1       3.621  -4.346  24.151  0.00  0.00    +0.135 A 
ATOM     47  C   UNL     1       2.668  -1.063  26.538  0.00  0.00    +0.181 A 
BRANCH  47  48
ATOM     48  C   UNL     1       2.117  -0.072  27.454  0.00  0.00    +0.025 A 
ATOM     49  C   UNL     1       2.247  -0.361  28.812  0.00  0.00    +0.015 A 
ATOM     50  C   UNL     1       1.551   0.385  29.740  0.00  0.00    +0.050 A 
ATOM     51  C   UNL     1       0.901   1.547  29.333  0.00  0.00    +0.158 A 
ATOM     52  C   UNL     1       0.860   1.931  27.989  0.00  0.00    +0.162 A 
ATOM     53  C   UNL     1       1.398   1.052  27.038  0.00  0.00    +0.061 A 
BRANCH  52  54
ATOM     54  O   UNL     1       0.448   3.109  27.444  0.00  0.00    -0.491 OA
ATOM     55  C   UNL     1       1.133   4.328  27.676  0.00  0.00    +0.277 C 
ENDBRANCH  52  54
BRANCH  51  56
ATOM     56  O   UNL     1       0.446   2.317  30.358  0.00  0.00    -0.503 OA
ATOM     57  H   UNL     1       1.105   3.033  30.417  0.00  0.00    +0.292 HD
ENDBRANCH  51  56
ENDBRANCH  47  48
BRANCH  46  58
ATOM     58  O   UNL     1       4.799  -4.478  23.476  0.00  0.00    -0.506 OA
ATOM     59  H   UNL     1       4.638  -4.309  22.530  0.00  0.00    +0.292 HD
ENDBRANCH  46  58
BRANCH  43  60
ATOM     60  O   UNL     1       0.445  -6.213  24.300  0.00  0.00    -0.461 OA
BRANCH  60  61
ATOM     61  C   UNL     1       0.544  -7.444  25.043  0.00  0.00    +0.339 C 
ATOM     62  O   UNL     1       0.454  -7.202  26.452  0.00  0.00    -0.334 OA
ATOM     63  C   UNL     1       1.562  -6.427  26.932  0.00  0.00    +0.150 C 
ATOM     64  C   UNL     1       1.272  -6.062  28.382  0.00  0.00    +0.041 C 
ATOM     65  C   UNL     1       2.870  -7.216  26.793  0.00  0.00    +0.174 C 
ATOM     66  C   UNL     1       3.087  -7.629  25.326  0.00  0.00    +0.180 C 
ATOM     67  C   UNL     1       1.822  -8.280  24.750  0.00  0.00    +0.214 C 
BRANCH  67  68
ATOM     68  O   UNL     1       1.987  -8.555  23.356  0.00  0.00    -0.383 OA
ATOM     69  H   UNL     1       1.109  -8.717  22.972  0.00  0.00    +0.210 HD
ENDBRANCH  67  68
BRANCH  66  70
ATOM     70  O   UNL     1       4.205  -8.535  25.246  0.00  0.00    -0.386 OA
ATOM     71  H   UNL     1       4.354  -8.927  26.123  0.00  0.00    +0.210 HD
ENDBRANCH  66  70
BRANCH  65  72
ATOM     72  O   UNL     1       3.976  -6.458  27.289  0.00  0.00    -0.387 OA
ATOM     73  H   UNL     1       3.643  -5.807  27.932  0.00  0.00    +0.210 HD
ENDBRANCH  65  72
ENDBRANCH  60  61
ENDBRANCH  43  60
ENDBRANCH  36  37
ENDBRANCH   3  36
BRANCH   1  74
ATOM     74  C   UNL     1       5.698   2.224  22.405  0.00  0.00    +0.197 C 
BRANCH  74  75
ATOM     75  O   UNL     1       4.406   2.753  22.671  0.00  0.00    -0.346 OA
BRANCH  75  79
ATOM     76  C   UNL     1       4.015   6.974  22.052  0.00  0.00    +0.041 C 
ATOM     77  C   UNL     1       2.881   6.033  22.444  0.00  0.00    +0.149 C 
ATOM     78  O   UNL     1       3.399   4.782  22.906  0.00  0.00    -0.343 OA
ATOM     79  C   UNL     1       3.838   3.824  21.918  0.00  0.00    +0.282 C 
ATOM     80  C   UNL     1       2.660   3.510  20.958  0.00  0.00    +0.201 C 
ATOM     81  C   UNL     1       2.221   4.835  20.297  0.00  0.00    +0.179 C 
ATOM     82  C   UNL     1       1.819   5.878  21.348  0.00  0.00    +0.174 C 
BRANCH  80  83
ATOM     83  O   UNL     1       1.534   2.931  21.652  0.00  0.00    -0.384 OA
ATOM     84  H   UNL     1       0.762   3.085  21.073  0.00  0.00    +0.210 HD
ENDBRANCH  80  83
BRANCH  81  85
ATOM     85  O   UNL     1       1.102   4.616  19.419  0.00  0.00    -0.386 OA
ATOM     86  H   UNL     1       0.329   4.516  20.014  0.00  0.00    +0.210 HD
ENDBRANCH  81  85
BRANCH  82  87
ATOM     87  O   UNL     1       0.565   5.464  21.927  0.00  0.00    -0.387 OA
ATOM     88  H   UNL     1      -0.006   5.192  21.173  0.00  0.00    +0.210 HD
ENDBRANCH  82  87
ENDBRANCH  75  79
ENDBRANCH  74  75
ENDBRANCH   1  74
TORSDOF 28
ENDMDL
