MODEL 1
REMARK VINA RESULT:      -7.5      0.000      0.000
REMARK  Name = 
REMARK  15 active torsions:
REMARK  status: ('A' for Active; 'I' for Inactive)
REMARK    1  A    between atoms: C_1  and  C_2
REMARK    2  A    between atoms: C_3  and  O_46
REMARK    3  A    between atoms: C_5  and  O_45
REMARK    4  A    between atoms: C_7  and  O_44
REMARK    5  A    between atoms: C_8  and  O_11
REMARK    6  A    between atoms: O_11  and  C_12
REMARK    7  A    between atoms: C_14  and  O_43
REMARK    8  A    between atoms: C_19  and  C_35
REMARK    9  A    between atoms: C_20  and  O_23
REMARK   10  A    between atoms: O_23  and  C_24
REMARK   11  A    between atoms: C_26  and  O_34
REMARK   12  A    between atoms: C_27  and  O_33
REMARK   13  A    between atoms: C_28  and  O_32
REMARK   14  A    between atoms: C_37  and  O_42
REMARK   15  A    between atoms: C_38  and  O_41
REMARK                            x       y       z     vdW  Elec       q    Type
REMARK                         _______ _______ _______ _____ _____    ______ ____
ROOT
ATOM      1  C   UNL     1       6.773  -4.183  24.504  0.00  0.00    +0.131 A 
ATOM      2  C   UNL     1       6.035  -2.993  24.627  0.00  0.00    +0.093 A 
ATOM      3  C   UNL     1       6.672  -1.748  24.514  0.00  0.00    +0.147 A 
ATOM      4  O   UNL     1       5.940  -0.592  24.677  0.00  0.00    -0.451 OA
ATOM      5  C   UNL     1       6.517   0.650  24.320  0.00  0.00    +0.181 A 
ATOM      6  C   UNL     1       7.855   0.796  24.110  0.00  0.00    +0.214 A 
ATOM      7  C   UNL     1       8.675  -0.412  24.434  0.00  0.00    +0.238 A 
ATOM      8  O   UNL     1       9.803  -0.362  24.911  0.00  0.00    -0.283 OA
ATOM      9  C   UNL     1       8.036  -1.710  24.291  0.00  0.00    +0.109 A 
ATOM     10  C   UNL     1       8.768  -2.884  24.091  0.00  0.00    +0.135 A 
ATOM     11  C   UNL     1       8.133  -4.115  24.196  0.00  0.00    +0.092 A 
ENDROOT
BRANCH   5  12
ATOM     12  C   UNL     1       5.495   1.763  24.256  0.00  0.00    +0.025 A 
ATOM     13  C   UNL     1       4.683   2.128  25.348  0.00  0.00    +0.015 A 
ATOM     14  C   UNL     1       3.718   3.142  25.275  0.00  0.00    +0.050 A 
ATOM     15  C   UNL     1       3.539   3.813  24.087  0.00  0.00    +0.158 A 
ATOM     16  C   UNL     1       4.300   3.475  22.976  0.00  0.00    +0.159 A 
ATOM     17  C   UNL     1       5.267   2.465  23.050  0.00  0.00    +0.060 A 
BRANCH  15  18
ATOM     18  O   UNL     1       2.600   4.800  24.016  0.00  0.00    -0.503 OA
ATOM     19  H   UNL     1       2.091   4.717  24.846  0.00  0.00    +0.292 HD
ENDBRANCH  15  18
BRANCH  16  20
ATOM     20  O   UNL     1       4.048   4.161  21.817  0.00  0.00    -0.503 OA
ATOM     21  H   UNL     1       3.290   3.746  21.374  0.00  0.00    +0.292 HD
ENDBRANCH  16  20
ENDBRANCH   5  12
BRANCH  10  22
ATOM     22  O   UNL     1      10.091  -2.839  23.764  0.00  0.00    -0.506 OA
ATOM     23  H   UNL     1      10.608  -2.522  24.522  0.00  0.00    +0.292 HD
ENDBRANCH  10  22
BRANCH   1  24
ATOM     24  O   UNL     1       6.323  -5.459  24.662  0.00  0.00    -0.461 OA
BRANCH  24  28
ATOM     25  C   UNL     1       2.857  -6.545  26.967  0.00  0.00    +0.041 C 
ATOM     26  C   UNL     1       3.367  -7.332  25.762  0.00  0.00    +0.150 C 
ATOM     27  O   UNL     1       4.736  -6.991  25.498  0.00  0.00    -0.334 OA
ATOM     28  C   UNL     1       4.941  -5.684  24.949  0.00  0.00    +0.339 C 
ATOM     29  C   UNL     1       4.194  -5.584  23.599  0.00  0.00    +0.214 C 
ATOM     30  C   UNL     1       2.696  -5.795  23.862  0.00  0.00    +0.180 C 
ATOM     31  C   UNL     1       2.463  -7.164  24.525  0.00  0.00    +0.174 C 
BRANCH  29  32
ATOM     32  O   UNL     1       4.680  -6.616  22.706  0.00  0.00    -0.383 OA
ATOM     33  H   UNL     1       5.173  -6.156  21.997  0.00  0.00    +0.210 HD
ENDBRANCH  29  32
BRANCH  30  34
ATOM     34  O   UNL     1       1.936  -5.644  22.661  0.00  0.00    -0.386 OA
ATOM     35  H   UNL     1       2.528  -5.288  21.972  0.00  0.00    +0.210 HD
ENDBRANCH  30  34
BRANCH  31  36
ATOM     36  O   UNL     1       2.721  -8.221  23.589  0.00  0.00    -0.387 OA
ATOM     37  H   UNL     1       2.641  -9.067  24.085  0.00  0.00    +0.210 HD
ENDBRANCH  31  36
ENDBRANCH  24  28
ENDBRANCH   1  24
BRANCH   6  38
ATOM     38  O   UNL     1       8.439   1.972  23.629  0.00  0.00    -0.453 OA
BRANCH  38  39
ATOM     39  C   UNL     1       9.180   2.795  24.548  0.00  0.00    +0.339 C 
ATOM     40  O   UNL     1       8.327   3.368  25.535  0.00  0.00    -0.337 OA
ATOM     41  C   UNL     1       7.599   4.525  25.125  0.00  0.00    +0.198 C 
ATOM     42  C   UNL     1       8.521   5.637  24.640  0.00  0.00    +0.171 C 
ATOM     43  C   UNL     1       9.329   5.131  23.453  0.00  0.00    +0.180 C 
ATOM     44  C   UNL     1      10.059   3.835  23.806  0.00  0.00    +0.214 C 
BRANCH  42  45
ATOM     45  O   UNL     1       9.414   6.029  25.693  0.00  0.00    -0.387 OA
ATOM     46  H   UNL     1       8.843   6.330  26.426  0.00  0.00    +0.210 HD
ENDBRANCH  42  45
BRANCH  43  47
ATOM     47  O   UNL     1      10.270   6.163  23.090  0.00  0.00    -0.386 OA
ATOM     48  H   UNL     1      11.021   6.107  23.712  0.00  0.00    +0.210 HD
ENDBRANCH  43  47
BRANCH  44  49
ATOM     49  O   UNL     1      10.675   3.302  22.621  0.00  0.00    -0.383 OA
ATOM     50  H   UNL     1      10.083   2.607  22.279  0.00  0.00    +0.210 HD
ENDBRANCH  44  49
ENDBRANCH  38  39
ENDBRANCH   6  38
TORSDOF 14
ENDMDL
MODEL 2
REMARK VINA RESULT:      -7.4      2.605      3.798
REMARK  Name = 
REMARK  15 active torsions:
REMARK  status: ('A' for Active; 'I' for Inactive)
REMARK    1  A    between atoms: C_1  and  C_2
REMARK    2  A    between atoms: C_3  and  O_46
REMARK    3  A    between atoms: C_5  and  O_45
REMARK    4  A    between atoms: C_7  and  O_44
REMARK    5  A    between atoms: C_8  and  O_11
REMARK    6  A    between atoms: O_11  and  C_12
REMARK    7  A    between atoms: C_14  and  O_43
REMARK    8  A    between atoms: C_19  and  C_35
REMARK    9  A    between atoms: C_20  and  O_23
REMARK   10  A    between atoms: O_23  and  C_24
REMARK   11  A    between atoms: C_26  and  O_34
REMARK   12  A    between atoms: C_27  and  O_33
REMARK   13  A    between atoms: C_28  and  O_32
REMARK   14  A    between atoms: C_37  and  O_42
REMARK   15  A    between atoms: C_38  and  O_41
REMARK                            x       y       z     vdW  Elec       q    Type
REMARK                         _______ _______ _______ _____ _____    ______ ____
ROOT
ATOM      1  C   UNL     1       5.351  -6.064  24.500  0.00  0.00    +0.131 A 
ATOM      2  C   UNL     1       5.273  -5.032  25.453  0.00  0.00    +0.093 A 
ATOM      3  C   UNL     1       6.176  -3.959  25.412  0.00  0.00    +0.147 A 
ATOM      4  O   UNL     1       6.110  -2.978  26.378  0.00  0.00    -0.451 OA
ATOM      5  C   UNL     1       6.843  -1.780  26.198  0.00  0.00    +0.181 A 
ATOM      6  C   UNL     1       7.842  -1.670  25.279  0.00  0.00    +0.214 A 
ATOM      7  C   UNL     1       8.200  -2.946  24.587  0.00  0.00    +0.238 A 
ATOM      8  O   UNL     1       9.341  -3.242  24.251  0.00  0.00    -0.283 OA
ATOM      9  C   UNL     1       7.149  -3.937  24.429  0.00  0.00    +0.109 A 
ATOM     10  C   UNL     1       7.189  -4.916  23.432  0.00  0.00    +0.135 A 
ATOM     11  C   UNL     1       6.289  -5.973  23.470  0.00  0.00    +0.092 A 
ENDROOT
BRANCH   5  12
ATOM     12  C   UNL     1       6.421  -0.697  27.166  0.00  0.00    +0.025 A 
ATOM     13  C   UNL     1       5.073  -0.392  27.441  0.00  0.00    +0.015 A 
ATOM     14  C   UNL     1       4.686   0.632  28.318  0.00  0.00    +0.050 A 
ATOM     15  C   UNL     1       5.657   1.387  28.936  0.00  0.00    +0.158 A 
ATOM     16  C   UNL     1       6.999   1.140  28.679  0.00  0.00    +0.159 A 
ATOM     17  C   UNL     1       7.385   0.113  27.807  0.00  0.00    +0.060 A 
BRANCH  15  18
ATOM     18  O   UNL     1       5.281   2.383  29.788  0.00  0.00    -0.503 OA
ATOM     19  H   UNL     1       6.026   3.014  29.775  0.00  0.00    +0.292 HD
ENDBRANCH  15  18
BRANCH  16  20
ATOM     20  O   UNL     1       7.911   1.949  29.302  0.00  0.00    -0.503 OA
ATOM     21  H   UNL     1       7.677   2.873  29.120  0.00  0.00    +0.292 HD
ENDBRANCH  16  20
ENDBRANCH   5  12
BRANCH  10  22
ATOM     22  O   UNL     1       8.080  -4.833  22.403  0.00  0.00    -0.506 OA
ATOM     23  H   UNL     1       8.230  -5.715  22.023  0.00  0.00    +0.292 HD
ENDBRANCH  10  22
BRANCH   1  24
ATOM     24  O   UNL     1       4.605  -7.202  24.447  0.00  0.00    -0.461 OA
BRANCH  24  28
ATOM     25  C   UNL     1       0.770  -8.179  26.132  0.00  0.00    +0.041 C 
ATOM     26  C   UNL     1       1.156  -8.432  24.677  0.00  0.00    +0.150 C 
ATOM     27  O   UNL     1       2.585  -8.417  24.541  0.00  0.00    -0.334 OA
ATOM     28  C   UNL     1       3.194  -7.126  24.659  0.00  0.00    +0.339 C 
ATOM     29  C   UNL     1       2.636  -6.205  23.549  0.00  0.00    +0.214 C 
ATOM     30  C   UNL     1       1.120  -6.073  23.750  0.00  0.00    +0.180 C 
ATOM     31  C   UNL     1       0.457  -7.461  23.706  0.00  0.00    +0.174 C 
BRANCH  29  32
ATOM     32  O   UNL     1       2.903  -6.800  22.255  0.00  0.00    -0.383 OA
ATOM     33  H   UNL     1       3.118  -6.061  21.652  0.00  0.00    +0.210 HD
ENDBRANCH  29  32
BRANCH  30  34
ATOM     34  O   UNL     1       0.550  -5.174  22.796  0.00  0.00    -0.386 OA
ATOM     35  H   UNL     1       1.227  -4.982  22.121  0.00  0.00    +0.210 HD
ENDBRANCH  30  34
BRANCH  31  36
ATOM     36  O   UNL     1       0.503  -7.991  22.373  0.00  0.00    -0.387 OA
ATOM     37  H   UNL     1       1.397  -7.787  22.016  0.00  0.00    +0.210 HD
ENDBRANCH  31  36
ENDBRANCH  24  28
ENDBRANCH   1  24
BRANCH   6  38
ATOM     38  O   UNL     1       8.495  -0.468  24.986  0.00  0.00    -0.453 OA
BRANCH  38  39
ATOM     39  C   UNL     1       7.957   0.369  23.946  0.00  0.00    +0.339 C 
ATOM     40  O   UNL     1       8.141  -0.217  22.661  0.00  0.00    -0.337 OA
ATOM     41  C   UNL     1       9.438  -0.052  22.088  0.00  0.00    +0.198 C 
ATOM     42  C   UNL     1       9.823   1.417  21.962  0.00  0.00    +0.171 C 
ATOM     43  C   UNL     1       9.825   2.051  23.347  0.00  0.00    +0.180 C 
ATOM     44  C   UNL     1       8.486   1.823  24.049  0.00  0.00    +0.214 C 
BRANCH  42  45
ATOM     45  O   UNL     1       8.881   2.103  21.125  0.00  0.00    -0.387 OA
ATOM     46  H   UNL     1       8.011   1.709  21.329  0.00  0.00    +0.210 HD
ENDBRANCH  42  45
BRANCH  43  47
ATOM     47  O   UNL     1      10.081   3.462  23.184  0.00  0.00    -0.386 OA
ATOM     48  H   UNL     1       9.955   3.675  22.239  0.00  0.00    +0.210 HD
ENDBRANCH  43  47
BRANCH  44  49
ATOM     49  O   UNL     1       8.580   2.288  25.407  0.00  0.00    -0.383 OA
ATOM     50  H   UNL     1       9.384   1.892  25.791  0.00  0.00    +0.210 HD
ENDBRANCH  44  49
ENDBRANCH  38  39
ENDBRANCH   6  38
TORSDOF 14
ENDMDL
MODEL 3
REMARK VINA RESULT:      -7.3      2.341      9.639
REMARK  Name = 
REMARK  15 active torsions:
REMARK  status: ('A' for Active; 'I' for Inactive)
REMARK    1  A    between atoms: C_1  and  C_2
REMARK    2  A    between atoms: C_3  and  O_46
REMARK    3  A    between atoms: C_5  and  O_45
REMARK    4  A    between atoms: C_7  and  O_44
REMARK    5  A    between atoms: C_8  and  O_11
REMARK    6  A    between atoms: O_11  and  C_12
REMARK    7  A    between atoms: C_14  and  O_43
REMARK    8  A    between atoms: C_19  and  C_35
REMARK    9  A    between atoms: C_20  and  O_23
REMARK   10  A    between atoms: O_23  and  C_24
REMARK   11  A    between atoms: C_26  and  O_34
REMARK   12  A    between atoms: C_27  and  O_33
REMARK   13  A    between atoms: C_28  and  O_32
REMARK   14  A    between atoms: C_37  and  O_42
REMARK   15  A    between atoms: C_38  and  O_41
REMARK                            x       y       z     vdW  Elec       q    Type
REMARK                         _______ _______ _______ _____ _____    ______ ____
ROOT
ATOM      1  C   UNL     1       9.759  -0.269  24.046  0.00  0.00    +0.131 A 
ATOM      2  C   UNL     1       8.913  -0.858  25.003  0.00  0.00    +0.093 A 
ATOM      3  C   UNL     1       8.060  -1.912  24.643  0.00  0.00    +0.147 A 
ATOM      4  O   UNL     1       7.209  -2.450  25.584  0.00  0.00    -0.451 OA
ATOM      5  C   UNL     1       6.537  -3.662  25.296  0.00  0.00    +0.181 A 
ATOM      6  C   UNL     1       6.450  -4.163  24.032  0.00  0.00    +0.214 A 
ATOM      7  C   UNL     1       6.983  -3.263  22.964  0.00  0.00    +0.238 A 
ATOM      8  O   UNL     1       6.498  -3.176  21.842  0.00  0.00    -0.283 OA
ATOM      9  C   UNL     1       8.055  -2.353  23.332  0.00  0.00    +0.109 A 
ATOM     10  C   UNL     1       8.945  -1.828  22.390  0.00  0.00    +0.135 A 
ATOM     11  C   UNL     1       9.794  -0.791  22.752  0.00  0.00    +0.092 A 
ENDROOT
BRANCH   5  12
ATOM     12  C   UNL     1       5.906  -4.276  26.526  0.00  0.00    +0.025 A 
ATOM     13  C   UNL     1       5.182  -3.529  27.476  0.00  0.00    +0.015 A 
ATOM     14  C   UNL     1       4.622  -4.098  28.628  0.00  0.00    +0.050 A 
ATOM     15  C   UNL     1       4.788  -5.445  28.859  0.00  0.00    +0.158 A 
ATOM     16  C   UNL     1       5.513  -6.220  27.964  0.00  0.00    +0.159 A 
ATOM     17  C   UNL     1       6.068  -5.651  26.810  0.00  0.00    +0.060 A 
BRANCH  15  18
ATOM     18  O   UNL     1       4.244  -5.998  29.980  0.00  0.00    -0.503 OA
ATOM     19  H   UNL     1       4.724  -6.840  30.099  0.00  0.00    +0.292 HD
ENDBRANCH  15  18
BRANCH  16  20
ATOM     20  O   UNL     1       5.667  -7.545  28.271  0.00  0.00    -0.503 OA
ATOM     21  H   UNL     1       6.027  -7.612  29.170  0.00  0.00    +0.292 HD
ENDBRANCH  16  20
ENDBRANCH   5  12
BRANCH  10  22
ATOM     22  O   UNL     1       9.013  -2.340  21.128  0.00  0.00    -0.506 OA
ATOM     23  H   UNL     1       9.827  -2.037  20.692  0.00  0.00    +0.292 HD
ENDBRANCH  10  22
BRANCH   1  24
ATOM     24  O   UNL     1      10.584   0.801  24.216  0.00  0.00    -0.461 OA
BRANCH  24  28
ATOM     25  C   UNL     1       7.891   3.703  25.899  0.00  0.00    +0.041 C 
ATOM     26  C   UNL     1       7.958   3.356  24.414  0.00  0.00    +0.150 C 
ATOM     27  O   UNL     1       8.606   2.087  24.236  0.00  0.00    -0.334 OA
ATOM     28  C   UNL     1      10.019   2.087  24.478  0.00  0.00    +0.339 C 
ATOM     29  C   UNL     1      10.695   3.069  23.494  0.00  0.00    +0.214 C 
ATOM     30  C   UNL     1      10.135   4.475  23.755  0.00  0.00    +0.180 C 
ATOM     31  C   UNL     1       8.606   4.476  23.578  0.00  0.00    +0.174 C 
BRANCH  29  32
ATOM     32  O   UNL     1      10.390   2.670  22.134  0.00  0.00    -0.383 OA
ATOM     33  H   UNL     1       9.630   3.217  21.852  0.00  0.00    +0.210 HD
ENDBRANCH  29  32
BRANCH  30  34
ATOM     34  O   UNL     1      10.773   5.446  22.923  0.00  0.00    -0.386 OA
ATOM     35  H   UNL     1      10.100   5.820  22.325  0.00  0.00    +0.210 HD
ENDBRANCH  30  34
BRANCH  31  36
ATOM     36  O   UNL     1       8.266   4.307  22.193  0.00  0.00    -0.387 OA
ATOM     37  H   UNL     1       8.769   3.526  21.870  0.00  0.00    +0.210 HD
ENDBRANCH  31  36
ENDBRANCH  24  28
ENDBRANCH   1  24
BRANCH   6  38
ATOM     38  O   UNL     1       5.910  -5.418  23.733  0.00  0.00    -0.453 OA
BRANCH  38  39
ATOM     39  C   UNL     1       4.614  -5.476  23.109  0.00  0.00    +0.339 C 
ATOM     40  O   UNL     1       4.011  -4.187  23.045  0.00  0.00    -0.337 OA
ATOM     41  C   UNL     1       3.385  -3.738  24.246  0.00  0.00    +0.198 C 
ATOM     42  C   UNL     1       2.308  -4.705  24.723  0.00  0.00    +0.171 C 
ATOM     43  C   UNL     1       2.942  -6.063  24.990  0.00  0.00    +0.180 C 
ATOM     44  C   UNL     1       3.710  -6.554  23.762  0.00  0.00    +0.214 C 
BRANCH  42  45
ATOM     45  O   UNL     1       1.291  -4.842  23.721  0.00  0.00    -0.387 OA
ATOM     46  H   UNL     1       1.090  -3.934  23.422  0.00  0.00    +0.210 HD
ENDBRANCH  42  45
BRANCH  43  47
ATOM     47  O   UNL     1       1.884  -6.983  25.329  0.00  0.00    -0.386 OA
ATOM     48  H   UNL     1       1.708  -7.531  24.540  0.00  0.00    +0.210 HD
ENDBRANCH  43  47
BRANCH  44  49
ATOM     49  O   UNL     1       4.428  -7.753  24.102  0.00  0.00    -0.383 OA
ATOM     50  H   UNL     1       3.904  -8.218  24.781  0.00  0.00    +0.210 HD
ENDBRANCH  44  49
ENDBRANCH  38  39
ENDBRANCH   6  38
TORSDOF 14
ENDMDL
MODEL 4
REMARK VINA RESULT:      -7.1      2.217      4.007
REMARK  Name = 
REMARK  15 active torsions:
REMARK  status: ('A' for Active; 'I' for Inactive)
REMARK    1  A    between atoms: C_1  and  C_2
REMARK    2  A    between atoms: C_3  and  O_46
REMARK    3  A    between atoms: C_5  and  O_45
REMARK    4  A    between atoms: C_7  and  O_44
REMARK    5  A    between atoms: C_8  and  O_11
REMARK    6  A    between atoms: O_11  and  C_12
REMARK    7  A    between atoms: C_14  and  O_43
REMARK    8  A    between atoms: C_19  and  C_35
REMARK    9  A    between atoms: C_20  and  O_23
REMARK   10  A    between atoms: O_23  and  C_24
REMARK   11  A    between atoms: C_26  and  O_34
REMARK   12  A    between atoms: C_27  and  O_33
REMARK   13  A    between atoms: C_28  and  O_32
REMARK   14  A    between atoms: C_37  and  O_42
REMARK   15  A    between atoms: C_38  and  O_41
REMARK                            x       y       z     vdW  Elec       q    Type
REMARK                         _______ _______ _______ _____ _____    ______ ____
ROOT
ATOM      1  C   UNL     1       5.065  -5.013  25.267  0.00  0.00    +0.131 A 
ATOM      2  C   UNL     1       5.778  -4.041  24.544  0.00  0.00    +0.093 A 
ATOM      3  C   UNL     1       5.935  -2.746  25.060  0.00  0.00    +0.147 A 
ATOM      4  O   UNL     1       6.602  -1.794  24.319  0.00  0.00    -0.451 OA
ATOM      5  C   UNL     1       6.977  -0.577  24.934  0.00  0.00    +0.181 A 
ATOM      6  C   UNL     1       6.453  -0.170  26.124  0.00  0.00    +0.214 A 
ATOM      7  C   UNL     1       5.347  -1.031  26.647  0.00  0.00    +0.238 A 
ATOM      8  O   UNL     1       4.380  -0.599  27.263  0.00  0.00    -0.283 OA
ATOM      9  C   UNL     1       5.369  -2.439  26.284  0.00  0.00    +0.109 A 
ATOM     10  C   UNL     1       4.724  -3.416  27.047  0.00  0.00    +0.135 A 
ATOM     11  C   UNL     1       4.577  -4.699  26.537  0.00  0.00    +0.092 A 
ENDROOT
BRANCH   5  12
ATOM     12  C   UNL     1       7.963   0.210  24.099  0.00  0.00    +0.025 A 
ATOM     13  C   UNL     1       9.125   0.803  24.632  0.00  0.00    +0.015 A 
ATOM     14  C   UNL     1      10.021   1.554  23.859  0.00  0.00    +0.050 A 
ATOM     15  C   UNL     1       9.761   1.737  22.520  0.00  0.00    +0.158 A 
ATOM     16  C   UNL     1       8.617   1.193  21.953  0.00  0.00    +0.159 A 
ATOM     17  C   UNL     1       7.724   0.438  22.725  0.00  0.00    +0.060 A 
BRANCH  15  18
ATOM     18  O   UNL     1      10.633   2.468  21.768  0.00  0.00    -0.503 OA
ATOM     19  H   UNL     1      10.681   1.996  20.915  0.00  0.00    +0.292 HD
ENDBRANCH  15  18
BRANCH  16  20
ATOM     20  O   UNL     1       8.403   1.441  20.623  0.00  0.00    -0.503 OA
ATOM     21  H   UNL     1       8.796   0.718  20.109  0.00  0.00    +0.292 HD
ENDBRANCH  16  20
ENDBRANCH   5  12
BRANCH  10  22
ATOM     22  O   UNL     1       4.263  -3.137  28.301  0.00  0.00    -0.506 OA
ATOM     23  H   UNL     1       4.431  -2.205  28.514  0.00  0.00    +0.292 HD
ENDBRANCH  10  22
BRANCH   1  24
ATOM     24  O   UNL     1       4.761  -6.282  24.875  0.00  0.00    -0.461 OA
BRANCH  24  28
ATOM     25  C   UNL     1       1.115  -8.453  25.581  0.00  0.00    +0.041 C 
ATOM     26  C   UNL     1       1.926  -8.536  24.291  0.00  0.00    +0.150 C 
ATOM     27  O   UNL     1       3.264  -8.071  24.523  0.00  0.00    -0.334 OA
ATOM     28  C   UNL     1       3.391  -6.657  24.715  0.00  0.00    +0.339 C 
ATOM     29  C   UNL     1       2.887  -5.931  23.447  0.00  0.00    +0.214 C 
ATOM     30  C   UNL     1       1.406  -6.285  23.247  0.00  0.00    +0.180 C 
ATOM     31  C   UNL     1       1.240  -7.810  23.117  0.00  0.00    +0.174 C 
BRANCH  29  32
ATOM     32  O   UNL     1       3.652  -6.381  22.301  0.00  0.00    -0.383 OA
ATOM     33  H   UNL     1       3.837  -7.329  22.450  0.00  0.00    +0.210 HD
ENDBRANCH  29  32
BRANCH  30  34
ATOM     34  O   UNL     1       0.856  -5.588  22.127  0.00  0.00    -0.386 OA
ATOM     35  H   UNL     1       1.525  -4.953  21.809  0.00  0.00    +0.210 HD
ENDBRANCH  30  34
BRANCH  31  36
ATOM     36  O   UNL     1       1.793  -8.267  21.874  0.00  0.00    -0.387 OA
ATOM     37  H   UNL     1       2.520  -8.892  22.098  0.00  0.00    +0.210 HD
ENDBRANCH  31  36
ENDBRANCH  24  28
ENDBRANCH   1  24
BRANCH   6  38
ATOM     38  O   UNL     1       6.896   0.958  26.821  0.00  0.00    -0.453 OA
BRANCH  38  39
ATOM     39  C   UNL     1       5.996   2.070  26.969  0.00  0.00    +0.339 C 
ATOM     40  O   UNL     1       5.390   2.417  25.727  0.00  0.00    -0.337 OA
ATOM     41  C   UNL     1       6.189   3.214  24.853  0.00  0.00    +0.198 C 
ATOM     42  C   UNL     1       6.627   4.518  25.510  0.00  0.00    +0.171 C 
ATOM     43  C   UNL     1       7.447   4.198  26.752  0.00  0.00    +0.180 C 
ATOM     44  C   UNL     1       6.674   3.266  27.687  0.00  0.00    +0.214 C 
BRANCH  42  45
ATOM     45  O   UNL     1       5.477   5.291  25.882  0.00  0.00    -0.387 OA
ATOM     46  H   UNL     1       5.722   6.223  25.722  0.00  0.00    +0.210 HD
ENDBRANCH  42  45
BRANCH  43  47
ATOM     47  O   UNL     1       7.749   5.444  27.412  0.00  0.00    -0.386 OA
ATOM     48  H   UNL     1       7.205   6.138  26.992  0.00  0.00    +0.210 HD
ENDBRANCH  43  47
BRANCH  44  49
ATOM     49  O   UNL     1       7.535   2.856  28.763  0.00  0.00    -0.383 OA
ATOM     50  H   UNL     1       8.295   3.468  28.771  0.00  0.00    +0.210 HD
ENDBRANCH  44  49
ENDBRANCH  38  39
ENDBRANCH   6  38
TORSDOF 14
ENDMDL
MODEL 5
REMARK VINA RESULT:      -7.0      2.170      9.806
REMARK  Name = 
REMARK  15 active torsions:
REMARK  status: ('A' for Active; 'I' for Inactive)
REMARK    1  A    between atoms: C_1  and  C_2
REMARK    2  A    between atoms: C_3  and  O_46
REMARK    3  A    between atoms: C_5  and  O_45
REMARK    4  A    between atoms: C_7  and  O_44
REMARK    5  A    between atoms: C_8  and  O_11
REMARK    6  A    between atoms: O_11  and  C_12
REMARK    7  A    between atoms: C_14  and  O_43
REMARK    8  A    between atoms: C_19  and  C_35
REMARK    9  A    between atoms: C_20  and  O_23
REMARK   10  A    between atoms: O_23  and  C_24
REMARK   11  A    between atoms: C_26  and  O_34
REMARK   12  A    between atoms: C_27  and  O_33
REMARK   13  A    between atoms: C_28  and  O_32
REMARK   14  A    between atoms: C_37  and  O_42
REMARK   15  A    between atoms: C_38  and  O_41
REMARK                            x       y       z     vdW  Elec       q    Type
REMARK                         _______ _______ _______ _____ _____    ______ ____
ROOT
ATOM      1  C   UNL     1       8.396   0.388  24.047  0.00  0.00    +0.131 A 
ATOM      2  C   UNL     1       7.586  -0.667  23.590  0.00  0.00    +0.093 A 
ATOM      3  C   UNL     1       7.351  -1.784  24.405  0.00  0.00    +0.147 A 
ATOM      4  O   UNL     1       6.587  -2.827  23.926  0.00  0.00    -0.451 OA
ATOM      5  C   UNL     1       6.144  -3.829  24.822  0.00  0.00    +0.181 A 
ATOM      6  C   UNL     1       6.680  -3.982  26.064  0.00  0.00    +0.214 A 
ATOM      7  C   UNL     1       7.866  -3.115  26.346  0.00  0.00    +0.238 A 
ATOM      8  O   UNL     1       8.820  -3.466  27.031  0.00  0.00    -0.283 OA
ATOM      9  C   UNL     1       7.936  -1.838  25.657  0.00  0.00    +0.109 A 
ATOM     10  C   UNL     1       8.681  -0.763  26.151  0.00  0.00    +0.135 A 
ATOM     11  C   UNL     1       8.905   0.346  25.346  0.00  0.00    +0.092 A 
ENDROOT
BRANCH   5  12
ATOM     12  C   UNL     1       5.072  -4.708  24.217  0.00  0.00    +0.025 A 
ATOM     13  C   UNL     1       5.350  -5.929  23.570  0.00  0.00    +0.015 A 
ATOM     14  C   UNL     1       4.356  -6.727  22.987  0.00  0.00    +0.050 A 
ATOM     15  C   UNL     1       3.046  -6.306  23.034  0.00  0.00    +0.158 A 
ATOM     16  C   UNL     1       2.724  -5.100  23.641  0.00  0.00    +0.159 A 
ATOM     17  C   UNL     1       3.718  -4.305  24.227  0.00  0.00    +0.060 A 
BRANCH  15  18
ATOM     18  O   UNL     1       2.079  -7.083  22.467  0.00  0.00    -0.503 OA
ATOM     19  H   UNL     1       1.322  -6.479  22.335  0.00  0.00    +0.292 HD
ENDBRANCH  15  18
BRANCH  16  20
ATOM     20  O   UNL     1       1.407  -4.726  23.623  0.00  0.00    -0.503 OA
ATOM     21  H   UNL     1       0.862  -5.516  23.775  0.00  0.00    +0.292 HD
ENDBRANCH  16  20
ENDBRANCH   5  12
BRANCH  10  22
ATOM     22  O   UNL     1       9.165  -0.772  27.427  0.00  0.00    -0.506 OA
ATOM     23  H   UNL     1       9.763  -0.018  27.559  0.00  0.00    +0.292 HD
ENDBRANCH  10  22
BRANCH   1  24
ATOM     24  O   UNL     1       8.780   1.498  23.356  0.00  0.00    -0.461 OA
BRANCH  24  28
ATOM     25  C   UNL     1       5.653   4.433  23.021  0.00  0.00    +0.041 C 
ATOM     26  C   UNL     1       7.058   4.609  22.451  0.00  0.00    +0.150 C 
ATOM     27  O   UNL     1       7.702   3.331  22.334  0.00  0.00    -0.334 OA
ATOM     28  C   UNL     1       8.093   2.732  23.576  0.00  0.00    +0.339 C 
ATOM     29  C   UNL     1       9.096   3.667  24.290  0.00  0.00    +0.214 C 
ATOM     30  C   UNL     1       8.393   5.003  24.570  0.00  0.00    +0.180 C 
ATOM     31  C   UNL     1       7.894   5.625  23.253  0.00  0.00    +0.174 C 
BRANCH  29  32
ATOM     32  O   UNL     1      10.239   3.892  23.427  0.00  0.00    -0.383 OA
ATOM     33  H   UNL     1      10.504   3.014  23.089  0.00  0.00    +0.210 HD
ENDBRANCH  29  32
BRANCH  30  34
ATOM     34  O   UNL     1       9.245   5.892  25.295  0.00  0.00    -0.386 OA
ATOM     35  H   UNL     1       8.722   6.292  26.014  0.00  0.00    +0.210 HD
ENDBRANCH  30  34
BRANCH  31  36
ATOM     36  O   UNL     1       9.006   6.070  22.461  0.00  0.00    -0.387 OA
ATOM     37  H   UNL     1       8.684   6.824  21.917  0.00  0.00    +0.210 HD
ENDBRANCH  31  36
ENDBRANCH  24  28
ENDBRANCH   1  24
BRANCH   6  38
ATOM     38  O   UNL     1       6.179  -4.873  27.020  0.00  0.00    -0.453 OA
BRANCH  38  39
ATOM     39  C   UNL     1       4.793  -4.770  27.392  0.00  0.00    +0.339 C 
ATOM     40  O   UNL     1       4.615  -3.877  28.488  0.00  0.00    -0.337 OA
ATOM     41  C   UNL     1       4.895  -4.420  29.778  0.00  0.00    +0.198 C 
ATOM     42  C   UNL     1       4.050  -5.654  30.073  0.00  0.00    +0.171 C 
ATOM     43  C   UNL     1       4.346  -6.720  29.027  0.00  0.00    +0.180 C 
ATOM     44  C   UNL     1       4.154  -6.165  27.616  0.00  0.00    +0.214 C 
BRANCH  42  45
ATOM     45  O   UNL     1       2.656  -5.317  30.030  0.00  0.00    -0.387 OA
ATOM     46  H   UNL     1       2.346  -5.587  29.144  0.00  0.00    +0.210 HD
ENDBRANCH  42  45
BRANCH  43  47
ATOM     47  O   UNL     1       3.453  -7.828  29.264  0.00  0.00    -0.386 OA
ATOM     48  H   UNL     1       3.056  -7.701  30.148  0.00  0.00    +0.210 HD
ENDBRANCH  43  47
BRANCH  44  49
ATOM     49  O   UNL     1       4.597  -7.142  26.658  0.00  0.00    -0.383 OA
ATOM     50  H   UNL     1       5.568  -7.198  26.735  0.00  0.00    +0.210 HD
ENDBRANCH  44  49
ENDBRANCH  38  39
ENDBRANCH   6  38
TORSDOF 14
ENDMDL
MODEL 6
REMARK VINA RESULT:      -6.9      2.282      3.849
REMARK  Name = 
REMARK  15 active torsions:
REMARK  status: ('A' for Active; 'I' for Inactive)
REMARK    1  A    between atoms: C_1  and  C_2
REMARK    2  A    between atoms: C_3  and  O_46
REMARK    3  A    between atoms: C_5  and  O_45
REMARK    4  A    between atoms: C_7  and  O_44
REMARK    5  A    between atoms: C_8  and  O_11
REMARK    6  A    between atoms: O_11  and  C_12
REMARK    7  A    between atoms: C_14  and  O_43
REMARK    8  A    between atoms: C_19  and  C_35
REMARK    9  A    between atoms: C_20  and  O_23
REMARK   10  A    between atoms: O_23  and  C_24
REMARK   11  A    between atoms: C_26  and  O_34
REMARK   12  A    between atoms: C_27  and  O_33
REMARK   13  A    between atoms: C_28  and  O_32
REMARK   14  A    between atoms: C_37  and  O_42
REMARK   15  A    between atoms: C_38  and  O_41
REMARK                            x       y       z     vdW  Elec       q    Type
REMARK                         _______ _______ _______ _____ _____    ______ ____
ROOT
ATOM      1  C   UNL     1       3.916  -4.223  24.783  0.00  0.00    +0.131 A 
ATOM      2  C   UNL     1       4.309  -2.927  25.159  0.00  0.00    +0.093 A 
ATOM      3  C   UNL     1       5.342  -2.272  24.472  0.00  0.00    +0.147 A 
ATOM      4  O   UNL     1       5.742  -1.017  24.880  0.00  0.00    -0.451 OA
ATOM      5  C   UNL     1       6.598  -0.259  24.046  0.00  0.00    +0.181 A 
ATOM      6  C   UNL     1       7.288  -0.816  23.013  0.00  0.00    +0.214 A 
ATOM      7  C   UNL     1       7.189  -2.306  22.924  0.00  0.00    +0.238 A 
ATOM      8  O   UNL     1       8.107  -3.030  22.558  0.00  0.00    -0.283 OA
ATOM      9  C   UNL     1       5.973  -2.924  23.428  0.00  0.00    +0.109 A 
ATOM     10  C   UNL     1       5.541  -4.181  22.996  0.00  0.00    +0.135 A 
ATOM     11  C   UNL     1       4.513  -4.824  23.673  0.00  0.00    +0.092 A 
ENDROOT
BRANCH   5  12
ATOM     12  C   UNL     1       6.683   1.189  24.474  0.00  0.00    +0.025 A 
ATOM     13  C   UNL     1       6.453   2.268  23.596  0.00  0.00    +0.015 A 
ATOM     14  C   UNL     1       6.560   3.609  23.990  0.00  0.00    +0.050 A 
ATOM     15  C   UNL     1       6.912   3.899  25.288  0.00  0.00    +0.158 A 
ATOM     16  C   UNL     1       7.171   2.872  26.186  0.00  0.00    +0.159 A 
ATOM     17  C   UNL     1       7.060   1.532  25.792  0.00  0.00    +0.060 A 
BRANCH  15  18
ATOM     18  O   UNL     1       7.016   5.204  25.672  0.00  0.00    -0.503 OA
ATOM     19  H   UNL     1       7.286   5.166  26.610  0.00  0.00    +0.292 HD
ENDBRANCH  15  18
BRANCH  16  20
ATOM     20  O   UNL     1       7.549   3.232  27.452  0.00  0.00    -0.503 OA
ATOM     21  H   UNL     1       6.758   3.516  27.939  0.00  0.00    +0.292 HD
ENDBRANCH  16  20
ENDBRANCH   5  12
BRANCH  10  22
ATOM     22  O   UNL     1       6.093  -4.774  21.898  0.00  0.00    -0.506 OA
ATOM     23  H   UNL     1       5.522  -4.633  21.125  0.00  0.00    +0.292 HD
ENDBRANCH  10  22
BRANCH   1  24
ATOM     24  O   UNL     1       2.991  -5.018  25.390  0.00  0.00    -0.461 OA
BRANCH  24  28
ATOM     25  C   UNL     1       3.926  -4.176  29.503  0.00  0.00    +0.041 C 
ATOM     26  C   UNL     1       4.593  -5.275  28.681  0.00  0.00    +0.150 C 
ATOM     27  O   UNL     1       4.402  -5.023  27.280  0.00  0.00    -0.334 OA
ATOM     28  C   UNL     1       3.069  -5.233  26.801  0.00  0.00    +0.339 C 
ATOM     29  C   UNL     1       2.677  -6.709  27.039  0.00  0.00    +0.214 C 
ATOM     30  C   UNL     1       2.722  -6.981  28.549  0.00  0.00    +0.180 C 
ATOM     31  C   UNL     1       4.129  -6.684  29.098  0.00  0.00    +0.174 C 
BRANCH  29  32
ATOM     32  O   UNL     1       3.625  -7.571  26.362  0.00  0.00    -0.383 OA
ATOM     33  H   UNL     1       4.276  -7.847  27.037  0.00  0.00    +0.210 HD
ENDBRANCH  29  32
BRANCH  30  34
ATOM     34  O   UNL     1       2.300  -8.314  28.846  0.00  0.00    -0.386 OA
ATOM     35  H   UNL     1       1.347  -8.380  28.649  0.00  0.00    +0.210 HD
ENDBRANCH  30  34
BRANCH  31  36
ATOM     36  O   UNL     1       5.065  -7.664  28.623  0.00  0.00    -0.387 OA
ATOM     37  H   UNL     1       4.858  -7.819  27.674  0.00  0.00    +0.210 HD
ENDBRANCH  31  36
ENDBRANCH  24  28
ENDBRANCH   1  24
BRANCH   6  38
ATOM     38  O   UNL     1       8.037  -0.075  22.092  0.00  0.00    -0.453 OA
BRANCH  38  39
ATOM     39  C   UNL     1       9.471  -0.091  22.204  0.00  0.00    +0.339 C 
ATOM     40  O   UNL     1       9.897  -0.901  23.296  0.00  0.00    -0.337 OA
ATOM     41  C   UNL     1       9.829  -0.287  24.583  0.00  0.00    +0.198 C 
ATOM     42  C   UNL     1      10.643   1.000  24.645  0.00  0.00    +0.171 C 
ATOM     43  C   UNL     1      10.100   1.981  23.614  0.00  0.00    +0.180 C 
ATOM     44  C   UNL     1      10.061   1.343  22.225  0.00  0.00    +0.214 C 
BRANCH  42  45
ATOM     45  O   UNL     1      12.022   0.725  24.361  0.00  0.00    -0.387 OA
ATOM     46  H   UNL     1      12.450   1.596  24.259  0.00  0.00    +0.210 HD
ENDBRANCH  42  45
BRANCH  43  47
ATOM     47  O   UNL     1      10.958   3.141  23.617  0.00  0.00    -0.386 OA
ATOM     48  H   UNL     1      11.816   2.872  23.237  0.00  0.00    +0.210 HD
ENDBRANCH  43  47
BRANCH  44  49
ATOM     49  O   UNL     1       9.395   2.234  21.314  0.00  0.00    -0.383 OA
ATOM     50  H   UNL     1       8.572   1.793  21.032  0.00  0.00    +0.210 HD
ENDBRANCH  44  49
ENDBRANCH  38  39
ENDBRANCH   6  38
TORSDOF 14
ENDMDL
MODEL 7
REMARK VINA RESULT:      -6.9      1.535      2.357
REMARK  Name = 
REMARK  15 active torsions:
REMARK  status: ('A' for Active; 'I' for Inactive)
REMARK    1  A    between atoms: C_1  and  C_2
REMARK    2  A    between atoms: C_3  and  O_46
REMARK    3  A    between atoms: C_5  and  O_45
REMARK    4  A    between atoms: C_7  and  O_44
REMARK    5  A    between atoms: C_8  and  O_11
REMARK    6  A    between atoms: O_11  and  C_12
REMARK    7  A    between atoms: C_14  and  O_43
REMARK    8  A    between atoms: C_19  and  C_35
REMARK    9  A    between atoms: C_20  and  O_23
REMARK   10  A    between atoms: O_23  and  C_24
REMARK   11  A    between atoms: C_26  and  O_34
REMARK   12  A    between atoms: C_27  and  O_33
REMARK   13  A    between atoms: C_28  and  O_32
REMARK   14  A    between atoms: C_37  and  O_42
REMARK   15  A    between atoms: C_38  and  O_41
REMARK                            x       y       z     vdW  Elec       q    Type
REMARK                         _______ _______ _______ _____ _____    ______ ____
ROOT
ATOM      1  C   UNL     1       6.001  -3.748  24.547  0.00  0.00    +0.131 A 
ATOM      2  C   UNL     1       5.349  -2.505  24.642  0.00  0.00    +0.093 A 
ATOM      3  C   UNL     1       6.078  -1.312  24.536  0.00  0.00    +0.147 A 
ATOM      4  O   UNL     1       5.429  -0.103  24.671  0.00  0.00    -0.451 OA
ATOM      5  C   UNL     1       6.105   1.089  24.319  0.00  0.00    +0.181 A 
ATOM      6  C   UNL     1       7.455   1.135  24.143  0.00  0.00    +0.214 A 
ATOM      7  C   UNL     1       8.176  -0.127  24.497  0.00  0.00    +0.238 A 
ATOM      8  O   UNL     1       9.291  -0.155  25.003  0.00  0.00    -0.283 OA
ATOM      9  C   UNL     1       7.447  -1.375  24.348  0.00  0.00    +0.109 A 
ATOM     10  C   UNL     1       8.095  -2.602  24.176  0.00  0.00    +0.135 A 
ATOM     11  C   UNL     1       7.370  -3.782  24.274  0.00  0.00    +0.092 A 
ENDROOT
BRANCH   5  12
ATOM     12  C   UNL     1       5.169   2.273  24.220  0.00  0.00    +0.025 A 
ATOM     13  C   UNL     1       4.441   2.775  25.317  0.00  0.00    +0.015 A 
ATOM     14  C   UNL     1       3.554   3.855  25.215  0.00  0.00    +0.050 A 
ATOM     15  C   UNL     1       3.370   4.457  23.990  0.00  0.00    +0.158 A 
ATOM     16  C   UNL     1       4.047   3.985  22.874  0.00  0.00    +0.159 A 
ATOM     17  C   UNL     1       4.937   2.907  22.979  0.00  0.00    +0.060 A 
BRANCH  15  18
ATOM     18  O   UNL     1       2.507   5.508  23.890  0.00  0.00    -0.503 OA
ATOM     19  H   UNL     1       1.693   5.204  24.338  0.00  0.00    +0.292 HD
ENDBRANCH  15  18
BRANCH  16  20
ATOM     20  O   UNL     1       3.792   4.608  21.682  0.00  0.00    -0.503 OA
ATOM     21  H   UNL     1       4.625   4.674  21.187  0.00  0.00    +0.292 HD
ENDBRANCH  16  20
ENDBRANCH   5  12
BRANCH  10  22
ATOM     22  O   UNL     1       9.427  -2.657  23.883  0.00  0.00    -0.506 OA
ATOM     23  H   UNL     1       9.877  -3.253  24.504  0.00  0.00    +0.292 HD
ENDBRANCH  10  22
BRANCH   1  24
ATOM     24  O   UNL     1       5.455  -4.986  24.703  0.00  0.00    -0.461 OA
BRANCH  24  28
ATOM     25  C   UNL     1       2.606  -4.537  27.895  0.00  0.00    +0.041 C 
ATOM     26  C   UNL     1       4.117  -4.411  28.071  0.00  0.00    +0.150 C 
ATOM     27  O   UNL     1       4.740  -4.173  26.799  0.00  0.00    -0.334 OA
ATOM     28  C   UNL     1       4.762  -5.299  25.913  0.00  0.00    +0.339 C 
ATOM     29  C   UNL     1       5.553  -6.447  26.582  0.00  0.00    +0.214 C 
ATOM     30  C   UNL     1       4.830  -6.836  27.880  0.00  0.00    +0.180 C 
ATOM     31  C   UNL     1       4.725  -5.617  28.813  0.00  0.00    +0.174 C 
BRANCH  29  32
ATOM     32  O   UNL     1       6.892  -5.989  26.892  0.00  0.00    -0.383 OA
ATOM     33  H   UNL     1       6.802  -5.354  27.629  0.00  0.00    +0.210 HD
ENDBRANCH  29  32
BRANCH  30  34
ATOM     34  O   UNL     1       5.471  -7.945  28.514  0.00  0.00    -0.386 OA
ATOM     35  H   UNL     1       5.865  -8.504  27.819  0.00  0.00    +0.210 HD
ENDBRANCH  30  34
BRANCH  31  36
ATOM     36  O   UNL     1       6.021  -5.269  29.324  0.00  0.00    -0.387 OA
ATOM     37  H   UNL     1       6.520  -4.859  28.581  0.00  0.00    +0.210 HD
ENDBRANCH  31  36
ENDBRANCH  24  28
ENDBRANCH   1  24
BRANCH   6  38
ATOM     38  O   UNL     1       8.136   2.261  23.669  0.00  0.00    -0.453 OA
BRANCH  38  39
ATOM     39  C   UNL     1       8.944   3.013  24.592  0.00  0.00    +0.339 C 
ATOM     40  O   UNL     1       8.138   3.716  25.533  0.00  0.00    -0.337 OA
ATOM     41  C   UNL     1       7.574   4.942  25.068  0.00  0.00    +0.198 C 
ATOM     42  C   UNL     1       8.643   5.916  24.588  0.00  0.00    +0.171 C 
ATOM     43  C   UNL     1       9.418   5.279  23.443  0.00  0.00    +0.180 C 
ATOM     44  C   UNL     1       9.969   3.913  23.855  0.00  0.00    +0.214 C 
BRANCH  42  45
ATOM     45  O   UNL     1       9.544   6.225  25.661  0.00  0.00    -0.387 OA
ATOM     46  H   UNL     1       9.490   7.193  25.779  0.00  0.00    +0.210 HD
ENDBRANCH  42  45
BRANCH  43  47
ATOM     47  O   UNL     1      10.492   6.174  23.087  0.00  0.00    -0.386 OA
ATOM     48  H   UNL     1      10.115   6.872  22.516  0.00  0.00    +0.210 HD
ENDBRANCH  43  47
BRANCH  44  49
ATOM     49  O   UNL     1      10.551   3.272  22.707  0.00  0.00    -0.383 OA
ATOM     50  H   UNL     1       9.828   3.110  22.072  0.00  0.00    +0.210 HD
ENDBRANCH  44  49
ENDBRANCH  38  39
ENDBRANCH   6  38
TORSDOF 14
ENDMDL
MODEL 8
REMARK VINA RESULT:      -6.9      2.370      9.431
REMARK  Name = 
REMARK  15 active torsions:
REMARK  status: ('A' for Active; 'I' for Inactive)
REMARK    1  A    between atoms: C_1  and  C_2
REMARK    2  A    between atoms: C_3  and  O_46
REMARK    3  A    between atoms: C_5  and  O_45
REMARK    4  A    between atoms: C_7  and  O_44
REMARK    5  A    between atoms: C_8  and  O_11
REMARK    6  A    between atoms: O_11  and  C_12
REMARK    7  A    between atoms: C_14  and  O_43
REMARK    8  A    between atoms: C_19  and  C_35
REMARK    9  A    between atoms: C_20  and  O_23
REMARK   10  A    between atoms: O_23  and  C_24
REMARK   11  A    between atoms: C_26  and  O_34
REMARK   12  A    between atoms: C_27  and  O_33
REMARK   13  A    between atoms: C_28  and  O_32
REMARK   14  A    between atoms: C_37  and  O_42
REMARK   15  A    between atoms: C_38  and  O_41
REMARK                            x       y       z     vdW  Elec       q    Type
REMARK                         _______ _______ _______ _____ _____    ______ ____
ROOT
ATOM      1  C   UNL     1       8.260   0.994  23.864  0.00  0.00    +0.131 A 
ATOM      2  C   UNL     1       7.184   0.120  23.625  0.00  0.00    +0.093 A 
ATOM      3  C   UNL     1       6.893  -0.911  24.530  0.00  0.00    +0.147 A 
ATOM      4  O   UNL     1       5.860  -1.783  24.258  0.00  0.00    -0.451 OA
ATOM      5  C   UNL     1       5.407  -2.657  25.275  0.00  0.00    +0.181 A 
ATOM      6  C   UNL     1       6.131  -2.897  26.404  0.00  0.00    +0.214 A 
ATOM      7  C   UNL     1       7.497  -2.288  26.413  0.00  0.00    +0.238 A 
ATOM      8  O   UNL     1       8.475  -2.816  26.927  0.00  0.00    -0.283 OA
ATOM      9  C   UNL     1       7.686  -1.063  25.653  0.00  0.00    +0.109 A 
ATOM     10  C   UNL     1       8.710  -0.156  25.941  0.00  0.00    +0.135 A 
ATOM     11  C   UNL     1       8.990   0.869  25.048  0.00  0.00    +0.092 A 
ENDROOT
BRANCH   5  12
ATOM     12  C   UNL     1       4.086  -3.307  24.929  0.00  0.00    +0.025 A 
ATOM     13  C   UNL     1       2.878  -2.995  25.583  0.00  0.00    +0.015 A 
ATOM     14  C   UNL     1       1.661  -3.619  25.278  0.00  0.00    +0.050 A 
ATOM     15  C   UNL     1       1.633  -4.591  24.303  0.00  0.00    +0.158 A 
ATOM     16  C   UNL     1       2.801  -4.951  23.645  0.00  0.00    +0.159 A 
ATOM     17  C   UNL     1       4.016  -4.322  23.948  0.00  0.00    +0.060 A 
BRANCH  15  18
ATOM     18  O   UNL     1       0.448  -5.199  24.006  0.00  0.00    -0.503 OA
ATOM     19  H   UNL     1       0.691  -5.940  23.417  0.00  0.00    +0.292 HD
ENDBRANCH  15  18
BRANCH  16  20
ATOM     20  O   UNL     1       2.708  -5.947  22.710  0.00  0.00    -0.503 OA
ATOM     21  H   UNL     1       2.048  -5.684  22.048  0.00  0.00    +0.292 HD
ENDBRANCH  16  20
ENDBRANCH   5  12
BRANCH  10  22
ATOM     22  O   UNL     1       9.419  -0.244  27.103  0.00  0.00    -0.506 OA
ATOM     23  H   UNL     1       9.026  -0.921  27.679  0.00  0.00    +0.292 HD
ENDBRANCH  10  22
BRANCH   1  24
ATOM     24  O   UNL     1       8.716   1.989  23.055  0.00  0.00    -0.461 OA
BRANCH  24  28
ATOM     25  C   UNL     1       8.424   5.409  25.648  0.00  0.00    +0.041 C 
ATOM     26  C   UNL     1       7.239   4.784  24.918  0.00  0.00    +0.150 C 
ATOM     27  O   UNL     1       7.565   3.446  24.510  0.00  0.00    -0.334 OA
ATOM     28  C   UNL     1       8.502   3.352  23.431  0.00  0.00    +0.339 C 
ATOM     29  C   UNL     1       7.910   4.058  22.189  0.00  0.00    +0.214 C 
ATOM     30  C   UNL     1       7.685   5.536  22.538  0.00  0.00    +0.180 C 
ATOM     31  C   UNL     1       6.742   5.656  23.748  0.00  0.00    +0.174 C 
BRANCH  29  32
ATOM     32  O   UNL     1       6.644   3.442  21.847  0.00  0.00    -0.383 OA
ATOM     33  H   UNL     1       6.804   2.478  21.827  0.00  0.00    +0.210 HD
ENDBRANCH  29  32
BRANCH  30  34
ATOM     34  O   UNL     1       7.204   6.265  21.407  0.00  0.00    -0.386 OA
ATOM     35  H   UNL     1       7.614   5.887  20.607  0.00  0.00    +0.210 HD
ENDBRANCH  30  34
BRANCH  31  36
ATOM     36  O   UNL     1       5.410   5.264  23.381  0.00  0.00    -0.387 OA
ATOM     37  H   UNL     1       5.497   4.482  22.791  0.00  0.00    +0.210 HD
ENDBRANCH  31  36
ENDBRANCH  24  28
ENDBRANCH   1  24
BRANCH   6  38
ATOM     38  O   UNL     1       5.656  -3.649  27.483  0.00  0.00    -0.453 OA
BRANCH  38  39
ATOM     39  C   UNL     1       5.292  -5.023  27.254  0.00  0.00    +0.339 C 
ATOM     40  O   UNL     1       3.948  -5.277  27.652  0.00  0.00    -0.337 OA
ATOM     41  C   UNL     1       3.747  -5.483  29.050  0.00  0.00    +0.198 C 
ATOM     42  C   UNL     1       4.590  -6.635  29.584  0.00  0.00    +0.171 C 
ATOM     43  C   UNL     1       6.063  -6.323  29.350  0.00  0.00    +0.180 C 
ATOM     44  C   UNL     1       6.321  -6.000  27.878  0.00  0.00    +0.214 C 
BRANCH  42  45
ATOM     45  O   UNL     1       4.246  -7.851  28.905  0.00  0.00    -0.387 OA
ATOM     46  H   UNL     1       4.855  -8.530  29.255  0.00  0.00    +0.210 HD
ENDBRANCH  42  45
BRANCH  43  47
ATOM     47  O   UNL     1       6.826  -7.477  29.759  0.00  0.00    -0.386 OA
ATOM     48  H   UNL     1       7.184  -7.291  30.649  0.00  0.00    +0.210 HD
ENDBRANCH  43  47
BRANCH  44  49
ATOM     49  O   UNL     1       7.680  -5.554  27.724  0.00  0.00    -0.383 OA
ATOM     50  H   UNL     1       7.930  -5.107  28.554  0.00  0.00    +0.210 HD
ENDBRANCH  44  49
ENDBRANCH  38  39
ENDBRANCH   6  38
TORSDOF 14
ENDMDL
MODEL 9
REMARK VINA RESULT:      -6.8      1.724      2.296
REMARK  Name = 
REMARK  15 active torsions:
REMARK  status: ('A' for Active; 'I' for Inactive)
REMARK    1  A    between atoms: C_1  and  C_2
REMARK    2  A    between atoms: C_3  and  O_46
REMARK    3  A    between atoms: C_5  and  O_45
REMARK    4  A    between atoms: C_7  and  O_44
REMARK    5  A    between atoms: C_8  and  O_11
REMARK    6  A    between atoms: O_11  and  C_12
REMARK    7  A    between atoms: C_14  and  O_43
REMARK    8  A    between atoms: C_19  and  C_35
REMARK    9  A    between atoms: C_20  and  O_23
REMARK   10  A    between atoms: O_23  and  C_24
REMARK   11  A    between atoms: C_26  and  O_34
REMARK   12  A    between atoms: C_27  and  O_33
REMARK   13  A    between atoms: C_28  and  O_32
REMARK   14  A    between atoms: C_37  and  O_42
REMARK   15  A    between atoms: C_38  and  O_41
REMARK                            x       y       z     vdW  Elec       q    Type
REMARK                         _______ _______ _______ _____ _____    ______ ____
ROOT
ATOM      1  C   UNL     1       6.852  -3.674  23.887  0.00  0.00    +0.131 A 
ATOM      2  C   UNL     1       6.553  -2.631  24.782  0.00  0.00    +0.093 A 
ATOM      3  C   UNL     1       7.109  -1.357  24.598  0.00  0.00    +0.147 A 
ATOM      4  O   UNL     1       6.837  -0.357  25.508  0.00  0.00    -0.451 OA
ATOM      5  C   UNL     1       7.187   0.978  25.194  0.00  0.00    +0.181 A 
ATOM      6  C   UNL     1       8.045   1.287  24.183  0.00  0.00    +0.214 A 
ATOM      7  C   UNL     1       8.700   0.108  23.535  0.00  0.00    +0.238 A 
ATOM      8  O   UNL     1       9.851   0.114  23.114  0.00  0.00    -0.283 OA
ATOM      9  C   UNL     1       7.964  -1.145  23.531  0.00  0.00    +0.109 A 
ATOM     10  C   UNL     1       8.209  -2.151  22.592  0.00  0.00    +0.135 A 
ATOM     11  C   UNL     1       7.650  -3.410  22.772  0.00  0.00    +0.092 A 
ENDROOT
BRANCH   5  12
ATOM     12  C   UNL     1       6.545   1.976  26.132  0.00  0.00    +0.025 A 
ATOM     13  C   UNL     1       5.336   2.640  25.842  0.00  0.00    +0.015 A 
ATOM     14  C   UNL     1       4.759   3.585  26.702  0.00  0.00    +0.050 A 
ATOM     15  C   UNL     1       5.397   3.894  27.882  0.00  0.00    +0.158 A 
ATOM     16  C   UNL     1       6.602   3.283  28.203  0.00  0.00    +0.159 A 
ATOM     17  C   UNL     1       7.175   2.335  27.344  0.00  0.00    +0.060 A 
BRANCH  15  18
ATOM     18  O   UNL     1       4.836   4.813  28.718  0.00  0.00    -0.503 OA
ATOM     19  H   UNL     1       4.281   5.370  28.138  0.00  0.00    +0.292 HD
ENDBRANCH  15  18
BRANCH  16  20
ATOM     20  O   UNL     1       7.198   3.661  29.376  0.00  0.00    -0.503 OA
ATOM     21  H   UNL     1       6.960   4.584  29.558  0.00  0.00    +0.292 HD
ENDBRANCH  16  20
ENDBRANCH   5  12
BRANCH  10  22
ATOM     22  O   UNL     1       8.964  -1.907  21.483  0.00  0.00    -0.506 OA
ATOM     23  H   UNL     1       8.772  -2.570  20.800  0.00  0.00    +0.292 HD
ENDBRANCH  10  22
BRANCH   1  24
ATOM     24  O   UNL     1       6.457  -4.975  23.968  0.00  0.00    -0.461 OA
BRANCH  24  28
ATOM     25  C   UNL     1       3.463  -6.315  26.750  0.00  0.00    +0.041 C 
ATOM     26  C   UNL     1       3.809  -7.037  25.450  0.00  0.00    +0.150 C 
ATOM     27  O   UNL     1       5.100  -6.615  24.985  0.00  0.00    -0.334 OA
ATOM     28  C   UNL     1       5.152  -5.282  24.462  0.00  0.00    +0.339 C 
ATOM     29  C   UNL     1       4.194  -5.180  23.253  0.00  0.00    +0.214 C 
ATOM     30  C   UNL     1       2.769  -5.479  23.741  0.00  0.00    +0.180 C 
ATOM     31  C   UNL     1       2.711  -6.878  24.379  0.00  0.00    +0.174 C 
BRANCH  29  32
ATOM     32  O   UNL     1       4.578  -6.157  22.253  0.00  0.00    -0.383 OA
ATOM     33  H   UNL     1       5.548  -6.079  22.153  0.00  0.00    +0.210 HD
ENDBRANCH  29  32
BRANCH  30  34
ATOM     34  O   UNL     1       1.820  -5.332  22.683  0.00  0.00    -0.386 OA
ATOM     35  H   UNL     1       1.074  -4.800  23.018  0.00  0.00    +0.210 HD
ENDBRANCH  30  34
BRANCH  31  36
ATOM     36  O   UNL     1       2.865  -7.891  23.373  0.00  0.00    -0.387 OA
ATOM     37  H   UNL     1       2.438  -7.547  22.556  0.00  0.00    +0.210 HD
ENDBRANCH  31  36
ENDBRANCH  24  28
ENDBRANCH   1  24
BRANCH   6  38
ATOM     38  O   UNL     1       8.308   2.595  23.763  0.00  0.00    -0.453 OA
BRANCH  38  39
ATOM     39  C   UNL     1       9.140   3.426  24.592  0.00  0.00    +0.339 C 
ATOM     40  O   UNL     1       8.408   4.527  25.123  0.00  0.00    -0.337 OA
ATOM     41  C   UNL     1       8.228   5.633  24.239  0.00  0.00    +0.198 C 
ATOM     42  C   UNL     1       9.557   6.187  23.741  0.00  0.00    +0.171 C 
ATOM     43  C   UNL     1      10.304   5.090  22.994  0.00  0.00    +0.180 C 
ATOM     44  C   UNL     1      10.445   3.841  23.863  0.00  0.00    +0.214 C 
BRANCH  42  45
ATOM     45  O   UNL     1      10.350   6.635  24.849  0.00  0.00    -0.387 OA
ATOM     46  H   UNL     1      10.066   7.552  25.024  0.00  0.00    +0.210 HD
ENDBRANCH  42  45
BRANCH  43  47
ATOM     47  O   UNL     1      11.602   5.609  22.634  0.00  0.00    -0.386 OA
ATOM     48  H   UNL     1      11.461   6.465  22.186  0.00  0.00    +0.210 HD
ENDBRANCH  43  47
BRANCH  44  49
ATOM     49  O   UNL     1      11.006   2.777  23.075  0.00  0.00    -0.383 OA
ATOM     50  H   UNL     1      10.259   2.264  22.712  0.00  0.00    +0.210 HD
ENDBRANCH  44  49
ENDBRANCH  38  39
ENDBRANCH   6  38
TORSDOF 14
ENDMDL
