MODEL 1
REMARK VINA RESULT:      -7.6      0.000      0.000
REMARK  Name = 
REMARK  18 active torsions:
REMARK  status: ('A' for Active; 'I' for Inactive)
REMARK    1  A    between atoms: C_3  and  O_38
REMARK    2  A    between atoms: C_4  and  O_37
REMARK    3  A    between atoms: C_6  and  C_7
REMARK    4  A    between atoms: C_8  and  O_20
REMARK    5  A    between atoms: C_12  and  O_19
REMARK    6  A    between atoms: C_14  and  O_18
REMARK    7  A    between atoms: O_20  and  C_21
REMARK    8  A    between atoms: C_23  and  O_36
REMARK    9  A    between atoms: C_25  and  O_35
REMARK   10  A    between atoms: C_27  and  O_34
REMARK   11  A    between atoms: C_29  and  C_32
REMARK   12  A    between atoms: C_32  and  O_33
REMARK   13  A    between atoms: O_38  and  C_39
REMARK   14  A    between atoms: C_41  and  O_54
REMARK   15  A    between atoms: C_43  and  O_53
REMARK   16  A    between atoms: C_45  and  O_52
REMARK   17  A    between atoms: C_47  and  C_50
REMARK   18  A    between atoms: C_50  and  O_51
REMARK                            x       y       z     vdW  Elec       q    Type
REMARK                         _______ _______ _______ _____ _____    ______ ____
ROOT
ATOM      1  C   UNL     1       8.935   2.077  23.929  0.00  0.00    +0.181 A 
ATOM      2  O   UNL     1      10.184   2.400  23.374  0.00  0.00    -0.451 OA
ATOM      3  C   UNL     1      10.741   3.628  23.607  0.00  0.00    +0.147 A 
ATOM      4  C   UNL     1      10.006   4.692  24.100  0.00  0.00    +0.109 A 
ATOM      5  C   UNL     1      10.608   5.954  24.201  0.00  0.00    +0.135 A 
ATOM      6  C   UNL     1      11.951   6.132  23.856  0.00  0.00    +0.091 A 
ATOM      7  C   UNL     1      12.686   5.038  23.414  0.00  0.00    +0.124 A 
ATOM      8  C   UNL     1       8.633   4.419  24.548  0.00  0.00    +0.238 A 
ATOM      9  O   UNL     1       7.920   5.347  24.918  0.00  0.00    -0.283 OA
ATOM     10  C   UNL     1      12.091   3.788  23.282  0.00  0.00    +0.092 A 
ATOM     11  C   UNL     1       8.186   2.982  24.604  0.00  0.00    +0.214 A 
ENDROOT
BRANCH   1  13
ATOM     12  C   UNL     1       9.602  -0.335  23.961  0.00  0.00    +0.015 A 
ATOM     13  C   UNL     1       8.612   0.626  23.693  0.00  0.00    +0.025 A 
ATOM     14  C   UNL     1       7.389   0.150  23.186  0.00  0.00    +0.060 A 
ATOM     15  C   UNL     1       7.184  -1.216  22.953  0.00  0.00    +0.159 A 
ATOM     16  C   UNL     1       8.215  -2.142  23.131  0.00  0.00    +0.165 A 
ATOM     17  C   UNL     1       9.409  -1.691  23.686  0.00  0.00    +0.050 A 
BRANCH  15  18
ATOM     18  O   UNL     1       5.947  -1.613  22.532  0.00  0.00    -0.503 OA
ATOM     19  H   UNL     1       5.678  -2.348  23.115  0.00  0.00    +0.292 HD
ENDBRANCH  15  18
BRANCH  16  20
ATOM     20  O   UNL     1       8.011  -3.449  22.735  0.00  0.00    -0.457 OA
BRANCH  20  21
ATOM     21  C   UNL     1       7.827  -4.351  23.861  0.00  0.00    +0.339 C 
ATOM     22  O   UNL     1       7.170  -5.548  23.448  0.00  0.00    -0.331 OA
ATOM     23  C   UNL     1       5.878  -5.890  23.943  0.00  0.00    +0.179 C 
ATOM     24  C   UNL     1       5.578  -5.390  25.367  0.00  0.00    +0.177 C 
ATOM     25  C   UNL     1       5.808  -3.885  25.450  0.00  0.00    +0.180 C 
ATOM     26  C   UNL     1       7.262  -3.576  25.086  0.00  0.00    +0.214 C 
BRANCH  26  27
ATOM     27  O   UNL     1       8.079  -3.887  26.239  0.00  0.00    -0.383 OA
ATOM     28  H   UNL     1       8.322  -4.836  26.148  0.00  0.00    +0.210 HD
ENDBRANCH  26  27
BRANCH  25  29
ATOM     29  O   UNL     1       4.848  -3.198  24.652  0.00  0.00    -0.386 OA
ATOM     30  H   UNL     1       5.196  -3.090  23.748  0.00  0.00    +0.210 HD
ENDBRANCH  25  29
BRANCH  24  31
ATOM     31  O   UNL     1       6.454  -6.042  26.307  0.00  0.00    -0.386 OA
ATOM     32  H   UNL     1       7.259  -5.492  26.374  0.00  0.00    +0.210 HD
ENDBRANCH  24  31
BRANCH  23  33
ATOM     33  C   UNL     1       4.814  -5.519  22.897  0.00  0.00    +0.190 C 
BRANCH  33  34
ATOM     34  O   UNL     1       5.255  -4.476  22.035  0.00  0.00    -0.392 OA
ATOM     35  H   UNL     1       5.255  -4.828  21.128  0.00  0.00    +0.210 HD
ENDBRANCH  33  34
ENDBRANCH  23  33
ENDBRANCH  20  21
ENDBRANCH  16  20
ENDBRANCH   1  13
BRANCH   7  36
ATOM     36  O   UNL     1      14.005   5.150  23.084  0.00  0.00    -0.507 OA
ATOM     37  H   UNL     1      14.515   5.381  23.878  0.00  0.00    +0.292 HD
ENDBRANCH   7  36
BRANCH   5  38
ATOM     38  O   UNL     1       9.939   7.066  24.634  0.00  0.00    -0.506 OA
ATOM     39  H   UNL     1      10.334   7.856  24.201  0.00  0.00    +0.292 HD
ENDBRANCH   5  38
BRANCH  11  40
ATOM     40  O   UNL     1       7.049   2.722  25.370  0.00  0.00    -0.453 OA
BRANCH  40  41
ATOM     41  C   UNL     1       7.355   2.224  26.687  0.00  0.00    +0.340 C 
ATOM     42  O   UNL     1       7.024   0.839  26.807  0.00  0.00    -0.331 OA
ATOM     43  C   UNL     1       5.906   0.368  27.573  0.00  0.00    +0.179 C 
ATOM     44  C   UNL     1       5.213   1.360  28.526  0.00  0.00    +0.177 C 
ATOM     45  C   UNL     1       5.319   2.798  28.025  0.00  0.00    +0.180 C 
ATOM     46  C   UNL     1       6.791   3.125  27.794  0.00  0.00    +0.214 C 
BRANCH  46  47
ATOM     47  O   UNL     1       7.548   2.932  29.014  0.00  0.00    -0.383 OA
ATOM     48  H   UNL     1       8.140   3.708  29.131  0.00  0.00    +0.210 HD
ENDBRANCH  46  47
BRANCH  45  49
ATOM     49  O   UNL     1       4.499   3.009  26.878  0.00  0.00    -0.386 OA
ATOM     50  H   UNL     1       3.720   3.557  27.094  0.00  0.00    +0.210 HD
ENDBRANCH  45  49
BRANCH  44  51
ATOM     51  O   UNL     1       5.808   1.219  29.832  0.00  0.00    -0.386 OA
ATOM     52  H   UNL     1       6.352   2.014  30.016  0.00  0.00    +0.210 HD
ENDBRANCH  44  51
BRANCH  43  53
ATOM     53  C   UNL     1       4.871  -0.315  26.661  0.00  0.00    +0.190 C 
BRANCH  53  54
ATOM     54  O   UNL     1       4.712   0.362  25.415  0.00  0.00    -0.392 OA
ATOM     55  H   UNL     1       5.170   1.218  25.473  0.00  0.00    +0.210 HD
ENDBRANCH  53  54
ENDBRANCH  43  53
ENDBRANCH  40  41
ENDBRANCH  11  40
TORSDOF 18
ENDMDL
MODEL 2
REMARK VINA RESULT:      -7.1      1.029      2.169
REMARK  Name = 
REMARK  18 active torsions:
REMARK  status: ('A' for Active; 'I' for Inactive)
REMARK    1  A    between atoms: C_3  and  O_38
REMARK    2  A    between atoms: C_4  and  O_37
REMARK    3  A    between atoms: C_6  and  C_7
REMARK    4  A    between atoms: C_8  and  O_20
REMARK    5  A    between atoms: C_12  and  O_19
REMARK    6  A    between atoms: C_14  and  O_18
REMARK    7  A    between atoms: O_20  and  C_21
REMARK    8  A    between atoms: C_23  and  O_36
REMARK    9  A    between atoms: C_25  and  O_35
REMARK   10  A    between atoms: C_27  and  O_34
REMARK   11  A    between atoms: C_29  and  C_32
REMARK   12  A    between atoms: C_32  and  O_33
REMARK   13  A    between atoms: O_38  and  C_39
REMARK   14  A    between atoms: C_41  and  O_54
REMARK   15  A    between atoms: C_43  and  O_53
REMARK   16  A    between atoms: C_45  and  O_52
REMARK   17  A    between atoms: C_47  and  C_50
REMARK   18  A    between atoms: C_50  and  O_51
REMARK                            x       y       z     vdW  Elec       q    Type
REMARK                         _______ _______ _______ _____ _____    ______ ____
ROOT
ATOM      1  C   UNL     1       8.983   2.109  23.811  0.00  0.00    +0.181 A 
ATOM      2  O   UNL     1      10.242   2.444  23.287  0.00  0.00    -0.451 OA
ATOM      3  C   UNL     1      10.786   3.673  23.545  0.00  0.00    +0.147 A 
ATOM      4  C   UNL     1      10.036   4.728  24.033  0.00  0.00    +0.109 A 
ATOM      5  C   UNL     1      10.628   5.992  24.160  0.00  0.00    +0.135 A 
ATOM      6  C   UNL     1      11.977   6.180  23.847  0.00  0.00    +0.091 A 
ATOM      7  C   UNL     1      12.728   5.095  23.410  0.00  0.00    +0.124 A 
ATOM      8  C   UNL     1       8.654   4.443  24.448  0.00  0.00    +0.238 A 
ATOM      9  O   UNL     1       7.928   5.363  24.811  0.00  0.00    -0.283 OA
ATOM     10  C   UNL     1      12.143   3.843  23.252  0.00  0.00    +0.092 A 
ATOM     11  C   UNL     1       8.214   3.002  24.479  0.00  0.00    +0.214 A 
ENDROOT
BRANCH   1  13
ATOM     12  C   UNL     1       7.363   0.309  23.182  0.00  0.00    +0.015 A 
ATOM     13  C   UNL     1       8.673   0.659  23.552  0.00  0.00    +0.025 A 
ATOM     14  C   UNL     1       9.596  -0.394  23.685  0.00  0.00    +0.060 A 
ATOM     15  C   UNL     1       9.213  -1.724  23.467  0.00  0.00    +0.159 A 
ATOM     16  C   UNL     1       7.885  -2.059  23.199  0.00  0.00    +0.165 A 
ATOM     17  C   UNL     1       6.975  -1.023  23.010  0.00  0.00    +0.050 A 
BRANCH  15  18
ATOM     18  O   UNL     1      10.180  -2.686  23.540  0.00  0.00    -0.503 OA
ATOM     19  H   UNL     1      10.988  -2.298  23.154  0.00  0.00    +0.292 HD
ENDBRANCH  15  18
BRANCH  16  20
ATOM     20  O   UNL     1       7.531  -3.393  23.153  0.00  0.00    -0.457 OA
BRANCH  20  21
ATOM     21  C   UNL     1       6.593  -3.759  24.203  0.00  0.00    +0.339 C 
ATOM     22  O   UNL     1       6.637  -2.814  25.270  0.00  0.00    -0.331 OA
ATOM     23  C   UNL     1       7.069  -3.193  26.575  0.00  0.00    +0.179 C 
ATOM     24  C   UNL     1       6.774  -4.655  26.953  0.00  0.00    +0.177 C 
ATOM     25  C   UNL     1       7.350  -5.593  25.899  0.00  0.00    +0.180 C 
ATOM     26  C   UNL     1       6.724  -5.271  24.540  0.00  0.00    +0.214 C 
BRANCH  26  27
ATOM     27  O   UNL     1       5.402  -5.860  24.516  0.00  0.00    -0.383 OA
ATOM     28  H   UNL     1       5.461  -6.675  25.065  0.00  0.00    +0.210 HD
ENDBRANCH  26  27
BRANCH  25  29
ATOM     29  O   UNL     1       8.774  -5.531  25.914  0.00  0.00    -0.386 OA
ATOM     30  H   UNL     1       9.106  -5.922  26.744  0.00  0.00    +0.210 HD
ENDBRANCH  25  29
BRANCH  24  31
ATOM     31  O   UNL     1       5.350  -4.862  27.024  0.00  0.00    -0.386 OA
ATOM     32  H   UNL     1       5.133  -5.022  27.963  0.00  0.00    +0.210 HD
ENDBRANCH  24  31
BRANCH  23  33
ATOM     33  C   UNL     1       8.531  -2.762  26.776  0.00  0.00    +0.190 C 
BRANCH  33  34
ATOM     34  O   UNL     1       8.666  -1.347  26.843  0.00  0.00    -0.392 OA
ATOM     35  H   UNL     1       9.528  -1.156  27.253  0.00  0.00    +0.210 HD
ENDBRANCH  33  34
ENDBRANCH  23  33
ENDBRANCH  20  21
ENDBRANCH  16  20
ENDBRANCH   1  13
BRANCH   7  36
ATOM     36  O   UNL     1      14.053   5.217  23.110  0.00  0.00    -0.507 OA
ATOM     37  H   UNL     1      14.549   5.402  23.925  0.00  0.00    +0.292 HD
ENDBRANCH   7  36
BRANCH   5  38
ATOM     38  O   UNL     1       9.943   7.096  24.590  0.00  0.00    -0.506 OA
ATOM     39  H   UNL     1      10.468   7.896  24.362  0.00  0.00    +0.292 HD
ENDBRANCH   5  38
BRANCH  11  40
ATOM     40  O   UNL     1       7.062   2.729  25.216  0.00  0.00    -0.453 OA
BRANCH  40  41
ATOM     41  C   UNL     1       7.341   2.265  26.552  0.00  0.00    +0.340 C 
ATOM     42  O   UNL     1       6.948   0.902  26.719  0.00  0.00    -0.331 OA
ATOM     43  C   UNL     1       5.807   0.509  27.496  0.00  0.00    +0.179 C 
ATOM     44  C   UNL     1       5.157   1.565  28.411  0.00  0.00    +0.177 C 
ATOM     45  C   UNL     1       5.329   2.978  27.859  0.00  0.00    +0.180 C 
ATOM     46  C   UNL     1       6.815   3.229  27.623  0.00  0.00    +0.214 C 
BRANCH  46  47
ATOM     47  O   UNL     1       7.559   3.046  28.853  0.00  0.00    -0.383 OA
ATOM     48  H   UNL     1       7.566   3.903  29.335  0.00  0.00    +0.210 HD
ENDBRANCH  46  47
BRANCH  45  49
ATOM     49  O   UNL     1       4.524   3.184  26.702  0.00  0.00    -0.386 OA
ATOM     50  H   UNL     1       3.705   2.652  26.740  0.00  0.00    +0.210 HD
ENDBRANCH  45  49
BRANCH  44  51
ATOM     51  O   UNL     1       5.741   1.444  29.723  0.00  0.00    -0.386 OA
ATOM     52  H   UNL     1       5.443   0.600  30.122  0.00  0.00    +0.210 HD
ENDBRANCH  44  51
BRANCH  43  53
ATOM     53  C   UNL     1       4.744  -0.159  26.604  0.00  0.00    +0.190 C 
BRANCH  53  54
ATOM     54  O   UNL     1       4.573   0.520  25.361  0.00  0.00    -0.392 OA
ATOM     55  H   UNL     1       5.311   1.143  25.250  0.00  0.00    +0.210 HD
ENDBRANCH  53  54
ENDBRANCH  43  53
ENDBRANCH  40  41
ENDBRANCH  11  40
TORSDOF 18
ENDMDL
MODEL 3
REMARK VINA RESULT:      -7.1      1.306      2.279
REMARK  Name = 
REMARK  18 active torsions:
REMARK  status: ('A' for Active; 'I' for Inactive)
REMARK    1  A    between atoms: C_3  and  O_38
REMARK    2  A    between atoms: C_4  and  O_37
REMARK    3  A    between atoms: C_6  and  C_7
REMARK    4  A    between atoms: C_8  and  O_20
REMARK    5  A    between atoms: C_12  and  O_19
REMARK    6  A    between atoms: C_14  and  O_18
REMARK    7  A    between atoms: O_20  and  C_21
REMARK    8  A    between atoms: C_23  and  O_36
REMARK    9  A    between atoms: C_25  and  O_35
REMARK   10  A    between atoms: C_27  and  O_34
REMARK   11  A    between atoms: C_29  and  C_32
REMARK   12  A    between atoms: C_32  and  O_33
REMARK   13  A    between atoms: O_38  and  C_39
REMARK   14  A    between atoms: C_41  and  O_54
REMARK   15  A    between atoms: C_43  and  O_53
REMARK   16  A    between atoms: C_45  and  O_52
REMARK   17  A    between atoms: C_47  and  C_50
REMARK   18  A    between atoms: C_50  and  O_51
REMARK                            x       y       z     vdW  Elec       q    Type
REMARK                         _______ _______ _______ _____ _____    ______ ____
ROOT
ATOM      1  C   UNL     1       8.616   1.684  23.775  0.00  0.00    +0.181 A 
ATOM      2  O   UNL     1       9.947   1.988  23.449  0.00  0.00    -0.451 OA
ATOM      3  C   UNL     1      10.392   3.280  23.522  0.00  0.00    +0.147 A 
ATOM      4  C   UNL     1       9.528   4.358  23.595  0.00  0.00    +0.109 A 
ATOM      5  C   UNL     1      10.047   5.659  23.545  0.00  0.00    +0.135 A 
ATOM      6  C   UNL     1      11.426   5.873  23.471  0.00  0.00    +0.091 A 
ATOM      7  C   UNL     1      12.281   4.777  23.453  0.00  0.00    +0.124 A 
ATOM      8  C   UNL     1       8.098   4.070  23.782  0.00  0.00    +0.238 A 
ATOM      9  O   UNL     1       7.288   4.991  23.773  0.00  0.00    -0.283 OA
ATOM     10  C   UNL     1      11.775   3.481  23.472  0.00  0.00    +0.092 A 
ATOM     11  C   UNL     1       7.700   2.643  24.054  0.00  0.00    +0.214 A 
ENDROOT
BRANCH   1  13
ATOM     12  C   UNL     1       7.969  -0.442  22.624  0.00  0.00    +0.015 A 
ATOM     13  C   UNL     1       8.405   0.193  23.799  0.00  0.00    +0.025 A 
ATOM     14  C   UNL     1       8.582  -0.622  24.931  0.00  0.00    +0.060 A 
ATOM     15  C   UNL     1       8.322  -1.998  24.880  0.00  0.00    +0.159 A 
ATOM     16  C   UNL     1       7.793  -2.591  23.732  0.00  0.00    +0.165 A 
ATOM     17  C   UNL     1       7.668  -1.806  22.589  0.00  0.00    +0.050 A 
BRANCH  15  18
ATOM     18  O   UNL     1       8.588  -2.740  25.995  0.00  0.00    -0.503 OA
ATOM     19  H   UNL     1       9.237  -3.418  25.730  0.00  0.00    +0.292 HD
ENDBRANCH  15  18
BRANCH  16  20
ATOM     20  O   UNL     1       7.404  -3.915  23.785  0.00  0.00    -0.457 OA
BRANCH  20  21
ATOM     21  C   UNL     1       6.064  -4.125  23.260  0.00  0.00    +0.339 C 
ATOM     22  O   UNL     1       5.108  -3.370  24.002  0.00  0.00    -0.331 OA
ATOM     23  C   UNL     1       4.087  -4.014  24.761  0.00  0.00    +0.179 C 
ATOM     24  C   UNL     1       3.618  -5.366  24.196  0.00  0.00    +0.177 C 
ATOM     25  C   UNL     1       4.813  -6.293  24.002  0.00  0.00    +0.180 C 
ATOM     26  C   UNL     1       5.804  -5.641  23.034  0.00  0.00    +0.214 C 
BRANCH  26  27
ATOM     27  O   UNL     1       5.292  -5.822  21.694  0.00  0.00    -0.383 OA
ATOM     28  H   UNL     1       4.631  -6.549  21.754  0.00  0.00    +0.210 HD
ENDBRANCH  26  27
BRANCH  25  29
ATOM     29  O   UNL     1       5.373  -6.641  25.265  0.00  0.00    -0.386 OA
ATOM     30  H   UNL     1       4.673  -6.631  25.943  0.00  0.00    +0.210 HD
ENDBRANCH  25  29
BRANCH  24  31
ATOM     31  O   UNL     1       2.978  -5.167  22.921  0.00  0.00    -0.386 OA
ATOM     32  H   UNL     1       2.252  -4.529  23.064  0.00  0.00    +0.210 HD
ENDBRANCH  24  31
BRANCH  23  33
ATOM     33  C   UNL     1       4.493  -4.045  26.243  0.00  0.00    +0.190 C 
BRANCH  33  34
ATOM     34  O   UNL     1       5.906  -3.994  26.409  0.00  0.00    -0.392 OA
ATOM     35  H   UNL     1       6.244  -4.902  26.308  0.00  0.00    +0.210 HD
ENDBRANCH  33  34
ENDBRANCH  23  33
ENDBRANCH  20  21
ENDBRANCH  16  20
ENDBRANCH   1  13
BRANCH   7  36
ATOM     36  O   UNL     1      13.635   4.927  23.402  0.00  0.00    -0.507 OA
ATOM     37  H   UNL     1      14.017   4.672  24.259  0.00  0.00    +0.292 HD
ENDBRANCH   7  36
BRANCH   5  38
ATOM     38  O   UNL     1       9.258   6.777  23.566  0.00  0.00    -0.506 OA
ATOM     39  H   UNL     1       9.141   7.092  22.641  0.00  0.00    +0.292 HD
ENDBRANCH   5  38
BRANCH  11  40
ATOM     40  O   UNL     1       6.427   2.453  24.591  0.00  0.00    -0.453 OA
BRANCH  40  41
ATOM     41  C   UNL     1       6.386   2.607  26.023  0.00  0.00    +0.340 C 
ATOM     42  O   UNL     1       6.499   1.345  26.683  0.00  0.00    -0.331 OA
ATOM     43  C   UNL     1       5.396   0.713  27.350  0.00  0.00    +0.179 C 
ATOM     44  C   UNL     1       4.130   1.552  27.608  0.00  0.00    +0.177 C 
ATOM     45  C   UNL     1       3.939   2.634  26.548  0.00  0.00    +0.180 C 
ATOM     46  C   UNL     1       5.209   3.478  26.481  0.00  0.00    +0.214 C 
BRANCH  46  47
ATOM     47  O   UNL     1       5.501   4.053  27.778  0.00  0.00    -0.383 OA
ATOM     48  H   UNL     1       6.298   3.604  28.138  0.00  0.00    +0.210 HD
ENDBRANCH  46  47
BRANCH  45  49
ATOM     49  O   UNL     1       3.560   2.070  25.295  0.00  0.00    -0.386 OA
ATOM     50  H   UNL     1       3.588   1.093  25.323  0.00  0.00    +0.210 HD
ENDBRANCH  45  49
BRANCH  44  51
ATOM     51  O   UNL     1       4.234   2.128  28.926  0.00  0.00    -0.386 OA
ATOM     52  H   UNL     1       5.104   1.886  29.306  0.00  0.00    +0.210 HD
ENDBRANCH  44  51
BRANCH  43  53
ATOM     53  C   UNL     1       5.031  -0.614  26.661  0.00  0.00    +0.190 C 
BRANCH  53  54
ATOM     54  O   UNL     1       5.100  -0.526  25.238  0.00  0.00    -0.392 OA
ATOM     55  H   UNL     1       6.020  -0.689  24.967  0.00  0.00    +0.210 HD
ENDBRANCH  53  54
ENDBRANCH  43  53
ENDBRANCH  40  41
ENDBRANCH  11  40
TORSDOF 18
ENDMDL
MODEL 4
REMARK VINA RESULT:      -7.0      1.522      8.061
REMARK  Name = 
REMARK  18 active torsions:
REMARK  status: ('A' for Active; 'I' for Inactive)
REMARK    1  A    between atoms: C_3  and  O_38
REMARK    2  A    between atoms: C_4  and  O_37
REMARK    3  A    between atoms: C_6  and  C_7
REMARK    4  A    between atoms: C_8  and  O_20
REMARK    5  A    between atoms: C_12  and  O_19
REMARK    6  A    between atoms: C_14  and  O_18
REMARK    7  A    between atoms: O_20  and  C_21
REMARK    8  A    between atoms: C_23  and  O_36
REMARK    9  A    between atoms: C_25  and  O_35
REMARK   10  A    between atoms: C_27  and  O_34
REMARK   11  A    between atoms: C_29  and  C_32
REMARK   12  A    between atoms: C_32  and  O_33
REMARK   13  A    between atoms: O_38  and  C_39
REMARK   14  A    between atoms: C_41  and  O_54
REMARK   15  A    between atoms: C_43  and  O_53
REMARK   16  A    between atoms: C_45  and  O_52
REMARK   17  A    between atoms: C_47  and  C_50
REMARK   18  A    between atoms: C_50  and  O_51
REMARK                            x       y       z     vdW  Elec       q    Type
REMARK                         _______ _______ _______ _____ _____    ______ ____
ROOT
ATOM      1  C   UNL     1       8.047  -1.826  23.969  0.00  0.00    +0.181 A 
ATOM      2  O   UNL     1       7.916  -2.716  22.891  0.00  0.00    -0.451 OA
ATOM      3  C   UNL     1       7.140  -3.836  23.018  0.00  0.00    +0.147 A 
ATOM      4  C   UNL     1       6.724  -4.313  24.248  0.00  0.00    +0.109 A 
ATOM      5  C   UNL     1       6.034  -5.532  24.315  0.00  0.00    +0.135 A 
ATOM      6  C   UNL     1       5.722  -6.238  23.150  0.00  0.00    +0.091 A 
ATOM      7  C   UNL     1       6.102  -5.714  21.919  0.00  0.00    +0.124 A 
ATOM      8  C   UNL     1       6.985  -3.472  25.426  0.00  0.00    +0.238 A 
ATOM      9  O   UNL     1       6.705  -3.891  26.545  0.00  0.00    -0.283 OA
ATOM     10  C   UNL     1       6.813  -4.522  21.844  0.00  0.00    +0.092 A 
ATOM     11  C   UNL     1       7.524  -2.085  25.191  0.00  0.00    +0.214 A 
ENDROOT
BRANCH   1  13
ATOM     12  C   UNL     1       9.977  -0.253  24.218  0.00  0.00    +0.015 A 
ATOM     13  C   UNL     1       8.791  -0.588  23.544  0.00  0.00    +0.025 A 
ATOM     14  C   UNL     1       8.368   0.292  22.531  0.00  0.00    +0.060 A 
ATOM     15  C   UNL     1       9.098   1.448  22.226  0.00  0.00    +0.159 A 
ATOM     16  C   UNL     1      10.218   1.815  22.975  0.00  0.00    +0.165 A 
ATOM     17  C   UNL     1      10.678   0.924  23.942  0.00  0.00    +0.050 A 
BRANCH  15  18
ATOM     18  O   UNL     1       8.671   2.215  21.180  0.00  0.00    -0.503 OA
ATOM     19  H   UNL     1       8.994   3.120  21.349  0.00  0.00    +0.292 HD
ENDBRANCH  15  18
BRANCH  16  20
ATOM     20  O   UNL     1      10.805   3.042  22.739  0.00  0.00    -0.457 OA
BRANCH  20  21
ATOM     21  C   UNL     1      10.716   3.933  23.885  0.00  0.00    +0.339 C 
ATOM     22  O   UNL     1       9.591   3.600  24.697  0.00  0.00    -0.331 OA
ATOM     23  C   UNL     1       8.507   4.511  24.867  0.00  0.00    +0.179 C 
ATOM     24  C   UNL     1       8.896   5.998  24.795  0.00  0.00    +0.177 C 
ATOM     25  C   UNL     1       9.640   6.280  23.496  0.00  0.00    +0.180 C 
ATOM     26  C   UNL     1      10.899   5.410  23.435  0.00  0.00    +0.214 C 
BRANCH  26  27
ATOM     27  O   UNL     1      11.897   6.025  24.283  0.00  0.00    -0.383 OA
ATOM     28  H   UNL     1      11.416   6.339  25.082  0.00  0.00    +0.210 HD
ENDBRANCH  26  27
BRANCH  25  29
ATOM     29  O   UNL     1       8.765   6.117  22.384  0.00  0.00    -0.386 OA
ATOM     30  H   UNL     1       8.104   6.834  22.384  0.00  0.00    +0.210 HD
ENDBRANCH  25  29
BRANCH  24  31
ATOM     31  O   UNL     1       9.758   6.330  25.901  0.00  0.00    -0.386 OA
ATOM     32  H   UNL     1       9.241   6.898  26.504  0.00  0.00    +0.210 HD
ENDBRANCH  24  31
BRANCH  23  33
ATOM     33  C   UNL     1       7.348   4.107  23.941  0.00  0.00    +0.190 C 
BRANCH  33  34
ATOM     34  O   UNL     1       6.349   3.365  24.630  0.00  0.00    -0.392 OA
ATOM     35  H   UNL     1       6.559   3.405  25.580  0.00  0.00    +0.210 HD
ENDBRANCH  33  34
ENDBRANCH  23  33
ENDBRANCH  20  21
ENDBRANCH  16  20
ENDBRANCH   1  13
BRANCH   7  36
ATOM     36  O   UNL     1       5.807  -6.351  20.750  0.00  0.00    -0.507 OA
ATOM     37  H   UNL     1       5.011  -5.950  20.360  0.00  0.00    +0.292 HD
ENDBRANCH   7  36
BRANCH   5  38
ATOM     38  O   UNL     1       5.629  -6.094  25.495  0.00  0.00    -0.506 OA
ATOM     39  H   UNL     1       5.841  -7.054  25.471  0.00  0.00    +0.292 HD
ENDBRANCH   5  38
BRANCH  11  40
ATOM     40  O   UNL     1       7.408  -1.194  26.258  0.00  0.00    -0.453 OA
BRANCH  40  41
ATOM     41  C   UNL     1       6.815   0.065  25.884  0.00  0.00    +0.340 C 
ATOM     42  O   UNL     1       7.289   1.128  26.712  0.00  0.00    -0.331 OA
ATOM     43  C   UNL     1       6.476   1.759  27.712  0.00  0.00    +0.179 C 
ATOM     44  C   UNL     1       4.962   1.477  27.696  0.00  0.00    +0.177 C 
ATOM     45  C   UNL     1       4.647   0.094  27.133  0.00  0.00    +0.180 C 
ATOM     46  C   UNL     1       5.289  -0.027  25.755  0.00  0.00    +0.214 C 
BRANCH  46  47
ATOM     47  O   UNL     1       4.807   1.022  24.880  0.00  0.00    -0.383 OA
ATOM     48  H   UNL     1       4.351   0.599  24.119  0.00  0.00    +0.210 HD
ENDBRANCH  46  47
BRANCH  45  49
ATOM     49  O   UNL     1       5.038  -0.935  28.039  0.00  0.00    -0.386 OA
ATOM     50  H   UNL     1       4.873  -0.673  28.966  0.00  0.00    +0.210 HD
ENDBRANCH  45  49
BRANCH  44  51
ATOM     51  O   UNL     1       4.321   2.512  26.923  0.00  0.00    -0.386 OA
ATOM     52  H   UNL     1       4.889   2.725  26.153  0.00  0.00    +0.210 HD
ENDBRANCH  44  51
BRANCH  43  53
ATOM     53  C   UNL     1       7.055   1.515  29.118  0.00  0.00    +0.190 C 
BRANCH  53  54
ATOM     54  O   UNL     1       8.272   0.771  29.084  0.00  0.00    -0.392 OA
ATOM     55  H   UNL     1       8.784   0.988  29.882  0.00  0.00    +0.210 HD
ENDBRANCH  53  54
ENDBRANCH  43  53
ENDBRANCH  40  41
ENDBRANCH  11  40
TORSDOF 18
ENDMDL
MODEL 5
REMARK VINA RESULT:      -6.8      1.727      3.146
REMARK  Name = 
REMARK  18 active torsions:
REMARK  status: ('A' for Active; 'I' for Inactive)
REMARK    1  A    between atoms: C_3  and  O_38
REMARK    2  A    between atoms: C_4  and  O_37
REMARK    3  A    between atoms: C_6  and  C_7
REMARK    4  A    between atoms: C_8  and  O_20
REMARK    5  A    between atoms: C_12  and  O_19
REMARK    6  A    between atoms: C_14  and  O_18
REMARK    7  A    between atoms: O_20  and  C_21
REMARK    8  A    between atoms: C_23  and  O_36
REMARK    9  A    between atoms: C_25  and  O_35
REMARK   10  A    between atoms: C_27  and  O_34
REMARK   11  A    between atoms: C_29  and  C_32
REMARK   12  A    between atoms: C_32  and  O_33
REMARK   13  A    between atoms: O_38  and  C_39
REMARK   14  A    between atoms: C_41  and  O_54
REMARK   15  A    between atoms: C_43  and  O_53
REMARK   16  A    between atoms: C_45  and  O_52
REMARK   17  A    between atoms: C_47  and  C_50
REMARK   18  A    between atoms: C_50  and  O_51
REMARK                            x       y       z     vdW  Elec       q    Type
REMARK                         _______ _______ _______ _____ _____    ______ ____
ROOT
ATOM      1  C   UNL     1       9.227   1.945  24.402  0.00  0.00    +0.181 A 
ATOM      2  O   UNL     1      10.439   2.252  23.764  0.00  0.00    -0.451 OA
ATOM      3  C   UNL     1      10.919   3.533  23.784  0.00  0.00    +0.147 A 
ATOM      4  C   UNL     1      10.128   4.615  24.126  0.00  0.00    +0.109 A 
ATOM      5  C   UNL     1      10.648   5.912  24.008  0.00  0.00    +0.135 A 
ATOM      6  C   UNL     1      11.968   6.114  23.597  0.00  0.00    +0.091 A 
ATOM      7  C   UNL     1      12.765   5.010  23.310  0.00  0.00    +0.124 A 
ATOM      8  C   UNL     1       8.785   4.333  24.655  0.00  0.00    +0.238 A 
ATOM      9  O   UNL     1       8.021   5.263  24.897  0.00  0.00    -0.283 OA
ATOM     10  C   UNL     1      12.249   3.722  23.395  0.00  0.00    +0.092 A 
ATOM     11  C   UNL     1       8.435   2.898  24.950  0.00  0.00    +0.214 A 
ENDROOT
BRANCH   1  13
ATOM     12  C   UNL     1       8.801  -0.195  23.177  0.00  0.00    +0.015 A 
ATOM     13  C   UNL     1       8.994   0.458  24.407  0.00  0.00    +0.025 A 
ATOM     14  C   UNL     1       8.920  -0.337  25.565  0.00  0.00    +0.060 A 
ATOM     15  C   UNL     1       8.655  -1.711  25.483  0.00  0.00    +0.159 A 
ATOM     16  C   UNL     1       8.367  -2.320  24.260  0.00  0.00    +0.165 A 
ATOM     17  C   UNL     1       8.494  -1.556  23.104  0.00  0.00    +0.050 A 
BRANCH  15  18
ATOM     18  O   UNL     1       8.673  -2.433  26.642  0.00  0.00    -0.503 OA
ATOM     19  H   UNL     1       9.166  -3.253  26.450  0.00  0.00    +0.292 HD
ENDBRANCH  15  18
BRANCH  16  20
ATOM     20  O   UNL     1       7.956  -3.639  24.254  0.00  0.00    -0.457 OA
BRANCH  20  21
ATOM     21  C   UNL     1       6.694  -3.826  23.555  0.00  0.00    +0.339 C 
ATOM     22  O   UNL     1       5.675  -3.008  24.126  0.00  0.00    -0.331 OA
ATOM     23  C   UNL     1       4.534  -3.583  24.760  0.00  0.00    +0.179 C 
ATOM     24  C   UNL     1       4.095  -4.942  24.189  0.00  0.00    +0.177 C 
ATOM     25  C   UNL     1       5.268  -5.916  24.199  0.00  0.00    +0.180 C 
ATOM     26  C   UNL     1       6.409  -5.341  23.355  0.00  0.00    +0.214 C 
BRANCH  26  27
ATOM     27  O   UNL     1       6.079  -5.563  21.964  0.00  0.00    -0.383 OA
ATOM     28  H   UNL     1       5.256  -6.104  21.965  0.00  0.00    +0.210 HD
ENDBRANCH  26  27
BRANCH  25  29
ATOM     29  O   UNL     1       5.635  -6.227  25.540  0.00  0.00    -0.386 OA
ATOM     30  H   UNL     1       5.986  -5.428  25.973  0.00  0.00    +0.210 HD
ENDBRANCH  25  29
BRANCH  24  31
ATOM     31  O   UNL     1       3.646  -4.777  22.830  0.00  0.00    -0.386 OA
ATOM     32  H   UNL     1       4.371  -5.083  22.252  0.00  0.00    +0.210 HD
ENDBRANCH  24  31
BRANCH  23  33
ATOM     33  C   UNL     1       4.731  -3.563  26.285  0.00  0.00    +0.190 C 
BRANCH  33  34
ATOM     34  O   UNL     1       6.103  -3.670  26.647  0.00  0.00    -0.392 OA
ATOM     35  H   UNL     1       6.147  -4.183  27.473  0.00  0.00    +0.210 HD
ENDBRANCH  33  34
ENDBRANCH  23  33
ENDBRANCH  20  21
ENDBRANCH  16  20
ENDBRANCH   1  13
BRANCH   7  36
ATOM     36  O   UNL     1      14.065   5.149  22.925  0.00  0.00    -0.507 OA
ATOM     37  H   UNL     1      14.192   4.712  22.066  0.00  0.00    +0.292 HD
ENDBRANCH   7  36
BRANCH   5  38
ATOM     38  O   UNL     1       9.917   7.035  24.283  0.00  0.00    -0.506 OA
ATOM     39  H   UNL     1       9.475   7.328  23.454  0.00  0.00    +0.292 HD
ENDBRANCH   5  38
BRANCH  11  40
ATOM     40  O   UNL     1       7.334   2.694  25.783  0.00  0.00    -0.453 OA
BRANCH  40  41
ATOM     41  C   UNL     1       6.235   2.040  25.119  0.00  0.00    +0.340 C 
ATOM     42  O   UNL     1       6.319   2.196  23.702  0.00  0.00    -0.331 OA
ATOM     43  C   UNL     1       5.438   3.051  22.959  0.00  0.00    +0.179 C 
ATOM     44  C   UNL     1       4.184   3.592  23.672  0.00  0.00    +0.177 C 
ATOM     45  C   UNL     1       4.407   3.749  25.173  0.00  0.00    +0.180 C 
ATOM     46  C   UNL     1       4.880   2.412  25.736  0.00  0.00    +0.214 C 
BRANCH  46  47
ATOM     47  O   UNL     1       3.911   1.374  25.450  0.00  0.00    -0.383 OA
ATOM     48  H   UNL     1       3.626   0.979  26.304  0.00  0.00    +0.210 HD
ENDBRANCH  46  47
BRANCH  45  49
ATOM     49  O   UNL     1       5.290   4.832  25.456  0.00  0.00    -0.386 OA
ATOM     50  H   UNL     1       4.886   5.690  25.218  0.00  0.00    +0.210 HD
ENDBRANCH  45  49
BRANCH  44  51
ATOM     51  O   UNL     1       3.089   2.695  23.399  0.00  0.00    -0.386 OA
ATOM     52  H   UNL     1       2.885   2.193  24.216  0.00  0.00    +0.210 HD
ENDBRANCH  44  51
BRANCH  43  53
ATOM     53  C   UNL     1       6.222   4.200  22.299  0.00  0.00    +0.190 C 
BRANCH  53  54
ATOM     54  O   UNL     1       5.512   5.437  22.341  0.00  0.00    -0.392 OA
ATOM     55  H   UNL     1       4.700   5.340  21.814  0.00  0.00    +0.210 HD
ENDBRANCH  53  54
ENDBRANCH  43  53
ENDBRANCH  40  41
ENDBRANCH  11  40
TORSDOF 18
ENDMDL
MODEL 6
REMARK VINA RESULT:      -6.4      2.228      9.165
REMARK  Name = 
REMARK  18 active torsions:
REMARK  status: ('A' for Active; 'I' for Inactive)
REMARK    1  A    between atoms: C_3  and  O_38
REMARK    2  A    between atoms: C_4  and  O_37
REMARK    3  A    between atoms: C_6  and  C_7
REMARK    4  A    between atoms: C_8  and  O_20
REMARK    5  A    between atoms: C_12  and  O_19
REMARK    6  A    between atoms: C_14  and  O_18
REMARK    7  A    between atoms: O_20  and  C_21
REMARK    8  A    between atoms: C_23  and  O_36
REMARK    9  A    between atoms: C_25  and  O_35
REMARK   10  A    between atoms: C_27  and  O_34
REMARK   11  A    between atoms: C_29  and  C_32
REMARK   12  A    between atoms: C_32  and  O_33
REMARK   13  A    between atoms: O_38  and  C_39
REMARK   14  A    between atoms: C_41  and  O_54
REMARK   15  A    between atoms: C_43  and  O_53
REMARK   16  A    between atoms: C_45  and  O_52
REMARK   17  A    between atoms: C_47  and  C_50
REMARK   18  A    between atoms: C_50  and  O_51
REMARK                            x       y       z     vdW  Elec       q    Type
REMARK                         _______ _______ _______ _____ _____    ______ ____
ROOT
ATOM      1  C   UNL     1       6.435  -0.910  26.513  0.00  0.00    +0.181 A 
ATOM      2  O   UNL     1       5.296  -1.495  27.089  0.00  0.00    -0.451 OA
ATOM      3  C   UNL     1       5.306  -2.819  27.435  0.00  0.00    +0.147 A 
ATOM      4  C   UNL     1       6.263  -3.700  26.964  0.00  0.00    +0.109 A 
ATOM      5  C   UNL     1       6.145  -5.065  27.259  0.00  0.00    +0.135 A 
ATOM      6  C   UNL     1       5.101  -5.532  28.061  0.00  0.00    +0.091 A 
ATOM      7  C   UNL     1       4.179  -4.623  28.570  0.00  0.00    +0.124 A 
ATOM      8  C   UNL     1       7.397  -3.134  26.217  0.00  0.00    +0.238 A 
ATOM      9  O   UNL     1       8.227  -3.886  25.714  0.00  0.00    -0.283 OA
ATOM     10  C   UNL     1       4.271  -3.271  28.259  0.00  0.00    +0.092 A 
ATOM     11  C   UNL     1       7.527  -1.634  26.170  0.00  0.00    +0.214 A 
ENDROOT
BRANCH   1  13
ATOM     12  C   UNL     1       5.263   1.067  25.523  0.00  0.00    +0.015 A 
ATOM     13  C   UNL     1       6.258   0.580  26.388  0.00  0.00    +0.025 A 
ATOM     14  C   UNL     1       7.043   1.538  27.054  0.00  0.00    +0.060 A 
ATOM     15  C   UNL     1       6.840   2.909  26.847  0.00  0.00    +0.159 A 
ATOM     16  C   UNL     1       5.915   3.370  25.908  0.00  0.00    +0.165 A 
ATOM     17  C   UNL     1       5.094   2.433  25.286  0.00  0.00    +0.050 A 
BRANCH  15  18
ATOM     18  O   UNL     1       7.588   3.783  27.584  0.00  0.00    -0.503 OA
ATOM     19  H   UNL     1       7.395   4.674  27.237  0.00  0.00    +0.292 HD
ENDBRANCH  15  18
BRANCH  16  20
ATOM     20  O   UNL     1       5.868   4.721  25.627  0.00  0.00    -0.457 OA
BRANCH  20  21
ATOM     21  C   UNL     1       6.069   5.004  24.215  0.00  0.00    +0.339 C 
ATOM     22  O   UNL     1       7.034   4.116  23.654  0.00  0.00    -0.331 OA
ATOM     23  C   UNL     1       8.276   4.598  23.147  0.00  0.00    +0.179 C 
ATOM     24  C   UNL     1       8.228   6.024  22.571  0.00  0.00    +0.177 C 
ATOM     25  C   UNL     1       7.656   6.986  23.606  0.00  0.00    +0.180 C 
ATOM     26  C   UNL     1       6.246   6.533  23.991  0.00  0.00    +0.214 C 
BRANCH  26  27
ATOM     27  O   UNL     1       5.349   6.946  22.934  0.00  0.00    -0.383 OA
ATOM     28  H   UNL     1       4.936   7.785  23.244  0.00  0.00    +0.210 HD
ENDBRANCH  26  27
BRANCH  25  29
ATOM     29  O   UNL     1       8.551   7.108  24.708  0.00  0.00    -0.386 OA
ATOM     30  H   UNL     1       8.876   8.025  24.761  0.00  0.00    +0.210 HD
ENDBRANCH  25  29
BRANCH  24  31
ATOM     31  O   UNL     1       7.383   6.050  21.403  0.00  0.00    -0.386 OA
ATOM     32  H   UNL     1       7.730   6.750  20.818  0.00  0.00    +0.210 HD
ENDBRANCH  24  31
BRANCH  23  33
ATOM     33  C   UNL     1       9.380   4.367  24.190  0.00  0.00    +0.190 C 
BRANCH  33  34
ATOM     34  O   UNL     1       9.491   2.996  24.555  0.00  0.00    -0.392 OA
ATOM     35  H   UNL     1      10.411   2.723  24.390  0.00  0.00    +0.210 HD
ENDBRANCH  33  34
ENDBRANCH  23  33
ENDBRANCH  20  21
ENDBRANCH  16  20
ENDBRANCH   1  13
BRANCH   7  36
ATOM     36  O   UNL     1       3.153  -5.020  29.375  0.00  0.00    -0.507 OA
ATOM     37  H   UNL     1       2.664  -5.738  28.938  0.00  0.00    +0.292 HD
ENDBRANCH   7  36
BRANCH   5  38
ATOM     38  O   UNL     1       7.023  -6.006  26.794  0.00  0.00    -0.506 OA
ATOM     39  H   UNL     1       7.275  -6.593  27.542  0.00  0.00    +0.292 HD
ENDBRANCH   5  38
BRANCH  11  40
ATOM     40  O   UNL     1       8.776  -1.139  25.795  0.00  0.00    -0.453 OA
BRANCH  40  41
ATOM     41  C   UNL     1       8.751  -0.424  24.544  0.00  0.00    +0.340 C 
ATOM     42  O   UNL     1       7.635  -0.819  23.745  0.00  0.00    -0.331 OA
ATOM     43  C   UNL     1       7.768  -1.622  22.563  0.00  0.00    +0.179 C 
ATOM     44  C   UNL     1       9.180  -1.822  21.980  0.00  0.00    +0.177 C 
ATOM     45  C   UNL     1      10.254  -1.769  23.062  0.00  0.00    +0.180 C 
ATOM     46  C   UNL     1      10.108  -0.458  23.828  0.00  0.00    +0.214 C 
BRANCH  46  47
ATOM     47  O   UNL     1      10.211   0.669  22.923  0.00  0.00    -0.383 OA
ATOM     48  H   UNL     1      11.166   0.844  22.763  0.00  0.00    +0.210 HD
ENDBRANCH  46  47
BRANCH  45  49
ATOM     49  O   UNL     1      10.209  -2.925  23.894  0.00  0.00    -0.386 OA
ATOM     50  H   UNL     1       9.715  -3.651  23.465  0.00  0.00    +0.210 HD
ENDBRANCH  45  49
BRANCH  44  51
ATOM     51  O   UNL     1       9.400  -0.809  20.978  0.00  0.00    -0.386 OA
ATOM     52  H   UNL     1       9.132   0.059  21.346  0.00  0.00    +0.210 HD
ENDBRANCH  44  51
BRANCH  43  53
ATOM     53  C   UNL     1       7.062  -2.978  22.743  0.00  0.00    +0.190 C 
BRANCH  53  54
ATOM     54  O   UNL     1       7.979  -4.071  22.754  0.00  0.00    -0.392 OA
ATOM     55  H   UNL     1       7.470  -4.894  22.855  0.00  0.00    +0.210 HD
ENDBRANCH  53  54
ENDBRANCH  43  53
ENDBRANCH  40  41
ENDBRANCH  11  40
TORSDOF 18
ENDMDL
MODEL 7
REMARK VINA RESULT:      -6.4      1.140      2.171
REMARK  Name = 
REMARK  18 active torsions:
REMARK  status: ('A' for Active; 'I' for Inactive)
REMARK    1  A    between atoms: C_3  and  O_38
REMARK    2  A    between atoms: C_4  and  O_37
REMARK    3  A    between atoms: C_6  and  C_7
REMARK    4  A    between atoms: C_8  and  O_20
REMARK    5  A    between atoms: C_12  and  O_19
REMARK    6  A    between atoms: C_14  and  O_18
REMARK    7  A    between atoms: O_20  and  C_21
REMARK    8  A    between atoms: C_23  and  O_36
REMARK    9  A    between atoms: C_25  and  O_35
REMARK   10  A    between atoms: C_27  and  O_34
REMARK   11  A    between atoms: C_29  and  C_32
REMARK   12  A    between atoms: C_32  and  O_33
REMARK   13  A    between atoms: O_38  and  C_39
REMARK   14  A    between atoms: C_41  and  O_54
REMARK   15  A    between atoms: C_43  and  O_53
REMARK   16  A    between atoms: C_45  and  O_52
REMARK   17  A    between atoms: C_47  and  C_50
REMARK   18  A    between atoms: C_50  and  O_51
REMARK                            x       y       z     vdW  Elec       q    Type
REMARK                         _______ _______ _______ _____ _____    ______ ____
ROOT
ATOM      1  C   UNL     1       9.394   2.013  23.871  0.00  0.00    +0.181 A 
ATOM      2  O   UNL     1      10.486   2.533  23.157  0.00  0.00    -0.451 OA
ATOM      3  C   UNL     1      10.989   3.765  23.475  0.00  0.00    +0.147 A 
ATOM      4  C   UNL     1      10.291   4.672  24.252  0.00  0.00    +0.109 A 
ATOM      5  C   UNL     1      10.810   5.961  24.439  0.00  0.00    +0.135 A 
ATOM      6  C   UNL     1      12.045   6.317  23.890  0.00  0.00    +0.091 A 
ATOM      7  C   UNL     1      12.757   5.373  23.157  0.00  0.00    +0.124 A 
ATOM      8  C   UNL     1       9.052   4.204  24.893  0.00  0.00    +0.238 A 
ATOM      9  O   UNL     1       8.360   4.996  25.525  0.00  0.00    -0.283 OA
ATOM     10  C   UNL     1      12.237   4.102  22.941  0.00  0.00    +0.092 A 
ATOM     11  C   UNL     1       8.728   2.736  24.803  0.00  0.00    +0.214 A 
ENDROOT
BRANCH   1  13
ATOM     12  C   UNL     1       7.983   0.297  22.721  0.00  0.00    +0.015 A 
ATOM     13  C   UNL     1       9.135   0.585  23.473  0.00  0.00    +0.025 A 
ATOM     14  C   UNL     1       9.949  -0.506  23.828  0.00  0.00    +0.060 A 
ATOM     15  C   UNL     1       9.611  -1.813  23.453  0.00  0.00    +0.159 A 
ATOM     16  C   UNL     1       8.411  -2.089  22.793  0.00  0.00    +0.165 A 
ATOM     17  C   UNL     1       7.627  -1.013  22.387  0.00  0.00    +0.050 A 
BRANCH  15  18
ATOM     18  O   UNL     1      10.486  -2.813  23.766  0.00  0.00    -0.503 OA
ATOM     19  H   UNL     1      11.150  -2.423  24.366  0.00  0.00    +0.292 HD
ENDBRANCH  15  18
BRANCH  16  20
ATOM     20  O   UNL     1       8.051  -3.406  22.590  0.00  0.00    -0.457 OA
BRANCH  20  21
ATOM     21  C   UNL     1       7.637  -4.067  23.817  0.00  0.00    +0.339 C 
ATOM     22  O   UNL     1       7.279  -5.425  23.564  0.00  0.00    -0.331 OA
ATOM     23  C   UNL     1       5.945  -5.887  23.764  0.00  0.00    +0.179 C 
ATOM     24  C   UNL     1       5.171  -5.161  24.878  0.00  0.00    +0.177 C 
ATOM     25  C   UNL     1       5.190  -3.657  24.632  0.00  0.00    +0.180 C 
ATOM     26  C   UNL     1       6.641  -3.168  24.604  0.00  0.00    +0.214 C 
BRANCH  26  27
ATOM     27  O   UNL     1       7.097  -3.072  25.973  0.00  0.00    -0.383 OA
ATOM     28  H   UNL     1       7.920  -2.534  25.946  0.00  0.00    +0.210 HD
ENDBRANCH  26  27
BRANCH  25  29
ATOM     29  O   UNL     1       4.447  -3.343  23.457  0.00  0.00    -0.386 OA
ATOM     30  H   UNL     1       3.505  -3.547  23.605  0.00  0.00    +0.210 HD
ENDBRANCH  25  29
BRANCH  24  31
ATOM     31  O   UNL     1       5.787  -5.426  26.153  0.00  0.00    -0.386 OA
ATOM     32  H   UNL     1       5.171  -5.996  26.652  0.00  0.00    +0.210 HD
ENDBRANCH  24  31
BRANCH  23  33
ATOM     33  C   UNL     1       5.216  -5.948  22.412  0.00  0.00    +0.190 C 
BRANCH  33  34
ATOM     34  O   UNL     1       3.813  -6.124  22.571  0.00  0.00    -0.392 OA
ATOM     35  H   UNL     1       3.484  -5.378  23.103  0.00  0.00    +0.210 HD
ENDBRANCH  33  34
ENDBRANCH  23  33
ENDBRANCH  20  21
ENDBRANCH  16  20
ENDBRANCH   1  13
BRANCH   7  36
ATOM     36  O   UNL     1      13.975   5.660  22.616  0.00  0.00    -0.507 OA
ATOM     37  H   UNL     1      13.853   5.994  21.712  0.00  0.00    +0.292 HD
ENDBRANCH   7  36
BRANCH   5  38
ATOM     38  O   UNL     1      10.160   6.929  25.154  0.00  0.00    -0.506 OA
ATOM     39  H   UNL     1       9.589   7.440  24.538  0.00  0.00    +0.292 HD
ENDBRANCH   5  38
BRANCH  11  40
ATOM     40  O   UNL     1       7.781   2.261  25.711  0.00  0.00    -0.453 OA
BRANCH  40  41
ATOM     41  C   UNL     1       6.431   2.625  25.365  0.00  0.00    +0.340 C 
ATOM     42  O   UNL     1       5.753   3.217  26.474  0.00  0.00    -0.331 OA
ATOM     43  C   UNL     1       4.717   2.544  27.204  0.00  0.00    +0.179 C 
ATOM     44  C   UNL     1       4.120   1.261  26.595  0.00  0.00    +0.177 C 
ATOM     45  C   UNL     1       5.135   0.515  25.733  0.00  0.00    +0.180 C 
ATOM     46  C   UNL     1       5.677   1.477  24.680  0.00  0.00    +0.214 C 
BRANCH  46  47
ATOM     47  O   UNL     1       4.594   2.011  23.880  0.00  0.00    -0.383 OA
ATOM     48  H   UNL     1       4.772   1.787  22.939  0.00  0.00    +0.210 HD
ENDBRANCH  46  47
BRANCH  45  49
ATOM     49  O   UNL     1       6.149  -0.088  26.533  0.00  0.00    -0.386 OA
ATOM     50  H   UNL     1       5.782  -0.800  27.093  0.00  0.00    +0.210 HD
ENDBRANCH  45  49
BRANCH  44  51
ATOM     51  O   UNL     1       2.955   1.627  25.828  0.00  0.00    -0.386 OA
ATOM     52  H   UNL     1       3.167   1.539  24.875  0.00  0.00    +0.210 HD
ENDBRANCH  44  51
BRANCH  43  53
ATOM     53  C   UNL     1       5.148   2.299  28.661  0.00  0.00    +0.190 C 
BRANCH  53  54
ATOM     54  O   UNL     1       4.890   0.962  29.088  0.00  0.00    -0.392 OA
ATOM     55  H   UNL     1       3.928   0.818  29.073  0.00  0.00    +0.210 HD
ENDBRANCH  53  54
ENDBRANCH  43  53
ENDBRANCH  40  41
ENDBRANCH  11  40
TORSDOF 18
ENDMDL
MODEL 8
REMARK VINA RESULT:      -6.2      3.313      9.639
REMARK  Name = 
REMARK  18 active torsions:
REMARK  status: ('A' for Active; 'I' for Inactive)
REMARK    1  A    between atoms: C_3  and  O_38
REMARK    2  A    between atoms: C_4  and  O_37
REMARK    3  A    between atoms: C_6  and  C_7
REMARK    4  A    between atoms: C_8  and  O_20
REMARK    5  A    between atoms: C_12  and  O_19
REMARK    6  A    between atoms: C_14  and  O_18
REMARK    7  A    between atoms: O_20  and  C_21
REMARK    8  A    between atoms: C_23  and  O_36
REMARK    9  A    between atoms: C_25  and  O_35
REMARK   10  A    between atoms: C_27  and  O_34
REMARK   11  A    between atoms: C_29  and  C_32
REMARK   12  A    between atoms: C_32  and  O_33
REMARK   13  A    between atoms: O_38  and  C_39
REMARK   14  A    between atoms: C_41  and  O_54
REMARK   15  A    between atoms: C_43  and  O_53
REMARK   16  A    between atoms: C_45  and  O_52
REMARK   17  A    between atoms: C_47  and  C_50
REMARK   18  A    between atoms: C_50  and  O_51
REMARK                            x       y       z     vdW  Elec       q    Type
REMARK                         _______ _______ _______ _____ _____    ______ ____
ROOT
ATOM      1  C   UNL     1       4.116  -5.673  25.160  0.00  0.00    +0.181 A 
ATOM      2  O   UNL     1       3.674  -6.528  24.139  0.00  0.00    -0.451 OA
ATOM      3  C   UNL     1       2.582  -7.329  24.340  0.00  0.00    +0.147 A 
ATOM      4  C   UNL     1       2.072  -7.581  25.601  0.00  0.00    +0.109 A 
ATOM      5  C   UNL     1       1.029  -8.506  25.747  0.00  0.00    +0.135 A 
ATOM      6  C   UNL     1       0.472  -9.133  24.630  0.00  0.00    +0.091 A 
ATOM      7  C   UNL     1       0.963  -8.825  23.366  0.00  0.00    +0.124 A 
ATOM      8  C   UNL     1       2.625  -6.810  26.724  0.00  0.00    +0.238 A 
ATOM      9  O   UNL     1       2.258  -7.057  27.868  0.00  0.00    -0.283 OA
ATOM     10  C   UNL     1       2.017  -7.932  23.212  0.00  0.00    +0.092 A 
ATOM     11  C   UNL     1       3.575  -5.685  26.401  0.00  0.00    +0.214 A 
ENDROOT
BRANCH   1  13
ATOM     12  C   UNL     1       6.519  -4.973  25.113  0.00  0.00    +0.015 A 
ATOM     13  C   UNL     1       5.206  -4.766  24.654  0.00  0.00    +0.025 A 
ATOM     14  C   UNL     1       5.007  -3.690  23.770  0.00  0.00    +0.060 A 
ATOM     15  C   UNL     1       6.071  -2.866  23.382  0.00  0.00    +0.159 A 
ATOM     16  C   UNL     1       7.346  -3.026  23.928  0.00  0.00    +0.165 A 
ATOM     17  C   UNL     1       7.568  -4.121  24.759  0.00  0.00    +0.050 A 
BRANCH  15  18
ATOM     18  O   UNL     1       5.818  -1.888  22.462  0.00  0.00    -0.503 OA
ATOM     19  H   UNL     1       5.270  -1.218  22.913  0.00  0.00    +0.292 HD
ENDBRANCH  15  18
BRANCH  16  20
ATOM     20  O   UNL     1       8.319  -2.090  23.636  0.00  0.00    -0.457 OA
BRANCH  20  21
ATOM     21  C   UNL     1       8.123  -0.841  24.354  0.00  0.00    +0.339 C 
ATOM     22  O   UNL     1       7.676   0.185  23.469  0.00  0.00    -0.331 OA
ATOM     23  C   UNL     1       8.472   1.340  23.213  0.00  0.00    +0.179 C 
ATOM     24  C   UNL     1       9.373   1.775  24.382  0.00  0.00    +0.177 C 
ATOM     25  C   UNL     1      10.242   0.608  24.834  0.00  0.00    +0.180 C 
ATOM     26  C   UNL     1       9.344  -0.551  25.274  0.00  0.00    +0.214 C 
BRANCH  26  27
ATOM     27  O   UNL     1       8.853  -0.246  26.600  0.00  0.00    -0.383 OA
ATOM     28  H   UNL     1       8.475  -1.086  26.946  0.00  0.00    +0.210 HD
ENDBRANCH  26  27
BRANCH  25  29
ATOM     29  O   UNL     1      11.174   0.267  23.811  0.00  0.00    -0.386 OA
ATOM     30  H   UNL     1      10.708  -0.191  23.088  0.00  0.00    +0.210 HD
ENDBRANCH  25  29
BRANCH  24  31
ATOM     31  O   UNL     1       8.558   2.199  25.493  0.00  0.00    -0.386 OA
ATOM     32  H   UNL     1       7.977   1.448  25.722  0.00  0.00    +0.210 HD
ENDBRANCH  24  31
BRANCH  23  33
ATOM     33  C   UNL     1       9.202   1.171  21.871  0.00  0.00    +0.190 C 
BRANCH  33  34
ATOM     34  O   UNL     1      10.147   2.210  21.644  0.00  0.00    -0.392 OA
ATOM     35  H   UNL     1      10.511   2.468  22.510  0.00  0.00    +0.210 HD
ENDBRANCH  33  34
ENDBRANCH  23  33
ENDBRANCH  20  21
ENDBRANCH  16  20
ENDBRANCH   1  13
BRANCH   7  36
ATOM     36  O   UNL     1       0.443  -9.392  22.239  0.00  0.00    -0.507 OA
ATOM     37  H   UNL     1      -0.526  -9.322  22.264  0.00  0.00    +0.292 HD
ENDBRANCH   7  36
BRANCH   5  38
ATOM     38  O   UNL     1       0.499  -8.845  26.962  0.00  0.00    -0.506 OA
ATOM     39  H   UNL     1       1.219  -8.823  27.632  0.00  0.00    +0.292 HD
ENDBRANCH   5  38
BRANCH  11  40
ATOM     40  O   UNL     1       3.784  -4.750  27.416  0.00  0.00    -0.453 OA
BRANCH  40  41
ATOM     41  C   UNL     1       2.819  -3.681  27.409  0.00  0.00    +0.340 C 
ATOM     42  O   UNL     1       3.325  -2.529  26.732  0.00  0.00    -0.331 OA
ATOM     43  C   UNL     1       3.714  -1.331  27.419  0.00  0.00    +0.179 C 
ATOM     44  C   UNL     1       3.305  -1.177  28.895  0.00  0.00    +0.177 C 
ATOM     45  C   UNL     1       3.196  -2.528  29.598  0.00  0.00    +0.180 C 
ATOM     46  C   UNL     1       2.239  -3.412  28.804  0.00  0.00    +0.214 C 
BRANCH  46  47
ATOM     47  O   UNL     1       0.945  -2.773  28.682  0.00  0.00    -0.383 OA
ATOM     48  H   UNL     1       0.934  -2.267  27.839  0.00  0.00    +0.210 HD
ENDBRANCH  46  47
BRANCH  45  49
ATOM     49  O   UNL     1       4.480  -3.112  29.800  0.00  0.00    -0.386 OA
ATOM     50  H   UNL     1       4.959  -3.215  28.955  0.00  0.00    +0.210 HD
ENDBRANCH  45  49
BRANCH  44  51
ATOM     51  O   UNL     1       2.053  -0.464  28.943  0.00  0.00    -0.386 OA
ATOM     52  H   UNL     1       1.705  -0.502  29.858  0.00  0.00    +0.210 HD
ENDBRANCH  44  51
BRANCH  43  53
ATOM     53  C   UNL     1       5.222  -1.070  27.248  0.00  0.00    +0.190 C 
BRANCH  53  54
ATOM     54  O   UNL     1       5.978  -2.279  27.176  0.00  0.00    -0.392 OA
ATOM     55  H   UNL     1       6.851  -2.116  27.573  0.00  0.00    +0.210 HD
ENDBRANCH  53  54
ENDBRANCH  43  53
ENDBRANCH  40  41
ENDBRANCH  11  40
TORSDOF 18
ENDMDL
MODEL 9
REMARK VINA RESULT:      -6.1      2.772      9.091
REMARK  Name = 
REMARK  18 active torsions:
REMARK  status: ('A' for Active; 'I' for Inactive)
REMARK    1  A    between atoms: C_3  and  O_38
REMARK    2  A    between atoms: C_4  and  O_37
REMARK    3  A    between atoms: C_6  and  C_7
REMARK    4  A    between atoms: C_8  and  O_20
REMARK    5  A    between atoms: C_12  and  O_19
REMARK    6  A    between atoms: C_14  and  O_18
REMARK    7  A    between atoms: O_20  and  C_21
REMARK    8  A    between atoms: C_23  and  O_36
REMARK    9  A    between atoms: C_25  and  O_35
REMARK   10  A    between atoms: C_27  and  O_34
REMARK   11  A    between atoms: C_29  and  C_32
REMARK   12  A    between atoms: C_32  and  O_33
REMARK   13  A    between atoms: O_38  and  C_39
REMARK   14  A    between atoms: C_41  and  O_54
REMARK   15  A    between atoms: C_43  and  O_53
REMARK   16  A    between atoms: C_45  and  O_52
REMARK   17  A    between atoms: C_47  and  C_50
REMARK   18  A    between atoms: C_50  and  O_51
REMARK                            x       y       z     vdW  Elec       q    Type
REMARK                         _______ _______ _______ _____ _____    ______ ____
ROOT
ATOM      1  C   UNL     1       6.562  -1.135  26.323  0.00  0.00    +0.181 A 
ATOM      2  O   UNL     1       5.483  -1.807  26.918  0.00  0.00    -0.451 OA
ATOM      3  C   UNL     1       5.646  -3.079  27.396  0.00  0.00    +0.147 A 
ATOM      4  C   UNL     1       6.727  -3.868  27.047  0.00  0.00    +0.109 A 
ATOM      5  C   UNL     1       6.771  -5.202  27.474  0.00  0.00    +0.135 A 
ATOM      6  C   UNL     1       5.760  -5.723  28.286  0.00  0.00    +0.091 A 
ATOM      7  C   UNL     1       4.708  -4.897  28.671  0.00  0.00    +0.124 A 
ATOM      8  C   UNL     1       7.812  -3.232  26.283  0.00  0.00    +0.238 A 
ATOM      9  O   UNL     1       8.752  -3.913  25.886  0.00  0.00    -0.283 OA
ATOM     10  C   UNL     1       4.640  -3.581  28.227  0.00  0.00    +0.092 A 
ATOM     11  C   UNL     1       7.752  -1.740  26.089  0.00  0.00    +0.214 A 
ENDROOT
BRANCH   1  13
ATOM     12  C   UNL     1       6.781   1.304  26.836  0.00  0.00    +0.015 A 
ATOM     13  C   UNL     1       6.202   0.299  26.042  0.00  0.00    +0.025 A 
ATOM     14  C   UNL     1       5.293   0.718  25.054  0.00  0.00    +0.060 A 
ATOM     15  C   UNL     1       4.980   2.073  24.886  0.00  0.00    +0.159 A 
ATOM     16  C   UNL     1       5.489   3.045  25.751  0.00  0.00    +0.165 A 
ATOM     17  C   UNL     1       6.432   2.650  26.695  0.00  0.00    +0.050 A 
BRANCH  15  18
ATOM     18  O   UNL     1       4.148   2.413  23.858  0.00  0.00    -0.503 OA
ATOM     19  H   UNL     1       4.053   1.617  23.302  0.00  0.00    +0.292 HD
ENDBRANCH  15  18
BRANCH  16  20
ATOM     20  O   UNL     1       5.024   4.341  25.643  0.00  0.00    -0.457 OA
BRANCH  20  21
ATOM     21  C   UNL     1       6.014   5.244  25.079  0.00  0.00    +0.339 C 
ATOM     22  O   UNL     1       5.402   6.458  24.647  0.00  0.00    -0.331 OA
ATOM     23  C   UNL     1       5.391   6.832  23.271  0.00  0.00    +0.179 C 
ATOM     24  C   UNL     1       6.599   6.335  22.458  0.00  0.00    +0.177 C 
ATOM     25  C   UNL     1       6.744   4.825  22.607  0.00  0.00    +0.180 C 
ATOM     26  C   UNL     1       6.936   4.480  24.086  0.00  0.00    +0.214 C 
BRANCH  26  27
ATOM     27  O   UNL     1       8.312   4.767  24.428  0.00  0.00    -0.383 OA
ATOM     28  H   UNL     1       8.801   4.794  23.575  0.00  0.00    +0.210 HD
ENDBRANCH  26  27
BRANCH  25  29
ATOM     29  O   UNL     1       5.641   4.164  21.992  0.00  0.00    -0.386 OA
ATOM     30  H   UNL     1       5.360   4.667  21.206  0.00  0.00    +0.210 HD
ENDBRANCH  25  29
BRANCH  24  31
ATOM     31  O   UNL     1       7.803   6.963  22.941  0.00  0.00    -0.386 OA
ATOM     32  H   UNL     1       7.971   6.605  23.834  0.00  0.00    +0.210 HD
ENDBRANCH  24  31
BRANCH  23  33
ATOM     33  C   UNL     1       4.023   6.490  22.658  0.00  0.00    +0.190 C 
BRANCH  33  34
ATOM     34  O   UNL     1       4.014   6.661  21.246  0.00  0.00    -0.392 OA
ATOM     35  H   UNL     1       3.497   5.928  20.867  0.00  0.00    +0.210 HD
ENDBRANCH  33  34
ENDBRANCH  23  33
ENDBRANCH  20  21
ENDBRANCH  16  20
ENDBRANCH   1  13
BRANCH   7  36
ATOM     36  O   UNL     1       3.706  -5.347  29.478  0.00  0.00    -0.507 OA
ATOM     37  H   UNL     1       3.131  -4.601  29.720  0.00  0.00    +0.292 HD
ENDBRANCH   7  36
BRANCH   5  38
ATOM     38  O   UNL     1       7.781  -6.060  27.135  0.00  0.00    -0.506 OA
ATOM     39  H   UNL     1       8.270  -6.304  27.953  0.00  0.00    +0.292 HD
ENDBRANCH   5  38
BRANCH  11  40
ATOM     40  O   UNL     1       8.943  -1.123  25.707  0.00  0.00    -0.453 OA
BRANCH  40  41
ATOM     41  C   UNL     1       8.851  -0.453  24.434  0.00  0.00    +0.340 C 
ATOM     42  O   UNL     1       7.744  -0.935  23.673  0.00  0.00    -0.331 OA
ATOM     43  C   UNL     1       7.898  -1.768  22.514  0.00  0.00    +0.179 C 
ATOM     44  C   UNL     1       9.307  -1.907  21.906  0.00  0.00    +0.177 C 
ATOM     45  C   UNL     1      10.399  -1.758  22.963  0.00  0.00    +0.180 C 
ATOM     46  C   UNL     1      10.193  -0.433  23.690  0.00  0.00    +0.214 C 
BRANCH  46  47
ATOM     47  O   UNL     1      10.214   0.668  22.748  0.00  0.00    -0.383 OA
ATOM     48  H   UNL     1      10.494   1.477  23.231  0.00  0.00    +0.210 HD
ENDBRANCH  46  47
BRANCH  45  49
ATOM     49  O   UNL     1      10.436  -2.888  23.832  0.00  0.00    -0.386 OA
ATOM     50  H   UNL     1      10.702  -3.696  23.351  0.00  0.00    +0.210 HD
ENDBRANCH  45  49
BRANCH  44  51
ATOM     51  O   UNL     1       9.448  -0.917  20.868  0.00  0.00    -0.386 OA
ATOM     52  H   UNL     1       9.321  -0.029  21.263  0.00  0.00    +0.210 HD
ENDBRANCH  44  51
BRANCH  43  53
ATOM     53  C   UNL     1       7.274  -3.155  22.753  0.00  0.00    +0.190 C 
BRANCH  53  54
ATOM     54  O   UNL     1       8.260  -4.179  22.887  0.00  0.00    -0.392 OA
ATOM     55  H   UNL     1       8.571  -4.420  21.997  0.00  0.00    +0.210 HD
ENDBRANCH  53  54
ENDBRANCH  43  53
ENDBRANCH  40  41
ENDBRANCH  11  40
TORSDOF 18
ENDMDL
