MODEL 1
REMARK VINA RESULT:      -7.5      0.000      0.000
REMARK  Name = 
REMARK  11 active torsions:
REMARK  status: ('A' for Active; 'I' for Inactive)
REMARK    1  A    between atoms: C_1  and  O_2
REMARK    2  A    between atoms: O_2  and  C_3
REMARK    3  A    between atoms: C_4  and  C_16
REMARK    4  A    between atoms: C_8  and  O_15
REMARK    5  A    between atoms: C_10  and  O_14
REMARK    6  A    between atoms: C_18  and  O_23
REMARK    7  A    between atoms: C_19  and  O_22
REMARK    8  A    between atoms: O_23  and  C_24
REMARK    9  A    between atoms: C_26  and  O_35
REMARK   10  A    between atoms: C_27  and  O_34
REMARK   11  A    between atoms: C_29  and  O_33
REMARK                            x       y       z     vdW  Elec       q    Type
REMARK                         _______ _______ _______ _____ _____    ______ ____
ROOT
ATOM      1  C   UNL     1       8.429  -0.919  23.663  0.00  0.00    +0.025 A 
ATOM      2  C   UNL     1       9.449  -1.112  22.720  0.00  0.00    +0.015 A 
ATOM      3  C   UNL     1       9.965  -0.030  22.001  0.00  0.00    +0.050 A 
ATOM      4  C   UNL     1       9.403   1.237  22.182  0.00  0.00    +0.159 A 
ATOM      5  C   UNL     1       8.360   1.453  23.096  0.00  0.00    +0.166 A 
ATOM      6  C   UNL     1       7.952   0.383  23.899  0.00  0.00    +0.061 A 
ENDROOT
BRANCH   1  17
ATOM      7  C   UNL     1       8.052  -2.555  25.450  0.00  0.00    +0.211 A 
ATOM      8  C   UNL     1       7.220  -3.660  26.005  0.00  0.00    +0.238 A 
ATOM      9  O   UNL     1       7.209  -3.909  27.204  0.00  0.00    -0.283 OA
ATOM     10  C   UNL     1       6.377  -4.393  25.052  0.00  0.00    +0.109 A 
ATOM     11  C   UNL     1       6.118  -3.791  23.820  0.00  0.00    +0.147 A 
ATOM     12  C   UNL     1       5.239  -4.404  22.920  0.00  0.00    +0.092 A 
ATOM     13  C   UNL     1       4.650  -5.626  23.261  0.00  0.00    +0.124 A 
ATOM     14  C   UNL     1       4.937  -6.250  24.468  0.00  0.00    +0.091 A 
ATOM     15  O   UNL     1       6.687  -2.594  23.438  0.00  0.00    -0.451 OA
ATOM     16  C   UNL     1       5.805  -5.634  25.363  0.00  0.00    +0.135 A 
ATOM     17  C   UNL     1       7.697  -2.074  24.233  0.00  0.00    +0.181 A 
BRANCH   7  19
ATOM     18  C   UNL     1       8.707  -0.947  27.055  0.00  0.00    +0.277 C 
ATOM     19  O   UNL     1       9.098  -1.999  26.174  0.00  0.00    -0.488 OA
ENDBRANCH   7  19
BRANCH  13  20
ATOM     20  O   UNL     1       3.780  -6.258  22.427  0.00  0.00    -0.507 OA
ATOM     21  H   UNL     1       3.586  -7.145  22.774  0.00  0.00    +0.292 HD
ENDBRANCH  13  20
BRANCH  16  22
ATOM     22  O   UNL     1       6.112  -6.279  26.528  0.00  0.00    -0.506 OA
ATOM     23  H   UNL     1       5.975  -7.235  26.428  0.00  0.00    +0.292 HD
ENDBRANCH  16  22
ENDBRANCH   1  17
BRANCH   4  24
ATOM     24  O   UNL     1       9.900   2.258  21.417  0.00  0.00    -0.503 OA
ATOM     25  H   UNL     1      10.399   2.836  22.022  0.00  0.00    +0.292 HD
ENDBRANCH   4  24
BRANCH   5  26
ATOM     26  O   UNL     1       7.723   2.672  23.019  0.00  0.00    -0.457 OA
BRANCH  26  27
ATOM     27  C   UNL     1       7.745   3.538  24.178  0.00  0.00    +0.339 C 
ATOM     28  O   UNL     1       6.477   3.787  24.793  0.00  0.00    -0.337 OA
ATOM     29  C   UNL     1       5.551   4.570  24.038  0.00  0.00    +0.198 C 
ATOM     30  C   UNL     1       6.113   5.924  23.595  0.00  0.00    +0.171 C 
ATOM     31  C   UNL     1       7.490   5.765  22.949  0.00  0.00    +0.180 C 
ATOM     32  C   UNL     1       8.410   4.887  23.813  0.00  0.00    +0.214 C 
BRANCH  30  33
ATOM     33  O   UNL     1       6.223   6.779  24.741  0.00  0.00    -0.387 OA
ATOM     34  H   UNL     1       5.329   6.889  25.114  0.00  0.00    +0.210 HD
ENDBRANCH  30  33
BRANCH  31  35
ATOM     35  O   UNL     1       7.399   5.247  21.614  0.00  0.00    -0.386 OA
ATOM     36  H   UNL     1       8.096   5.655  21.066  0.00  0.00    +0.210 HD
ENDBRANCH  31  35
BRANCH  32  37
ATOM     37  O   UNL     1       9.671   4.704  23.154  0.00  0.00    -0.383 OA
ATOM     38  H   UNL     1      10.324   4.495  23.849  0.00  0.00    +0.210 HD
ENDBRANCH  32  37
ENDBRANCH  26  27
ENDBRANCH   5  26
TORSDOF 10
ENDMDL
MODEL 2
REMARK VINA RESULT:      -7.4      2.113      8.928
REMARK  Name = 
REMARK  11 active torsions:
REMARK  status: ('A' for Active; 'I' for Inactive)
REMARK    1  A    between atoms: C_1  and  O_2
REMARK    2  A    between atoms: O_2  and  C_3
REMARK    3  A    between atoms: C_4  and  C_16
REMARK    4  A    between atoms: C_8  and  O_15
REMARK    5  A    between atoms: C_10  and  O_14
REMARK    6  A    between atoms: C_18  and  O_23
REMARK    7  A    between atoms: C_19  and  O_22
REMARK    8  A    between atoms: O_23  and  C_24
REMARK    9  A    between atoms: C_26  and  O_35
REMARK   10  A    between atoms: C_27  and  O_34
REMARK   11  A    between atoms: C_29  and  O_33
REMARK                            x       y       z     vdW  Elec       q    Type
REMARK                         _______ _______ _______ _____ _____    ______ ____
ROOT
ATOM      1  C   UNL     1       8.542   0.544  22.860  0.00  0.00    +0.025 A 
ATOM      2  C   UNL     1       9.183  -0.135  21.814  0.00  0.00    +0.015 A 
ATOM      3  C   UNL     1       8.951  -1.497  21.605  0.00  0.00    +0.050 A 
ATOM      4  C   UNL     1       8.127  -2.191  22.495  0.00  0.00    +0.159 A 
ATOM      5  C   UNL     1       7.497  -1.544  23.570  0.00  0.00    +0.166 A 
ATOM      6  C   UNL     1       7.637  -0.156  23.679  0.00  0.00    +0.061 A 
ENDROOT
BRANCH   1  17
ATOM      7  C   UNL     1       8.038   2.846  23.538  0.00  0.00    +0.211 A 
ATOM      8  C   UNL     1       8.536   4.168  24.013  0.00  0.00    +0.238 A 
ATOM      9  O   UNL     1       7.812   4.936  24.635  0.00  0.00    -0.283 OA
ATOM     10  C   UNL     1       9.947   4.474  23.749  0.00  0.00    +0.109 A 
ATOM     11  C   UNL     1      10.794   3.409  23.437  0.00  0.00    +0.147 A 
ATOM     12  C   UNL     1      12.165   3.638  23.277  0.00  0.00    +0.092 A 
ATOM     13  C   UNL     1      12.663   4.938  23.408  0.00  0.00    +0.124 A 
ATOM     14  C   UNL     1      11.821   6.008  23.676  0.00  0.00    +0.091 A 
ATOM     15  O   UNL     1      10.342   2.115  23.285  0.00  0.00    -0.451 OA
ATOM     16  C   UNL     1      10.459   5.776  23.843  0.00  0.00    +0.135 A 
ATOM     17  C   UNL     1       8.972   1.906  23.255  0.00  0.00    +0.181 A 
BRANCH   7  19
ATOM     18  C   UNL     1       6.027   3.167  22.336  0.00  0.00    +0.277 C 
ATOM     19  O   UNL     1       6.680   2.569  23.455  0.00  0.00    -0.488 OA
ENDBRANCH   7  19
BRANCH  13  20
ATOM     20  O   UNL     1      13.990   5.213  23.272  0.00  0.00    -0.507 OA
ATOM     21  H   UNL     1      14.243   5.904  23.906  0.00  0.00    +0.292 HD
ENDBRANCH  13  20
BRANCH  16  22
ATOM     22  O   UNL     1       9.634   6.843  24.064  0.00  0.00    -0.506 OA
ATOM     23  H   UNL     1       9.975   7.384  24.794  0.00  0.00    +0.292 HD
ENDBRANCH  16  22
ENDBRANCH   1  17
BRANCH   4  24
ATOM     24  O   UNL     1       7.972  -3.536  22.286  0.00  0.00    -0.503 OA
ATOM     25  H   UNL     1       7.295  -3.629  21.593  0.00  0.00    +0.292 HD
ENDBRANCH   4  24
BRANCH   5  26
ATOM     26  O   UNL     1       6.912  -2.357  24.515  0.00  0.00    -0.457 OA
BRANCH  26  27
ATOM     27  C   UNL     1       7.683  -2.727  25.681  0.00  0.00    +0.339 C 
ATOM     28  O   UNL     1       8.602  -3.811  25.502  0.00  0.00    -0.337 OA
ATOM     29  C   UNL     1       8.024  -5.099  25.289  0.00  0.00    +0.198 C 
ATOM     30  C   UNL     1       7.038  -5.518  26.384  0.00  0.00    +0.171 C 
ATOM     31  C   UNL     1       6.028  -4.405  26.670  0.00  0.00    +0.180 C 
ATOM     32  C   UNL     1       6.733  -3.052  26.859  0.00  0.00    +0.214 C 
BRANCH  30  33
ATOM     33  O   UNL     1       7.770  -5.813  27.580  0.00  0.00    -0.387 OA
ATOM     34  H   UNL     1       8.663  -5.437  27.481  0.00  0.00    +0.210 HD
ENDBRANCH  30  33
BRANCH  31  35
ATOM     35  O   UNL     1       5.023  -4.318  25.650  0.00  0.00    -0.386 OA
ATOM     36  H   UNL     1       5.094  -5.097  25.066  0.00  0.00    +0.210 HD
ENDBRANCH  31  35
BRANCH  32  37
ATOM     37  O   UNL     1       5.758  -2.018  27.063  0.00  0.00    -0.383 OA
ATOM     38  H   UNL     1       4.895  -2.391  26.799  0.00  0.00    +0.210 HD
ENDBRANCH  32  37
ENDBRANCH  26  27
ENDBRANCH   5  26
TORSDOF 10
ENDMDL
MODEL 3
REMARK VINA RESULT:      -7.3      1.741      2.093
REMARK  Name = 
REMARK  11 active torsions:
REMARK  status: ('A' for Active; 'I' for Inactive)
REMARK    1  A    between atoms: C_1  and  O_2
REMARK    2  A    between atoms: O_2  and  C_3
REMARK    3  A    between atoms: C_4  and  C_16
REMARK    4  A    between atoms: C_8  and  O_15
REMARK    5  A    between atoms: C_10  and  O_14
REMARK    6  A    between atoms: C_18  and  O_23
REMARK    7  A    between atoms: C_19  and  O_22
REMARK    8  A    between atoms: O_23  and  C_24
REMARK    9  A    between atoms: C_26  and  O_35
REMARK   10  A    between atoms: C_27  and  O_34
REMARK   11  A    between atoms: C_29  and  O_33
REMARK                            x       y       z     vdW  Elec       q    Type
REMARK                         _______ _______ _______ _____ _____    ______ ____
ROOT
ATOM      1  C   UNL     1       7.924  -2.432  23.943  0.00  0.00    +0.025 A 
ATOM      2  C   UNL     1       8.446  -2.805  22.697  0.00  0.00    +0.015 A 
ATOM      3  C   UNL     1       8.965  -1.841  21.827  0.00  0.00    +0.050 A 
ATOM      4  C   UNL     1       8.892  -0.492  22.186  0.00  0.00    +0.159 A 
ATOM      5  C   UNL     1       8.345  -0.087  23.413  0.00  0.00    +0.166 A 
ATOM      6  C   UNL     1       7.956  -1.077  24.322  0.00  0.00    +0.061 A 
ENDROOT
BRANCH   1  17
ATOM      7  C   UNL     1       7.754  -4.099  25.734  0.00  0.00    +0.211 A 
ATOM      8  C   UNL     1       6.893  -4.982  26.569  0.00  0.00    +0.238 A 
ATOM      9  O   UNL     1       7.253  -5.361  27.676  0.00  0.00    -0.283 OA
ATOM     10  C   UNL     1       5.574  -5.324  26.022  0.00  0.00    +0.109 A 
ATOM     11  C   UNL     1       5.074  -4.528  24.991  0.00  0.00    +0.147 A 
ATOM     12  C   UNL     1       3.780  -4.752  24.507  0.00  0.00    +0.092 A 
ATOM     13  C   UNL     1       3.015  -5.789  25.050  0.00  0.00    +0.124 A 
ATOM     14  C   UNL     1       3.522  -6.612  26.047  0.00  0.00    +0.091 A 
ATOM     15  O   UNL     1       5.799  -3.504  24.418  0.00  0.00    -0.451 OA
ATOM     16  C   UNL     1       4.806  -6.381  26.531  0.00  0.00    +0.135 A 
ATOM     17  C   UNL     1       7.139  -3.392  24.754  0.00  0.00    +0.181 A 
BRANCH   7  19
ATOM     18  C   UNL     1       9.920  -5.015  25.484  0.00  0.00    +0.277 C 
ATOM     19  O   UNL     1       9.112  -3.954  25.990  0.00  0.00    -0.488 OA
ENDBRANCH   7  19
BRANCH  13  20
ATOM     20  O   UNL     1       1.747  -6.043  24.623  0.00  0.00    -0.507 OA
ATOM     21  H   UNL     1       1.527  -6.973  24.798  0.00  0.00    +0.292 HD
ENDBRANCH  13  20
BRANCH  16  22
ATOM     22  O   UNL     1       5.310  -7.223  27.482  0.00  0.00    -0.506 OA
ATOM     23  H   UNL     1       6.220  -7.474  27.259  0.00  0.00    +0.292 HD
ENDBRANCH  16  22
ENDBRANCH   1  17
BRANCH   4  24
ATOM     24  O   UNL     1       9.361   0.422  21.280  0.00  0.00    -0.503 OA
ATOM     25  H   UNL     1       8.830   0.304  20.472  0.00  0.00    +0.292 HD
ENDBRANCH   4  24
BRANCH   5  26
ATOM     26  O   UNL     1       8.101   1.260  23.558  0.00  0.00    -0.457 OA
BRANCH  26  27
ATOM     27  C   UNL     1       8.875   2.002  24.529  0.00  0.00    +0.339 C 
ATOM     28  O   UNL     1       8.140   2.533  25.637  0.00  0.00    -0.337 OA
ATOM     29  C   UNL     1       7.223   3.588  25.338  0.00  0.00    +0.198 C 
ATOM     30  C   UNL     1       7.868   4.772  24.612  0.00  0.00    +0.171 C 
ATOM     31  C   UNL     1       8.706   4.300  23.423  0.00  0.00    +0.180 C 
ATOM     32  C   UNL     1       9.641   3.149  23.827  0.00  0.00    +0.214 C 
BRANCH  30  33
ATOM     33  O   UNL     1       8.707   5.481  25.533  0.00  0.00    -0.387 OA
ATOM     34  H   UNL     1       8.453   5.209  26.434  0.00  0.00    +0.210 HD
ENDBRANCH  30  33
BRANCH  31  35
ATOM     35  O   UNL     1       7.888   3.924  22.306  0.00  0.00    -0.386 OA
ATOM     36  H   UNL     1       7.469   3.062  22.494  0.00  0.00    +0.210 HD
ENDBRANCH  31  35
BRANCH  32  37
ATOM     37  O   UNL     1      10.368   2.685  22.680  0.00  0.00    -0.383 OA
ATOM     38  H   UNL     1       9.725   2.619  21.948  0.00  0.00    +0.210 HD
ENDBRANCH  32  37
ENDBRANCH  26  27
ENDBRANCH   5  26
TORSDOF 10
ENDMDL
MODEL 4
REMARK VINA RESULT:      -7.3      2.345      8.784
REMARK  Name = 
REMARK  11 active torsions:
REMARK  status: ('A' for Active; 'I' for Inactive)
REMARK    1  A    between atoms: C_1  and  O_2
REMARK    2  A    between atoms: O_2  and  C_3
REMARK    3  A    between atoms: C_4  and  C_16
REMARK    4  A    between atoms: C_8  and  O_15
REMARK    5  A    between atoms: C_10  and  O_14
REMARK    6  A    between atoms: C_18  and  O_23
REMARK    7  A    between atoms: C_19  and  O_22
REMARK    8  A    between atoms: O_23  and  C_24
REMARK    9  A    between atoms: C_26  and  O_35
REMARK   10  A    between atoms: C_27  and  O_34
REMARK   11  A    between atoms: C_29  and  O_33
REMARK                            x       y       z     vdW  Elec       q    Type
REMARK                         _______ _______ _______ _____ _____    ______ ____
ROOT
ATOM      1  C   UNL     1       6.299  -3.885  23.263  0.00  0.00    +0.025 A 
ATOM      2  C   UNL     1       6.118  -4.772  22.193  0.00  0.00    +0.015 A 
ATOM      3  C   UNL     1       5.434  -5.977  22.377  0.00  0.00    +0.050 A 
ATOM      4  C   UNL     1       4.994  -6.319  23.659  0.00  0.00    +0.159 A 
ATOM      5  C   UNL     1       5.189  -5.465  24.755  0.00  0.00    +0.166 A 
ATOM      6  C   UNL     1       5.755  -4.207  24.520  0.00  0.00    +0.061 A 
ENDROOT
BRANCH   1  17
ATOM      7  C   UNL     1       8.555  -2.934  23.403  0.00  0.00    +0.211 A 
ATOM      8  C   UNL     1       9.457  -1.768  23.188  0.00  0.00    +0.238 A 
ATOM      9  O   UNL     1      10.662  -1.917  23.024  0.00  0.00    -0.283 OA
ATOM     10  C   UNL     1       8.823  -0.446  23.125  0.00  0.00    +0.109 A 
ATOM     11  C   UNL     1       7.448  -0.398  22.889  0.00  0.00    +0.147 A 
ATOM     12  C   UNL     1       6.816   0.839  22.720  0.00  0.00    +0.092 A 
ATOM     13  C   UNL     1       7.571   2.013  22.815  0.00  0.00    +0.124 A 
ATOM     14  C   UNL     1       8.931   1.974  23.091  0.00  0.00    +0.091 A 
ATOM     15  O   UNL     1       6.664  -1.530  22.801  0.00  0.00    -0.451 OA
ATOM     16  C   UNL     1       9.557   0.741  23.251  0.00  0.00    +0.135 A 
ATOM     17  C   UNL     1       7.237  -2.743  23.151  0.00  0.00    +0.181 A 
BRANCH   7  19
ATOM     18  C   UNL     1       9.392  -4.277  25.161  0.00  0.00    +0.277 C 
ATOM     19  O   UNL     1       9.050  -4.176  23.780  0.00  0.00    -0.488 OA
ENDBRANCH   7  19
BRANCH  13  20
ATOM     20  O   UNL     1       7.007   3.241  22.649  0.00  0.00    -0.507 OA
ATOM     21  H   UNL     1       6.042   3.147  22.579  0.00  0.00    +0.292 HD
ENDBRANCH  13  20
BRANCH  16  22
ATOM     22  O   UNL     1      10.887   0.717  23.565  0.00  0.00    -0.506 OA
ATOM     23  H   UNL     1      11.415   0.541  22.771  0.00  0.00    +0.292 HD
ENDBRANCH  16  22
ENDBRANCH   1  17
BRANCH   4  24
ATOM     24  O   UNL     1       4.378  -7.534  23.805  0.00  0.00    -0.503 OA
ATOM     25  H   UNL     1       3.489  -7.438  23.421  0.00  0.00    +0.292 HD
ENDBRANCH   4  24
BRANCH   5  26
ATOM     26  O   UNL     1       4.937  -5.999  25.999  0.00  0.00    -0.457 OA
BRANCH  26  27
ATOM     27  C   UNL     1       3.911  -5.392  26.818  0.00  0.00    +0.339 C 
ATOM     28  O   UNL     1       4.324  -4.266  27.600  0.00  0.00    -0.337 OA
ATOM     29  C   UNL     1       5.230  -4.540  28.671  0.00  0.00    +0.198 C 
ATOM     30  C   UNL     1       4.722  -5.606  29.645  0.00  0.00    +0.171 C 
ATOM     31  C   UNL     1       4.226  -6.845  28.897  0.00  0.00    +0.180 C 
ATOM     32  C   UNL     1       3.282  -6.457  27.748  0.00  0.00    +0.214 C 
BRANCH  30  33
ATOM     33  O   UNL     1       3.646  -5.056  30.417  0.00  0.00    -0.387 OA
ATOM     34  H   UNL     1       2.812  -5.287  29.970  0.00  0.00    +0.210 HD
ENDBRANCH  30  33
BRANCH  31  35
ATOM     35  O   UNL     1       5.311  -7.650  28.416  0.00  0.00    -0.386 OA
ATOM     36  H   UNL     1       6.148  -7.163  28.539  0.00  0.00    +0.210 HD
ENDBRANCH  31  35
BRANCH  32  37
ATOM     37  O   UNL     1       2.883  -7.632  27.026  0.00  0.00    -0.383 OA
ATOM     38  H   UNL     1       3.286  -8.394  27.486  0.00  0.00    +0.210 HD
ENDBRANCH  32  37
ENDBRANCH  26  27
ENDBRANCH   5  26
TORSDOF 10
ENDMDL
MODEL 5
REMARK VINA RESULT:      -7.3      1.650      2.265
REMARK  Name = 
REMARK  11 active torsions:
REMARK  status: ('A' for Active; 'I' for Inactive)
REMARK    1  A    between atoms: C_1  and  O_2
REMARK    2  A    between atoms: O_2  and  C_3
REMARK    3  A    between atoms: C_4  and  C_16
REMARK    4  A    between atoms: C_8  and  O_15
REMARK    5  A    between atoms: C_10  and  O_14
REMARK    6  A    between atoms: C_18  and  O_23
REMARK    7  A    between atoms: C_19  and  O_22
REMARK    8  A    between atoms: O_23  and  C_24
REMARK    9  A    between atoms: C_26  and  O_35
REMARK   10  A    between atoms: C_27  and  O_34
REMARK   11  A    between atoms: C_29  and  O_33
REMARK                            x       y       z     vdW  Elec       q    Type
REMARK                         _______ _______ _______ _____ _____    ______ ____
ROOT
ATOM      1  C   UNL     1       8.388  -2.323  24.454  0.00  0.00    +0.025 A 
ATOM      2  C   UNL     1       9.236  -2.511  23.353  0.00  0.00    +0.015 A 
ATOM      3  C   UNL     1       9.988  -1.448  22.846  0.00  0.00    +0.050 A 
ATOM      4  C   UNL     1       9.832  -0.177  23.407  0.00  0.00    +0.159 A 
ATOM      5  C   UNL     1       8.967   0.047  24.489  0.00  0.00    +0.166 A 
ATOM      6  C   UNL     1       8.328  -1.057  25.064  0.00  0.00    +0.061 A 
ENDROOT
BRANCH   1  17
ATOM      7  C   UNL     1       7.717  -4.275  25.779  0.00  0.00    +0.211 A 
ATOM      8  C   UNL     1       6.647  -5.232  26.176  0.00  0.00    +0.238 A 
ATOM      9  O   UNL     1       6.693  -5.833  27.242  0.00  0.00    -0.283 OA
ATOM     10  C   UNL     1       5.512  -5.373  25.255  0.00  0.00    +0.109 A 
ATOM     11  C   UNL     1       5.320  -4.366  24.307  0.00  0.00    +0.147 A 
ATOM     12  C   UNL     1       4.195  -4.404  23.475  0.00  0.00    +0.092 A 
ATOM     13  C   UNL     1       3.292  -5.467  23.590  0.00  0.00    +0.124 A 
ATOM     14  C   UNL     1       3.501  -6.492  24.502  0.00  0.00    +0.091 A 
ATOM     15  O   UNL     1       6.192  -3.309  24.150  0.00  0.00    -0.451 OA
ATOM     16  C   UNL     1       4.615  -6.447  25.334  0.00  0.00    +0.135 A 
ATOM     17  C   UNL     1       7.398  -3.358  24.833  0.00  0.00    +0.181 A 
BRANCH   7  19
ATOM     18  C   UNL     1       9.908  -5.163  25.803  0.00  0.00    +0.277 C 
ATOM     19  O   UNL     1       8.960  -4.278  26.397  0.00  0.00    -0.488 OA
ENDBRANCH   7  19
BRANCH  13  20
ATOM     20  O   UNL     1       2.178  -5.546  22.812  0.00  0.00    -0.507 OA
ATOM     21  H   UNL     1       1.610  -6.266  23.133  0.00  0.00    +0.292 HD
ENDBRANCH  13  20
BRANCH  16  22
ATOM     22  O   UNL     1       4.832  -7.484  26.197  0.00  0.00    -0.506 OA
ATOM     23  H   UNL     1       4.059  -8.070  26.218  0.00  0.00    +0.292 HD
ENDBRANCH  16  22
ENDBRANCH   1  17
BRANCH   4  24
ATOM     24  O   UNL     1      10.546   0.847  22.844  0.00  0.00    -0.503 OA
ATOM     25  H   UNL     1       9.891   1.474  22.488  0.00  0.00    +0.292 HD
ENDBRANCH   4  24
BRANCH   5  26
ATOM     26  O   UNL     1       8.707   1.363  24.801  0.00  0.00    -0.457 OA
BRANCH  26  27
ATOM     27  C   UNL     1       7.364   1.866  24.612  0.00  0.00    +0.339 C 
ATOM     28  O   UNL     1       6.653   1.335  23.489  0.00  0.00    -0.337 OA
ATOM     29  C   UNL     1       7.138   1.712  22.199  0.00  0.00    +0.198 C 
ATOM     30  C   UNL     1       7.233   3.228  21.999  0.00  0.00    +0.171 C 
ATOM     31  C   UNL     1       7.955   3.894  23.172  0.00  0.00    +0.180 C 
ATOM     32  C   UNL     1       7.389   3.411  24.517  0.00  0.00    +0.214 C 
BRANCH  30  33
ATOM     33  O   UNL     1       5.909   3.766  21.890  0.00  0.00    -0.387 OA
ATOM     34  H   UNL     1       5.733   3.928  20.945  0.00  0.00    +0.210 HD
ENDBRANCH  30  33
BRANCH  31  35
ATOM     35  O   UNL     1       9.374   3.690  23.113  0.00  0.00    -0.386 OA
ATOM     36  H   UNL     1       9.766   4.352  22.512  0.00  0.00    +0.210 HD
ENDBRANCH  31  35
BRANCH  32  37
ATOM     37  O   UNL     1       8.126   4.003  25.597  0.00  0.00    -0.383 OA
ATOM     38  H   UNL     1       8.373   4.902  25.308  0.00  0.00    +0.210 HD
ENDBRANCH  32  37
ENDBRANCH  26  27
ENDBRANCH   5  26
TORSDOF 10
ENDMDL
MODEL 6
REMARK VINA RESULT:      -7.2      1.724      3.506
REMARK  Name = 
REMARK  11 active torsions:
REMARK  status: ('A' for Active; 'I' for Inactive)
REMARK    1  A    between atoms: C_1  and  O_2
REMARK    2  A    between atoms: O_2  and  C_3
REMARK    3  A    between atoms: C_4  and  C_16
REMARK    4  A    between atoms: C_8  and  O_15
REMARK    5  A    between atoms: C_10  and  O_14
REMARK    6  A    between atoms: C_18  and  O_23
REMARK    7  A    between atoms: C_19  and  O_22
REMARK    8  A    between atoms: O_23  and  C_24
REMARK    9  A    between atoms: C_26  and  O_35
REMARK   10  A    between atoms: C_27  and  O_34
REMARK   11  A    between atoms: C_29  and  O_33
REMARK                            x       y       z     vdW  Elec       q    Type
REMARK                         _______ _______ _______ _____ _____    ______ ____
ROOT
ATOM      1  C   UNL     1       8.211  -2.667  24.473  0.00  0.00    +0.025 A 
ATOM      2  C   UNL     1       9.502  -2.744  23.932  0.00  0.00    +0.015 A 
ATOM      3  C   UNL     1      10.234  -1.582  23.673  0.00  0.00    +0.050 A 
ATOM      4  C   UNL     1       9.635  -0.339  23.894  0.00  0.00    +0.159 A 
ATOM      5  C   UNL     1       8.332  -0.231  24.405  0.00  0.00    +0.166 A 
ATOM      6  C   UNL     1       7.671  -1.405  24.782  0.00  0.00    +0.061 A 
ENDROOT
BRANCH   1  17
ATOM      7  C   UNL     1       6.746  -4.290  23.361  0.00  0.00    +0.211 A 
ATOM      8  C   UNL     1       5.945  -5.543  23.445  0.00  0.00    +0.238 A 
ATOM      9  O   UNL     1       5.695  -6.208  22.447  0.00  0.00    -0.283 OA
ATOM     10  C   UNL     1       5.522  -5.966  24.786  0.00  0.00    +0.109 A 
ATOM     11  C   UNL     1       6.192  -5.416  25.880  0.00  0.00    +0.147 A 
ATOM     12  C   UNL     1       5.893  -5.864  27.172  0.00  0.00    +0.092 A 
ATOM     13  C   UNL     1       4.908  -6.841  27.348  0.00  0.00    +0.124 A 
ATOM     14  C   UNL     1       4.209  -7.361  26.268  0.00  0.00    +0.091 A 
ATOM     15  O   UNL     1       7.160  -4.442  25.752  0.00  0.00    -0.451 OA
ATOM     16  C   UNL     1       4.514  -6.920  24.984  0.00  0.00    +0.135 A 
ATOM     17  C   UNL     1       7.331  -3.859  24.505  0.00  0.00    +0.181 A 
BRANCH   7  19
ATOM     18  C   UNL     1       5.816  -2.879  21.707  0.00  0.00    +0.277 C 
ATOM     19  O   UNL     1       6.942  -3.632  22.153  0.00  0.00    -0.488 OA
ENDBRANCH   7  19
BRANCH  13  20
ATOM     20  O   UNL     1       4.587  -7.318  28.582  0.00  0.00    -0.507 OA
ATOM     21  H   UNL     1       5.385  -7.342  29.137  0.00  0.00    +0.292 HD
ENDBRANCH  13  20
BRANCH  16  22
ATOM     22  O   UNL     1       3.789  -7.408  23.933  0.00  0.00    -0.506 OA
ATOM     23  H   UNL     1       3.722  -6.739  23.233  0.00  0.00    +0.292 HD
ENDBRANCH  16  22
ENDBRANCH   1  17
BRANCH   4  24
ATOM     24  O   UNL     1      10.367   0.774  23.574  0.00  0.00    -0.503 OA
ATOM     25  H   UNL     1      10.824   1.045  24.390  0.00  0.00    +0.292 HD
ENDBRANCH   4  24
BRANCH   5  26
ATOM     26  O   UNL     1       7.758   1.020  24.354  0.00  0.00    -0.457 OA
BRANCH  26  27
ATOM     27  C   UNL     1       7.155   1.454  23.113  0.00  0.00    +0.339 C 
ATOM     28  O   UNL     1       7.971   2.290  22.285  0.00  0.00    -0.337 OA
ATOM     29  C   UNL     1       8.244   3.600  22.786  0.00  0.00    +0.198 C 
ATOM     30  C   UNL     1       6.984   4.398  23.134  0.00  0.00    +0.171 C 
ATOM     31  C   UNL     1       6.029   3.571  23.997  0.00  0.00    +0.180 C 
ATOM     32  C   UNL     1       5.814   2.171  23.401  0.00  0.00    +0.214 C 
BRANCH  30  33
ATOM     33  O   UNL     1       6.321   4.774  21.920  0.00  0.00    -0.387 OA
ATOM     34  H   UNL     1       5.607   5.395  22.153  0.00  0.00    +0.210 HD
ENDBRANCH  30  33
BRANCH  31  35
ATOM     35  O   UNL     1       6.478   3.482  25.357  0.00  0.00    -0.386 OA
ATOM     36  H   UNL     1       7.233   2.864  25.404  0.00  0.00    +0.210 HD
ENDBRANCH  31  35
BRANCH  32  37
ATOM     37  O   UNL     1       4.967   1.398  24.262  0.00  0.00    -0.383 OA
ATOM     38  H   UNL     1       4.166   1.180  23.747  0.00  0.00    +0.210 HD
ENDBRANCH  32  37
ENDBRANCH  26  27
ENDBRANCH   5  26
TORSDOF 10
ENDMDL
MODEL 7
REMARK VINA RESULT:      -7.2      1.584      1.735
REMARK  Name = 
REMARK  11 active torsions:
REMARK  status: ('A' for Active; 'I' for Inactive)
REMARK    1  A    between atoms: C_1  and  O_2
REMARK    2  A    between atoms: O_2  and  C_3
REMARK    3  A    between atoms: C_4  and  C_16
REMARK    4  A    between atoms: C_8  and  O_15
REMARK    5  A    between atoms: C_10  and  O_14
REMARK    6  A    between atoms: C_18  and  O_23
REMARK    7  A    between atoms: C_19  and  O_22
REMARK    8  A    between atoms: O_23  and  C_24
REMARK    9  A    between atoms: C_26  and  O_35
REMARK   10  A    between atoms: C_27  and  O_34
REMARK   11  A    between atoms: C_29  and  O_33
REMARK                            x       y       z     vdW  Elec       q    Type
REMARK                         _______ _______ _______ _____ _____    ______ ____
ROOT
ATOM      1  C   UNL     1       9.027   0.360  24.435  0.00  0.00    +0.025 A 
ATOM      2  C   UNL     1      10.415   0.429  24.249  0.00  0.00    +0.015 A 
ATOM      3  C   UNL     1      11.022   1.629  23.869  0.00  0.00    +0.050 A 
ATOM      4  C   UNL     1      10.220   2.743  23.608  0.00  0.00    +0.159 A 
ATOM      5  C   UNL     1       8.825   2.695  23.754  0.00  0.00    +0.166 A 
ATOM      6  C   UNL     1       8.254   1.523  24.264  0.00  0.00    +0.061 A 
ENDROOT
BRANCH   1  17
ATOM      7  C   UNL     1       8.136  -1.463  25.813  0.00  0.00    +0.211 A 
ATOM      8  C   UNL     1       7.369  -2.738  25.890  0.00  0.00    +0.238 A 
ATOM      9  O   UNL     1       6.813  -3.085  26.925  0.00  0.00    -0.283 OA
ATOM     10  C   UNL     1       7.266  -3.521  24.653  0.00  0.00    +0.109 A 
ATOM     11  C   UNL     1       7.541  -2.870  23.449  0.00  0.00    +0.147 A 
ATOM     12  C   UNL     1       7.359  -3.547  22.237  0.00  0.00    +0.092 A 
ATOM     13  C   UNL     1       6.926  -4.877  22.253  0.00  0.00    +0.124 A 
ATOM     14  C   UNL     1       6.691  -5.543  23.449  0.00  0.00    +0.091 A 
ATOM     15  O   UNL     1       7.983  -1.565  23.389  0.00  0.00    -0.451 OA
ATOM     16  C   UNL     1       6.865  -4.865  24.651  0.00  0.00    +0.135 A 
ATOM     17  C   UNL     1       8.345  -0.948  24.576  0.00  0.00    +0.181 A 
BRANCH   7  19
ATOM     18  C   UNL     1       7.558   0.021  27.561  0.00  0.00    +0.277 C 
ATOM     19  O   UNL     1       8.558  -0.798  26.957  0.00  0.00    -0.488 OA
ENDBRANCH   7  19
BRANCH  13  20
ATOM     20  O   UNL     1       6.723  -5.577  21.103  0.00  0.00    -0.507 OA
ATOM     21  H   UNL     1       7.504  -6.123  20.915  0.00  0.00    +0.292 HD
ENDBRANCH  13  20
BRANCH  16  22
ATOM     22  O   UNL     1       6.673  -5.543  25.821  0.00  0.00    -0.506 OA
ATOM     23  H   UNL     1       6.379  -4.935  26.517  0.00  0.00    +0.292 HD
ENDBRANCH  16  22
ENDBRANCH   1  17
BRANCH   4  24
ATOM     24  O   UNL     1      10.850   3.883  23.184  0.00  0.00    -0.503 OA
ATOM     25  H   UNL     1      10.182   4.403  22.703  0.00  0.00    +0.292 HD
ENDBRANCH   4  24
BRANCH   5  26
ATOM     26  O   UNL     1       8.119   3.760  23.242  0.00  0.00    -0.457 OA
BRANCH  26  27
ATOM     27  C   UNL     1       7.404   4.621  24.159  0.00  0.00    +0.339 C 
ATOM     28  O   UNL     1       5.989   4.417  24.230  0.00  0.00    -0.337 OA
ATOM     29  C   UNL     1       5.240   4.779  23.068  0.00  0.00    +0.198 C 
ATOM     30  C   UNL     1       5.467   6.227  22.620  0.00  0.00    +0.171 C 
ATOM     31  C   UNL     1       6.960   6.552  22.545  0.00  0.00    +0.180 C 
ATOM     32  C   UNL     1       7.691   6.104  23.821  0.00  0.00    +0.214 C 
BRANCH  30  33
ATOM     33  O   UNL     1       4.836   7.108  23.559  0.00  0.00    -0.387 OA
ATOM     34  H   UNL     1       4.041   7.474  23.132  0.00  0.00    +0.210 HD
ENDBRANCH  30  33
BRANCH  31  35
ATOM     35  O   UNL     1       7.574   5.983  21.380  0.00  0.00    -0.386 OA
ATOM     36  H   UNL     1       8.494   5.736  21.593  0.00  0.00    +0.210 HD
ENDBRANCH  31  35
BRANCH  32  37
ATOM     37  O   UNL     1       9.096   6.364  23.695  0.00  0.00    -0.383 OA
ATOM     38  H   UNL     1       9.393   6.718  24.556  0.00  0.00    +0.210 HD
ENDBRANCH  32  37
ENDBRANCH  26  27
ENDBRANCH   5  26
TORSDOF 10
ENDMDL
MODEL 8
REMARK VINA RESULT:      -7.1      1.570      2.896
REMARK  Name = 
REMARK  11 active torsions:
REMARK  status: ('A' for Active; 'I' for Inactive)
REMARK    1  A    between atoms: C_1  and  O_2
REMARK    2  A    between atoms: O_2  and  C_3
REMARK    3  A    between atoms: C_4  and  C_16
REMARK    4  A    between atoms: C_8  and  O_15
REMARK    5  A    between atoms: C_10  and  O_14
REMARK    6  A    between atoms: C_18  and  O_23
REMARK    7  A    between atoms: C_19  and  O_22
REMARK    8  A    between atoms: O_23  and  C_24
REMARK    9  A    between atoms: C_26  and  O_35
REMARK   10  A    between atoms: C_27  and  O_34
REMARK   11  A    between atoms: C_29  and  O_33
REMARK                            x       y       z     vdW  Elec       q    Type
REMARK                         _______ _______ _______ _____ _____    ______ ____
ROOT
ATOM      1  C   UNL     1       9.490   0.043  24.296  0.00  0.00    +0.025 A 
ATOM      2  C   UNL     1      10.883   0.189  24.235  0.00  0.00    +0.015 A 
ATOM      3  C   UNL     1      11.457   1.449  24.047  0.00  0.00    +0.050 A 
ATOM      4  C   UNL     1      10.624   2.553  23.850  0.00  0.00    +0.159 A 
ATOM      5  C   UNL     1       9.226   2.432  23.875  0.00  0.00    +0.166 A 
ATOM      6  C   UNL     1       8.676   1.187  24.197  0.00  0.00    +0.061 A 
ENDROOT
BRANCH   1  17
ATOM      7  C   UNL     1       8.189  -1.666  23.113  0.00  0.00    +0.211 A 
ATOM      8  C   UNL     1       7.660  -3.059  23.074  0.00  0.00    +0.238 A 
ATOM      9  O   UNL     1       7.376  -3.604  22.015  0.00  0.00    -0.283 OA
ATOM     10  C   UNL     1       7.552  -3.759  24.361  0.00  0.00    +0.109 A 
ATOM     11  C   UNL     1       8.280  -3.250  25.437  0.00  0.00    +0.147 A 
ATOM     12  C   UNL     1       8.290  -3.940  26.655  0.00  0.00    +0.092 A 
ATOM     13  C   UNL     1       7.547  -5.119  26.781  0.00  0.00    +0.124 A 
ATOM     14  C   UNL     1       6.787  -5.606  25.727  0.00  0.00    +0.091 A 
ATOM     15  O   UNL     1       9.015  -2.085  25.361  0.00  0.00    -0.451 OA
ATOM     16  C   UNL     1       6.786  -4.922  24.515  0.00  0.00    +0.135 A 
ATOM     17  C   UNL     1       8.865  -1.299  24.229  0.00  0.00    +0.181 A 
BRANCH   7  19
ATOM     18  C   UNL     1       9.187  -0.779  21.161  0.00  0.00    +0.277 C 
ATOM     19  O   UNL     1       8.055  -0.808  22.029  0.00  0.00    -0.488 OA
ENDBRANCH   7  19
BRANCH  13  20
ATOM     20  O   UNL     1       7.530  -5.833  27.940  0.00  0.00    -0.507 OA
ATOM     21  H   UNL     1       7.377  -6.771  27.739  0.00  0.00    +0.292 HD
ENDBRANCH  13  20
BRANCH  16  22
ATOM     22  O   UNL     1       6.001  -5.389  23.499  0.00  0.00    -0.506 OA
ATOM     23  H   UNL     1       6.232  -4.947  22.666  0.00  0.00    +0.292 HD
ENDBRANCH  16  22
ENDBRANCH   1  17
BRANCH   4  24
ATOM     24  O   UNL     1      11.229   3.760  23.614  0.00  0.00    -0.503 OA
ATOM     25  H   UNL     1      10.557   4.326  23.196  0.00  0.00    +0.292 HD
ENDBRANCH   4  24
BRANCH   5  26
ATOM     26  O   UNL     1       8.511   3.522  23.433  0.00  0.00    -0.457 OA
BRANCH  26  27
ATOM     27  C   UNL     1       8.173   4.560  24.383  0.00  0.00    +0.339 C 
ATOM     28  O   UNL     1       6.867   4.471  24.964  0.00  0.00    -0.337 OA
ATOM     29  C   UNL     1       5.768   4.709  24.084  0.00  0.00    +0.198 C 
ATOM     30  C   UNL     1       5.848   6.053  23.353  0.00  0.00    +0.171 C 
ATOM     31  C   UNL     1       7.226   6.255  22.721  0.00  0.00    +0.180 C 
ATOM     32  C   UNL     1       8.348   5.951  23.727  0.00  0.00    +0.214 C 
BRANCH  30  33
ATOM     33  O   UNL     1       5.597   7.108  24.291  0.00  0.00    -0.387 OA
ATOM     34  H   UNL     1       6.055   7.905  23.969  0.00  0.00    +0.210 HD
ENDBRANCH  30  33
BRANCH  31  35
ATOM     35  O   UNL     1       7.388   5.476  21.527  0.00  0.00    -0.386 OA
ATOM     36  H   UNL     1       7.823   6.023  20.846  0.00  0.00    +0.210 HD
ENDBRANCH  31  35
BRANCH  32  37
ATOM     37  O   UNL     1       9.626   6.087  23.090  0.00  0.00    -0.383 OA
ATOM     38  H   UNL     1       9.712   7.025  22.832  0.00  0.00    +0.210 HD
ENDBRANCH  32  37
ENDBRANCH  26  27
ENDBRANCH   5  26
TORSDOF 10
ENDMDL
MODEL 9
REMARK VINA RESULT:      -7.1      1.402      2.811
REMARK  Name = 
REMARK  11 active torsions:
REMARK  status: ('A' for Active; 'I' for Inactive)
REMARK    1  A    between atoms: C_1  and  O_2
REMARK    2  A    between atoms: O_2  and  C_3
REMARK    3  A    between atoms: C_4  and  C_16
REMARK    4  A    between atoms: C_8  and  O_15
REMARK    5  A    between atoms: C_10  and  O_14
REMARK    6  A    between atoms: C_18  and  O_23
REMARK    7  A    between atoms: C_19  and  O_22
REMARK    8  A    between atoms: O_23  and  C_24
REMARK    9  A    between atoms: C_26  and  O_35
REMARK   10  A    between atoms: C_27  and  O_34
REMARK   11  A    between atoms: C_29  and  O_33
REMARK                            x       y       z     vdW  Elec       q    Type
REMARK                         _______ _______ _______ _____ _____    ______ ____
ROOT
ATOM      1  C   UNL     1       8.459  -1.834  23.522  0.00  0.00    +0.025 A 
ATOM      2  C   UNL     1       9.500  -1.922  22.587  0.00  0.00    +0.015 A 
ATOM      3  C   UNL     1       9.973  -0.776  21.941  0.00  0.00    +0.050 A 
ATOM      4  C   UNL     1       9.348   0.449  22.186  0.00  0.00    +0.159 A 
ATOM      5  C   UNL     1       8.283   0.562  23.093  0.00  0.00    +0.166 A 
ATOM      6  C   UNL     1       7.916  -0.572  23.826  0.00  0.00    +0.061 A 
ENDROOT
BRANCH   1  17
ATOM      7  C   UNL     1       7.087  -3.830  23.139  0.00  0.00    +0.211 A 
ATOM      8  C   UNL     1       6.497  -5.088  23.678  0.00  0.00    +0.238 A 
ATOM      9  O   UNL     1       6.193  -6.017  22.940  0.00  0.00    -0.283 OA
ATOM     10  C   UNL     1       6.354  -5.177  25.137  0.00  0.00    +0.109 A 
ATOM     11  C   UNL     1       7.101  -4.291  25.915  0.00  0.00    +0.147 A 
ATOM     12  C   UNL     1       7.076  -4.404  27.310  0.00  0.00    +0.092 A 
ATOM     13  C   UNL     1       6.281  -5.390  27.904  0.00  0.00    +0.124 A 
ATOM     14  C   UNL     1       5.503  -6.247  27.136  0.00  0.00    +0.091 A 
ATOM     15  O   UNL     1       7.887  -3.296  25.372  0.00  0.00    -0.451 OA
ATOM     16  C   UNL     1       5.537  -6.137  25.749  0.00  0.00    +0.135 A 
ATOM     17  C   UNL     1       7.775  -3.054  24.011  0.00  0.00    +0.181 A 
BRANCH   7  19
ATOM     18  C   UNL     1       5.699  -3.071  21.382  0.00  0.00    +0.277 C 
ATOM     19  O   UNL     1       6.995  -3.504  21.792  0.00  0.00    -0.488 OA
ENDBRANCH   7  19
BRANCH  13  20
ATOM     20  O   UNL     1       6.229  -5.549  29.255  0.00  0.00    -0.507 OA
ATOM     21  H   UNL     1       6.815  -6.278  29.518  0.00  0.00    +0.292 HD
ENDBRANCH  13  20
BRANCH  16  22
ATOM     22  O   UNL     1       4.735  -6.957  25.007  0.00  0.00    -0.506 OA
ATOM     23  H   UNL     1       4.834  -7.877  25.299  0.00  0.00    +0.292 HD
ENDBRANCH  16  22
ENDBRANCH   1  17
BRANCH   4  24
ATOM     24  O   UNL     1       9.807   1.536  21.491  0.00  0.00    -0.503 OA
ATOM     25  H   UNL     1      10.369   1.187  20.776  0.00  0.00    +0.292 HD
ENDBRANCH   4  24
BRANCH   5  26
ATOM     26  O   UNL     1       7.590   1.752  23.077  0.00  0.00    -0.457 OA
BRANCH  26  27
ATOM     27  C   UNL     1       7.689   2.626  24.225  0.00  0.00    +0.339 C 
ATOM     28  O   UNL     1       6.506   2.741  25.024  0.00  0.00    -0.337 OA
ATOM     29  C   UNL     1       5.400   3.412  24.419  0.00  0.00    +0.198 C 
ATOM     30  C   UNL     1       5.740   4.815  23.908  0.00  0.00    +0.171 C 
ATOM     31  C   UNL     1       7.015   4.800  23.064  0.00  0.00    +0.180 C 
ATOM     32  C   UNL     1       8.143   4.035  23.776  0.00  0.00    +0.214 C 
BRANCH  30  33
ATOM     33  O   UNL     1       5.924   5.687  25.031  0.00  0.00    -0.387 OA
ATOM     34  H   UNL     1       6.879   5.732  25.217  0.00  0.00    +0.210 HD
ENDBRANCH  30  33
BRANCH  31  35
ATOM     35  O   UNL     1       6.785   4.263  21.754  0.00  0.00    -0.386 OA
ATOM     36  H   UNL     1       5.970   3.725  21.769  0.00  0.00    +0.210 HD
ENDBRANCH  31  35
BRANCH  32  37
ATOM     37  O   UNL     1       9.304   3.984  22.936  0.00  0.00    -0.383 OA
ATOM     38  H   UNL     1       9.462   4.894  22.620  0.00  0.00    +0.210 HD
ENDBRANCH  32  37
ENDBRANCH  26  27
ENDBRANCH   5  26
TORSDOF 10
ENDMDL
