MODEL 1
REMARK VINA RESULT:      -7.4      0.000      0.000
REMARK  Name = 
REMARK  11 active torsions:
REMARK  status: ('A' for Active; 'I' for Inactive)
REMARK    1  A    between atoms: C_1  and  C_2
REMARK    2  A    between atoms: C_4  and  O_37
REMARK    3  A    between atoms: C_6  and  O_36
REMARK    4  A    between atoms: C_8  and  O_35
REMARK    5  A    between atoms: C_10  and  O_13
REMARK    6  A    between atoms: O_13  and  C_14
REMARK    7  A    between atoms: C_16  and  O_34
REMARK    8  A    between atoms: C_21  and  C_26
REMARK    9  A    between atoms: C_22  and  O_25
REMARK   10  A    between atoms: C_28  and  O_33
REMARK   11  A    between atoms: C_29  and  O_32
REMARK                            x       y       z     vdW  Elec       q    Type
REMARK                         _______ _______ _______ _____ _____    ______ ____
ROOT
ATOM      1  C   UNL     1       7.524   1.293  23.728  0.00  0.00    +0.131 A 
ATOM      2  C   UNL     1       6.743   0.131  23.838  0.00  0.00    +0.093 A 
ATOM      3  C   UNL     1       7.338  -1.145  23.874  0.00  0.00    +0.147 A 
ATOM      4  O   UNL     1       6.493  -2.230  23.994  0.00  0.00    -0.451 OA
ATOM      5  C   UNL     1       7.044  -3.502  24.138  0.00  0.00    +0.181 A 
ATOM      6  C   UNL     1       8.367  -3.748  24.084  0.00  0.00    +0.208 A 
ATOM      7  C   UNL     1       9.311  -2.626  23.855  0.00  0.00    +0.238 A 
ATOM      8  O   UNL     1      10.500  -2.878  23.704  0.00  0.00    -0.283 OA
ATOM      9  C   UNL     1       8.729  -1.274  23.791  0.00  0.00    +0.109 A 
ATOM     10  C   UNL     1       9.504  -0.114  23.665  0.00  0.00    +0.135 A 
ATOM     11  C   UNL     1       8.907   1.155  23.606  0.00  0.00    +0.092 A 
ENDROOT
BRANCH   5  12
ATOM     12  C   UNL     1       6.057  -4.617  24.240  0.00  0.00    +0.025 A 
ATOM     13  C   UNL     1       5.318  -5.030  23.116  0.00  0.00    +0.015 A 
ATOM     14  C   UNL     1       4.475  -6.145  23.170  0.00  0.00    +0.050 A 
ATOM     15  C   UNL     1       4.367  -6.872  24.347  0.00  0.00    +0.158 A 
ATOM     16  C   UNL     1       5.066  -6.466  25.484  0.00  0.00    +0.159 A 
ATOM     17  C   UNL     1       5.888  -5.337  25.438  0.00  0.00    +0.060 A 
BRANCH  15  18
ATOM     18  O   UNL     1       3.578  -7.975  24.395  0.00  0.00    -0.503 OA
ATOM     19  H   UNL     1       3.146  -7.932  25.274  0.00  0.00    +0.292 HD
ENDBRANCH  15  18
BRANCH  16  20
ATOM     20  O   UNL     1       4.946  -7.230  26.611  0.00  0.00    -0.503 OA
ATOM     21  H   UNL     1       5.560  -6.871  27.275  0.00  0.00    +0.292 HD
ENDBRANCH  16  20
ENDBRANCH   5  12
BRANCH   6  22
ATOM     22  O   UNL     1       8.887  -5.034  24.131  0.00  0.00    -0.501 OA
ATOM     23  H   UNL     1       9.167  -5.242  23.221  0.00  0.00    +0.292 HD
ENDBRANCH   6  22
BRANCH  10  24
ATOM     24  O   UNL     1      10.870  -0.183  23.608  0.00  0.00    -0.506 OA
ATOM     25  H   UNL     1      11.231  -0.593  24.408  0.00  0.00    +0.292 HD
ENDBRANCH  10  24
BRANCH   1  26
ATOM     26  O   UNL     1       6.847   2.491  23.773  0.00  0.00    -0.461 OA
BRANCH  26  30
ATOM     27  C   UNL     1       4.015   3.294  24.506  0.00  0.00    +0.041 C 
ATOM     28  C   UNL     1       4.234   3.863  23.107  0.00  0.00    +0.150 C 
ATOM     29  O   UNL     1       5.059   3.020  22.281  0.00  0.00    -0.334 OA
ATOM     30  C   UNL     1       6.472   3.090  22.514  0.00  0.00    +0.339 C 
ATOM     31  C   UNL     1       6.988   4.541  22.408  0.00  0.00    +0.214 C 
ATOM     32  C   UNL     1       6.215   5.474  23.340  0.00  0.00    +0.180 C 
ATOM     33  C   UNL     1       4.707   5.330  23.089  0.00  0.00    +0.174 C 
BRANCH  31  34
ATOM     34  O   UNL     1       8.396   4.614  22.655  0.00  0.00    -0.383 OA
ATOM     35  H   UNL     1       8.825   3.972  22.059  0.00  0.00    +0.210 HD
ENDBRANCH  31  34
BRANCH  32  36
ATOM     36  O   UNL     1       6.570   5.237  24.707  0.00  0.00    -0.386 OA
ATOM     37  H   UNL     1       6.167   4.401  25.004  0.00  0.00    +0.210 HD
ENDBRANCH  32  36
BRANCH  33  38
ATOM     38  O   UNL     1       4.407   5.891  21.797  0.00  0.00    -0.387 OA
ATOM     39  H   UNL     1       3.687   6.541  21.900  0.00  0.00    +0.210 HD
ENDBRANCH  33  38
ENDBRANCH  26  30
ENDBRANCH   1  26
TORSDOF 10
ENDMDL
MODEL 2
REMARK VINA RESULT:      -7.4      1.579      8.870
REMARK  Name = 
REMARK  11 active torsions:
REMARK  status: ('A' for Active; 'I' for Inactive)
REMARK    1  A    between atoms: C_1  and  C_2
REMARK    2  A    between atoms: C_4  and  O_37
REMARK    3  A    between atoms: C_6  and  O_36
REMARK    4  A    between atoms: C_8  and  O_35
REMARK    5  A    between atoms: C_10  and  O_13
REMARK    6  A    between atoms: O_13  and  C_14
REMARK    7  A    between atoms: C_16  and  O_34
REMARK    8  A    between atoms: C_21  and  C_26
REMARK    9  A    between atoms: C_22  and  O_25
REMARK   10  A    between atoms: C_28  and  O_33
REMARK   11  A    between atoms: C_29  and  O_32
REMARK                            x       y       z     vdW  Elec       q    Type
REMARK                         _______ _______ _______ _____ _____    ______ ____
ROOT
ATOM      1  C   UNL     1       6.751  -3.074  23.626  0.00  0.00    +0.131 A 
ATOM      2  C   UNL     1       6.418  -1.711  23.598  0.00  0.00    +0.093 A 
ATOM      3  C   UNL     1       7.416  -0.717  23.609  0.00  0.00    +0.147 A 
ATOM      4  O   UNL     1       6.997   0.597  23.568  0.00  0.00    -0.451 OA
ATOM      5  C   UNL     1       7.951   1.608  23.473  0.00  0.00    +0.181 A 
ATOM      6  C   UNL     1       9.278   1.381  23.501  0.00  0.00    +0.208 A 
ATOM      7  C   UNL     1       9.779  -0.008  23.646  0.00  0.00    +0.238 A 
ATOM      8  O   UNL     1      10.983  -0.190  23.775  0.00  0.00    -0.283 OA
ATOM      9  C   UNL     1       8.767  -1.079  23.658  0.00  0.00    +0.109 A 
ATOM     10  C   UNL     1       9.095  -2.440  23.703  0.00  0.00    +0.135 A 
ATOM     11  C   UNL     1       8.098  -3.428  23.715  0.00  0.00    +0.092 A 
ENDROOT
BRANCH   5  12
ATOM     12  C   UNL     1       7.408   2.998  23.456  0.00  0.00    +0.025 A 
ATOM     13  C   UNL     1       6.792   3.545  24.597  0.00  0.00    +0.015 A 
ATOM     14  C   UNL     1       6.382   4.882  24.632  0.00  0.00    +0.050 A 
ATOM     15  C   UNL     1       6.593   5.697  23.528  0.00  0.00    +0.158 A 
ATOM     16  C   UNL     1       7.174   5.171  22.374  0.00  0.00    +0.159 A 
ATOM     17  C   UNL     1       7.560   3.830  22.330  0.00  0.00    +0.060 A 
BRANCH  15  18
ATOM     18  O   UNL     1       6.229   7.004  23.568  0.00  0.00    -0.503 OA
ATOM     19  H   UNL     1       7.076   7.498  23.534  0.00  0.00    +0.292 HD
ENDBRANCH  15  18
BRANCH  16  20
ATOM     20  O   UNL     1       7.383   6.021  21.324  0.00  0.00    -0.503 OA
ATOM     21  H   UNL     1       7.882   5.532  20.646  0.00  0.00    +0.292 HD
ENDBRANCH  16  20
ENDBRANCH   5  12
BRANCH   6  22
ATOM     22  O   UNL     1      10.209   2.410  23.504  0.00  0.00    -0.501 OA
ATOM     23  H   UNL     1       9.697   3.234  23.414  0.00  0.00    +0.292 HD
ENDBRANCH   6  22
BRANCH  10  24
ATOM     24  O   UNL     1      10.402  -2.849  23.724  0.00  0.00    -0.506 OA
ATOM     25  H   UNL     1      10.506  -3.703  23.278  0.00  0.00    +0.292 HD
ENDBRANCH  10  24
BRANCH   1  26
ATOM     26  O   UNL     1       5.703  -3.962  23.540  0.00  0.00    -0.461 OA
BRANCH  26  30
ATOM     27  C   UNL     1       3.876  -4.114  25.958  0.00  0.00    +0.041 C 
ATOM     28  C   UNL     1       4.409  -5.532  25.780  0.00  0.00    +0.150 C 
ATOM     29  O   UNL     1       5.769  -5.566  25.308  0.00  0.00    -0.334 OA
ATOM     30  C   UNL     1       5.961  -5.334  23.906  0.00  0.00    +0.339 C 
ATOM     31  C   UNL     1       5.120  -6.309  23.054  0.00  0.00    +0.214 C 
ATOM     32  C   UNL     1       3.642  -6.249  23.439  0.00  0.00    +0.180 C 
ATOM     33  C   UNL     1       3.489  -6.453  24.954  0.00  0.00    +0.174 C 
BRANCH  31  34
ATOM     34  O   UNL     1       5.299  -6.068  21.655  0.00  0.00    -0.383 OA
ATOM     35  H   UNL     1       4.891  -6.816  21.181  0.00  0.00    +0.210 HD
ENDBRANCH  31  34
BRANCH  32  36
ATOM     36  O   UNL     1       3.047  -5.027  22.988  0.00  0.00    -0.386 OA
ATOM     37  H   UNL     1       2.516  -5.203  22.189  0.00  0.00    +0.210 HD
ENDBRANCH  32  36
BRANCH  33  38
ATOM     38  O   UNL     1       3.817  -7.822  25.262  0.00  0.00    -0.387 OA
ATOM     39  H   UNL     1       3.247  -8.121  25.995  0.00  0.00    +0.210 HD
ENDBRANCH  33  38
ENDBRANCH  26  30
ENDBRANCH   1  26
TORSDOF 10
ENDMDL
MODEL 3
REMARK VINA RESULT:      -7.4      2.467      9.071
REMARK  Name = 
REMARK  11 active torsions:
REMARK  status: ('A' for Active; 'I' for Inactive)
REMARK    1  A    between atoms: C_1  and  C_2
REMARK    2  A    between atoms: C_4  and  O_37
REMARK    3  A    between atoms: C_6  and  O_36
REMARK    4  A    between atoms: C_8  and  O_35
REMARK    5  A    between atoms: C_10  and  O_13
REMARK    6  A    between atoms: O_13  and  C_14
REMARK    7  A    between atoms: C_16  and  O_34
REMARK    8  A    between atoms: C_21  and  C_26
REMARK    9  A    between atoms: C_22  and  O_25
REMARK   10  A    between atoms: C_28  and  O_33
REMARK   11  A    between atoms: C_29  and  O_32
REMARK                            x       y       z     vdW  Elec       q    Type
REMARK                         _______ _______ _______ _____ _____    ______ ____
ROOT
ATOM      1  C   UNL     1       6.895  -3.952  26.797  0.00  0.00    +0.131 A 
ATOM      2  C   UNL     1       6.880  -2.601  26.414  0.00  0.00    +0.093 A 
ATOM      3  C   UNL     1       7.816  -2.098  25.489  0.00  0.00    +0.147 A 
ATOM      4  O   UNL     1       7.719  -0.760  25.162  0.00  0.00    -0.451 OA
ATOM      5  C   UNL     1       8.557  -0.245  24.175  0.00  0.00    +0.181 A 
ATOM      6  C   UNL     1       9.523  -0.963  23.571  0.00  0.00    +0.208 A 
ATOM      7  C   UNL     1       9.733  -2.379  23.962  0.00  0.00    +0.238 A 
ATOM      8  O   UNL     1      10.680  -2.989  23.482  0.00  0.00    -0.283 OA
ATOM      9  C   UNL     1       8.787  -2.943  24.942  0.00  0.00    +0.109 A 
ATOM     10  C   UNL     1       8.810  -4.285  25.340  0.00  0.00    +0.135 A 
ATOM     11  C   UNL     1       7.891  -4.780  26.279  0.00  0.00    +0.092 A 
ENDROOT
BRANCH   5  12
ATOM     12  C   UNL     1       8.398   1.214  23.901  0.00  0.00    +0.025 A 
ATOM     13  C   UNL     1       9.243   2.158  24.513  0.00  0.00    +0.015 A 
ATOM     14  C   UNL     1       9.180   3.515  24.179  0.00  0.00    +0.050 A 
ATOM     15  C   UNL     1       8.277   3.947  23.218  0.00  0.00    +0.158 A 
ATOM     16  C   UNL     1       7.408   3.036  22.618  0.00  0.00    +0.159 A 
ATOM     17  C   UNL     1       7.453   1.686  22.970  0.00  0.00    +0.060 A 
BRANCH  15  18
ATOM     18  O   UNL     1       8.235   5.257  22.864  0.00  0.00    -0.503 OA
ATOM     19  H   UNL     1       7.401   5.350  22.358  0.00  0.00    +0.292 HD
ENDBRANCH  15  18
BRANCH  16  20
ATOM     20  O   UNL     1       6.556   3.508  21.659  0.00  0.00    -0.503 OA
ATOM     21  H   UNL     1       5.750   2.962  21.689  0.00  0.00    +0.292 HD
ENDBRANCH  16  20
ENDBRANCH   5  12
BRANCH   6  22
ATOM     22  O   UNL     1      10.409  -0.403  22.662  0.00  0.00    -0.501 OA
ATOM     23  H   UNL     1       9.865  -0.088  21.918  0.00  0.00    +0.292 HD
ENDBRANCH   6  22
BRANCH  10  24
ATOM     24  O   UNL     1       9.722  -5.160  24.815  0.00  0.00    -0.506 OA
ATOM     25  H   UNL     1      10.620  -4.946  25.111  0.00  0.00    +0.292 HD
ENDBRANCH  10  24
BRANCH   1  26
ATOM     26  O   UNL     1       5.894  -4.355  27.652  0.00  0.00    -0.461 OA
BRANCH  26  30
ATOM     27  C   UNL     1       4.188  -3.691  30.072  0.00  0.00    +0.041 C 
ATOM     28  C   UNL     1       4.641  -5.131  30.294  0.00  0.00    +0.150 C 
ATOM     29  O   UNL     1       5.971  -5.384  29.806  0.00  0.00    -0.334 OA
ATOM     30  C   UNL     1       6.102  -5.578  28.391  0.00  0.00    +0.339 C 
ATOM     31  C   UNL     1       5.171  -6.702  27.889  0.00  0.00    +0.214 C 
ATOM     32  C   UNL     1       3.720  -6.441  28.291  0.00  0.00    +0.180 C 
ATOM     33  C   UNL     1       3.635  -6.192  29.804  0.00  0.00    +0.174 C 
BRANCH  31  34
ATOM     34  O   UNL     1       5.290  -6.886  26.474  0.00  0.00    -0.383 OA
ATOM     35  H   UNL     1       6.216  -6.692  26.237  0.00  0.00    +0.210 HD
ENDBRANCH  31  34
BRANCH  32  36
ATOM     36  O   UNL     1       3.164  -5.367  27.525  0.00  0.00    -0.386 OA
ATOM     37  H   UNL     1       3.199  -5.594  26.578  0.00  0.00    +0.210 HD
ENDBRANCH  32  36
BRANCH  33  38
ATOM     38  O   UNL     1       3.910  -7.431  30.485  0.00  0.00    -0.387 OA
ATOM     39  H   UNL     1       3.062  -7.852  30.720  0.00  0.00    +0.210 HD
ENDBRANCH  33  38
ENDBRANCH  26  30
ENDBRANCH   1  26
TORSDOF 10
ENDMDL
MODEL 4
REMARK VINA RESULT:      -7.3      1.314      2.503
REMARK  Name = 
REMARK  11 active torsions:
REMARK  status: ('A' for Active; 'I' for Inactive)
REMARK    1  A    between atoms: C_1  and  C_2
REMARK    2  A    between atoms: C_4  and  O_37
REMARK    3  A    between atoms: C_6  and  O_36
REMARK    4  A    between atoms: C_8  and  O_35
REMARK    5  A    between atoms: C_10  and  O_13
REMARK    6  A    between atoms: O_13  and  C_14
REMARK    7  A    between atoms: C_16  and  O_34
REMARK    8  A    between atoms: C_21  and  C_26
REMARK    9  A    between atoms: C_22  and  O_25
REMARK   10  A    between atoms: C_28  and  O_33
REMARK   11  A    between atoms: C_29  and  O_32
REMARK                            x       y       z     vdW  Elec       q    Type
REMARK                         _______ _______ _______ _____ _____    ______ ____
ROOT
ATOM      1  C   UNL     1       6.809   1.326  22.807  0.00  0.00    +0.131 A 
ATOM      2  C   UNL     1       6.418   0.173  23.507  0.00  0.00    +0.093 A 
ATOM      3  C   UNL     1       7.296  -0.919  23.657  0.00  0.00    +0.147 A 
ATOM      4  O   UNL     1       6.831  -2.006  24.369  0.00  0.00    -0.451 OA
ATOM      5  C   UNL     1       7.701  -3.063  24.630  0.00  0.00    +0.181 A 
ATOM      6  C   UNL     1       8.959  -3.125  24.155  0.00  0.00    +0.208 A 
ATOM      7  C   UNL     1       9.471  -2.027  23.299  0.00  0.00    +0.238 A 
ATOM      8  O   UNL     1      10.578  -2.145  22.787  0.00  0.00    -0.283 OA
ATOM      9  C   UNL     1       8.578  -0.872  23.099  0.00  0.00    +0.109 A 
ATOM     10  C   UNL     1       8.958   0.274  22.387  0.00  0.00    +0.135 A 
ATOM     11  C   UNL     1       8.074   1.351  22.219  0.00  0.00    +0.092 A 
ENDROOT
BRANCH   5  12
ATOM     12  C   UNL     1       7.107  -4.205  25.388  0.00  0.00    +0.025 A 
ATOM     13  C   UNL     1       7.327  -4.343  26.771  0.00  0.00    +0.015 A 
ATOM     14  C   UNL     1       6.685  -5.341  27.513  0.00  0.00    +0.050 A 
ATOM     15  C   UNL     1       5.804  -6.209  26.883  0.00  0.00    +0.158 A 
ATOM     16  C   UNL     1       5.592  -6.112  25.508  0.00  0.00    +0.159 A 
ATOM     17  C   UNL     1       6.252  -5.133  24.763  0.00  0.00    +0.060 A 
BRANCH  15  18
ATOM     18  O   UNL     1       5.152  -7.157  27.604  0.00  0.00    -0.503 OA
ATOM     19  H   UNL     1       4.495  -6.657  28.133  0.00  0.00    +0.292 HD
ENDBRANCH  15  18
BRANCH  16  20
ATOM     20  O   UNL     1       4.695  -6.974  24.941  0.00  0.00    -0.503 OA
ATOM     21  H   UNL     1       4.834  -6.949  23.978  0.00  0.00    +0.292 HD
ENDBRANCH  16  20
ENDBRANCH   5  12
BRANCH   6  22
ATOM     22  O   UNL     1       9.773  -4.232  24.345  0.00  0.00    -0.501 OA
ATOM     23  H   UNL     1       9.237  -4.876  24.844  0.00  0.00    +0.292 HD
ENDBRANCH   6  22
BRANCH  10  24
ATOM     24  O   UNL     1      10.210   0.382  21.844  0.00  0.00    -0.506 OA
ATOM     25  H   UNL     1      10.831  -0.222  22.279  0.00  0.00    +0.292 HD
ENDBRANCH  10  24
BRANCH   1  26
ATOM     26  O   UNL     1       5.901   2.360  22.780  0.00  0.00    -0.461 OA
BRANCH  26  30
ATOM     27  C   UNL     1       7.255   5.028  22.271  0.00  0.00    +0.041 C 
ATOM     28  C   UNL     1       6.548   5.196  23.613  0.00  0.00    +0.150 C 
ATOM     29  O   UNL     1       6.544   3.992  24.401  0.00  0.00    -0.334 OA
ATOM     30  C   UNL     1       5.579   2.996  24.035  0.00  0.00    +0.339 C 
ATOM     31  C   UNL     1       4.149   3.578  24.017  0.00  0.00    +0.214 C 
ATOM     32  C   UNL     1       4.062   4.808  23.114  0.00  0.00    +0.180 C 
ATOM     33  C   UNL     1       5.143   5.824  23.511  0.00  0.00    +0.174 C 
BRANCH  31  34
ATOM     34  O   UNL     1       3.187   2.589  23.638  0.00  0.00    -0.383 OA
ATOM     35  H   UNL     1       2.559   2.501  24.379  0.00  0.00    +0.210 HD
ENDBRANCH  31  34
BRANCH  32  36
ATOM     36  O   UNL     1       4.140   4.433  21.734  0.00  0.00    -0.386 OA
ATOM     37  H   UNL     1       3.281   4.602  21.305  0.00  0.00    +0.210 HD
ENDBRANCH  32  36
BRANCH  33  38
ATOM     38  O   UNL     1       4.797   6.378  24.795  0.00  0.00    -0.387 OA
ATOM     39  H   UNL     1       3.868   6.676  24.764  0.00  0.00    +0.210 HD
ENDBRANCH  33  38
ENDBRANCH  26  30
ENDBRANCH   1  26
TORSDOF 10
ENDMDL
MODEL 5
REMARK VINA RESULT:      -7.3      1.043      1.944
REMARK  Name = 
REMARK  11 active torsions:
REMARK  status: ('A' for Active; 'I' for Inactive)
REMARK    1  A    between atoms: C_1  and  C_2
REMARK    2  A    between atoms: C_4  and  O_37
REMARK    3  A    between atoms: C_6  and  O_36
REMARK    4  A    between atoms: C_8  and  O_35
REMARK    5  A    between atoms: C_10  and  O_13
REMARK    6  A    between atoms: O_13  and  C_14
REMARK    7  A    between atoms: C_16  and  O_34
REMARK    8  A    between atoms: C_21  and  C_26
REMARK    9  A    between atoms: C_22  and  O_25
REMARK   10  A    between atoms: C_28  and  O_33
REMARK   11  A    between atoms: C_29  and  O_32
REMARK                            x       y       z     vdW  Elec       q    Type
REMARK                         _______ _______ _______ _____ _____    ______ ____
ROOT
ATOM      1  C   UNL     1       7.351   1.036  23.415  0.00  0.00    +0.131 A 
ATOM      2  C   UNL     1       6.599  -0.118  23.689  0.00  0.00    +0.093 A 
ATOM      3  C   UNL     1       7.221  -1.372  23.843  0.00  0.00    +0.147 A 
ATOM      4  O   UNL     1       6.404  -2.450  24.121  0.00  0.00    -0.451 OA
ATOM      5  C   UNL     1       6.987  -3.688  24.383  0.00  0.00    +0.181 A 
ATOM      6  C   UNL     1       8.311  -3.919  24.301  0.00  0.00    +0.208 A 
ATOM      7  C   UNL     1       9.221  -2.815  23.906  0.00  0.00    +0.238 A 
ATOM      8  O   UNL     1      10.408  -3.064  23.733  0.00  0.00    -0.283 OA
ATOM      9  C   UNL     1       8.610  -1.488  23.715  0.00  0.00    +0.109 A 
ATOM     10  C   UNL     1       9.354  -0.338  23.426  0.00  0.00    +0.135 A 
ATOM     11  C   UNL     1       8.730   0.906  23.250  0.00  0.00    +0.092 A 
ENDROOT
BRANCH   5  12
ATOM     12  C   UNL     1       6.028  -4.800  24.653  0.00  0.00    +0.025 A 
ATOM     13  C   UNL     1       5.213  -5.313  23.627  0.00  0.00    +0.015 A 
ATOM     14  C   UNL     1       4.394  -6.428  23.837  0.00  0.00    +0.050 A 
ATOM     15  C   UNL     1       4.386  -7.054  25.076  0.00  0.00    +0.158 A 
ATOM     16  C   UNL     1       5.163  -6.547  26.119  0.00  0.00    +0.159 A 
ATOM     17  C   UNL     1       5.960  -5.419  25.916  0.00  0.00    +0.060 A 
BRANCH  15  18
ATOM     18  O   UNL     1       3.621  -8.157  25.276  0.00  0.00    -0.503 OA
ATOM     19  H   UNL     1       2.758  -7.807  25.582  0.00  0.00    +0.292 HD
ENDBRANCH  15  18
BRANCH  16  20
ATOM     20  O   UNL     1       5.140  -7.215  27.311  0.00  0.00    -0.503 OA
ATOM     21  H   UNL     1       5.899  -6.904  27.835  0.00  0.00    +0.292 HD
ENDBRANCH  16  20
ENDBRANCH   5  12
BRANCH   6  22
ATOM     22  O   UNL     1       8.859  -5.182  24.470  0.00  0.00    -0.501 OA
ATOM     23  H   UNL     1       8.715  -5.412  25.406  0.00  0.00    +0.292 HD
ENDBRANCH   6  22
BRANCH  10  24
ATOM     24  O   UNL     1      10.718  -0.391  23.318  0.00  0.00    -0.506 OA
ATOM     25  H   UNL     1      11.072  -1.177  23.762  0.00  0.00    +0.292 HD
ENDBRANCH  10  24
BRANCH   1  26
ATOM     26  O   UNL     1       6.652   2.220  23.354  0.00  0.00    -0.461 OA
BRANCH  26  30
ATOM     27  C   UNL     1       8.212   4.801  23.687  0.00  0.00    +0.041 C 
ATOM     28  C   UNL     1       7.169   4.827  24.799  0.00  0.00    +0.150 C 
ATOM     29  O   UNL     1       6.891   3.523  25.341  0.00  0.00    -0.334 OA
ATOM     30  C   UNL     1       6.022   2.685  24.567  0.00  0.00    +0.339 C 
ATOM     31  C   UNL     1       4.682   3.389  24.268  0.00  0.00    +0.214 C 
ATOM     32  C   UNL     1       4.905   4.745  23.597  0.00  0.00    +0.180 C 
ATOM     33  C   UNL     1       5.878   5.587  24.434  0.00  0.00    +0.174 C 
BRANCH  31  34
ATOM     34  O   UNL     1       3.819   2.559  23.483  0.00  0.00    -0.383 OA
ATOM     35  H   UNL     1       3.331   1.986  24.102  0.00  0.00    +0.210 HD
ENDBRANCH  31  34
BRANCH  32  36
ATOM     36  O   UNL     1       5.346   4.577  22.245  0.00  0.00    -0.386 OA
ATOM     37  H   UNL     1       4.986   5.298  21.696  0.00  0.00    +0.210 HD
ENDBRANCH  32  36
BRANCH  33  38
ATOM     38  O   UNL     1       5.213   5.969  25.654  0.00  0.00    -0.387 OA
ATOM     39  H   UNL     1       5.170   5.191  26.242  0.00  0.00    +0.210 HD
ENDBRANCH  33  38
ENDBRANCH  26  30
ENDBRANCH   1  26
TORSDOF 10
ENDMDL
MODEL 6
REMARK VINA RESULT:      -7.2      1.986      3.069
REMARK  Name = 
REMARK  11 active torsions:
REMARK  status: ('A' for Active; 'I' for Inactive)
REMARK    1  A    between atoms: C_1  and  C_2
REMARK    2  A    between atoms: C_4  and  O_37
REMARK    3  A    between atoms: C_6  and  O_36
REMARK    4  A    between atoms: C_8  and  O_35
REMARK    5  A    between atoms: C_10  and  O_13
REMARK    6  A    between atoms: O_13  and  C_14
REMARK    7  A    between atoms: C_16  and  O_34
REMARK    8  A    between atoms: C_21  and  C_26
REMARK    9  A    between atoms: C_22  and  O_25
REMARK   10  A    between atoms: C_28  and  O_33
REMARK   11  A    between atoms: C_29  and  O_32
REMARK                            x       y       z     vdW  Elec       q    Type
REMARK                         _______ _______ _______ _____ _____    ______ ____
ROOT
ATOM      1  C   UNL     1       7.612  -0.291  23.486  0.00  0.00    +0.131 A 
ATOM      2  C   UNL     1       6.845  -1.143  24.296  0.00  0.00    +0.093 A 
ATOM      3  C   UNL     1       7.353  -2.382  24.734  0.00  0.00    +0.147 A 
ATOM      4  O   UNL     1       6.533  -3.150  25.536  0.00  0.00    -0.451 OA
ATOM      5  C   UNL     1       7.033  -4.332  26.077  0.00  0.00    +0.181 A 
ATOM      6  C   UNL     1       8.257  -4.818  25.795  0.00  0.00    +0.208 A 
ATOM      7  C   UNL     1       9.138  -4.080  24.858  0.00  0.00    +0.238 A 
ATOM      8  O   UNL     1      10.205  -4.585  24.530  0.00  0.00    -0.283 OA
ATOM      9  C   UNL     1       8.638  -2.787  24.358  0.00  0.00    +0.109 A 
ATOM     10  C   UNL     1       9.394  -1.941  23.536  0.00  0.00    +0.135 A 
ATOM     11  C   UNL     1       8.877  -0.718  23.081  0.00  0.00    +0.092 A 
ENDROOT
BRANCH   5  12
ATOM     12  C   UNL     1       6.070  -5.108  26.914  0.00  0.00    +0.025 A 
ATOM     13  C   UNL     1       5.205  -6.051  26.329  0.00  0.00    +0.015 A 
ATOM     14  C   UNL     1       4.380  -6.865  27.112  0.00  0.00    +0.050 A 
ATOM     15  C   UNL     1       4.417  -6.756  28.496  0.00  0.00    +0.158 A 
ATOM     16  C   UNL     1       5.244  -5.809  29.099  0.00  0.00    +0.159 A 
ATOM     17  C   UNL     1       6.049  -4.979  28.316  0.00  0.00    +0.060 A 
BRANCH  15  18
ATOM     18  O   UNL     1       3.645  -7.568  29.263  0.00  0.00    -0.503 OA
ATOM     19  H   UNL     1       3.902  -7.355  30.184  0.00  0.00    +0.292 HD
ENDBRANCH  15  18
BRANCH  16  20
ATOM     20  O   UNL     1       5.263  -5.760  30.465  0.00  0.00    -0.503 OA
ATOM     21  H   UNL     1       6.046  -5.244  30.728  0.00  0.00    +0.292 HD
ENDBRANCH  16  20
ENDBRANCH   5  12
BRANCH   6  22
ATOM     22  O   UNL     1       8.697  -6.047  26.268  0.00  0.00    -0.501 OA
ATOM     23  H   UNL     1       9.670  -6.000  26.266  0.00  0.00    +0.292 HD
ENDBRANCH   6  22
BRANCH  10  24
ATOM     24  O   UNL     1      10.667  -2.277  23.162  0.00  0.00    -0.506 OA
ATOM     25  H   UNL     1      10.666  -2.759  22.321  0.00  0.00    +0.292 HD
ENDBRANCH  10  24
BRANCH   1  26
ATOM     26  O   UNL     1       7.048   0.925  23.172  0.00  0.00    -0.461 OA
BRANCH  26  30
ATOM     27  C   UNL     1       9.400   2.840  23.096  0.00  0.00    +0.041 C 
ATOM     28  C   UNL     1       8.464   3.410  24.157  0.00  0.00    +0.150 C 
ATOM     29  O   UNL     1       7.779   2.392  24.909  0.00  0.00    -0.334 OA
ATOM     30  C   UNL     1       6.652   1.778  24.267  0.00  0.00    +0.339 C 
ATOM     31  C   UNL     1       5.621   2.832  23.812  0.00  0.00    +0.214 C 
ATOM     32  C   UNL     1       6.268   3.894  22.923  0.00  0.00    +0.180 C 
ATOM     33  C   UNL     1       7.496   4.488  23.630  0.00  0.00    +0.174 C 
BRANCH  31  34
ATOM     34  O   UNL     1       4.504   2.222  23.159  0.00  0.00    -0.383 OA
ATOM     35  H   UNL     1       4.862   1.576  22.522  0.00  0.00    +0.210 HD
ENDBRANCH  31  34
BRANCH  32  36
ATOM     36  O   UNL     1       6.583   3.356  21.634  0.00  0.00    -0.386 OA
ATOM     37  H   UNL     1       6.735   2.396  21.714  0.00  0.00    +0.210 HD
ENDBRANCH  32  36
BRANCH  33  38
ATOM     38  O   UNL     1       7.040   5.277  24.745  0.00  0.00    -0.387 OA
ATOM     39  H   UNL     1       6.344   4.779  25.215  0.00  0.00    +0.210 HD
ENDBRANCH  33  38
ENDBRANCH  26  30
ENDBRANCH   1  26
TORSDOF 10
ENDMDL
MODEL 7
REMARK VINA RESULT:      -7.1      2.159      8.614
REMARK  Name = 
REMARK  11 active torsions:
REMARK  status: ('A' for Active; 'I' for Inactive)
REMARK    1  A    between atoms: C_1  and  C_2
REMARK    2  A    between atoms: C_4  and  O_37
REMARK    3  A    between atoms: C_6  and  O_36
REMARK    4  A    between atoms: C_8  and  O_35
REMARK    5  A    between atoms: C_10  and  O_13
REMARK    6  A    between atoms: O_13  and  C_14
REMARK    7  A    between atoms: C_16  and  O_34
REMARK    8  A    between atoms: C_21  and  C_26
REMARK    9  A    between atoms: C_22  and  O_25
REMARK   10  A    between atoms: C_28  and  O_33
REMARK   11  A    between atoms: C_29  and  O_32
REMARK                            x       y       z     vdW  Elec       q    Type
REMARK                         _______ _______ _______ _____ _____    ______ ____
ROOT
ATOM      1  C   UNL     1       7.332  -2.168  23.313  0.00  0.00    +0.131 A 
ATOM      2  C   UNL     1       6.948  -0.988  23.971  0.00  0.00    +0.093 A 
ATOM      3  C   UNL     1       7.571   0.241  23.684  0.00  0.00    +0.147 A 
ATOM      4  O   UNL     1       7.121   1.351  24.370  0.00  0.00    -0.451 OA
ATOM      5  C   UNL     1       7.638   2.603  24.043  0.00  0.00    +0.181 A 
ATOM      6  C   UNL     1       8.621   2.788  23.142  0.00  0.00    +0.208 A 
ATOM      7  C   UNL     1       9.208   1.614  22.450  0.00  0.00    +0.238 A 
ATOM      8  O   UNL     1      10.171   1.786  21.712  0.00  0.00    -0.283 OA
ATOM      9  C   UNL     1       8.599   0.304  22.735  0.00  0.00    +0.109 A 
ATOM     10  C   UNL     1       8.991  -0.878  22.094  0.00  0.00    +0.135 A 
ATOM     11  C   UNL     1       8.384  -2.106  22.398  0.00  0.00    +0.092 A 
ENDROOT
BRANCH   5  12
ATOM     12  C   UNL     1       7.110   3.742  24.850  0.00  0.00    +0.025 A 
ATOM     13  C   UNL     1       5.981   4.466  24.423  0.00  0.00    +0.015 A 
ATOM     14  C   UNL     1       5.408   5.459  25.224  0.00  0.00    +0.050 A 
ATOM     15  C   UNL     1       5.949   5.736  26.472  0.00  0.00    +0.158 A 
ATOM     16  C   UNL     1       7.085   5.054  26.906  0.00  0.00    +0.159 A 
ATOM     17  C   UNL     1       7.673   4.080  26.096  0.00  0.00    +0.060 A 
BRANCH  15  18
ATOM     18  O   UNL     1       5.376   6.674  27.269  0.00  0.00    -0.503 OA
ATOM     19  H   UNL     1       4.421   6.453  27.264  0.00  0.00    +0.292 HD
ENDBRANCH  15  18
BRANCH  16  20
ATOM     20  O   UNL     1       7.564   5.345  28.153  0.00  0.00    -0.503 OA
ATOM     21  H   UNL     1       7.029   4.847  28.796  0.00  0.00    +0.292 HD
ENDBRANCH  16  20
ENDBRANCH   5  12
BRANCH   6  22
ATOM     22  O   UNL     1       9.187   4.032  22.903  0.00  0.00    -0.501 OA
ATOM     23  H   UNL     1       9.058   4.546  23.720  0.00  0.00    +0.292 HD
ENDBRANCH   6  22
BRANCH  10  24
ATOM     24  O   UNL     1       9.972  -0.868  21.139  0.00  0.00    -0.506 OA
ATOM     25  H   UNL     1      10.051   0.008  20.731  0.00  0.00    +0.292 HD
ENDBRANCH  10  24
BRANCH   1  26
ATOM     26  O   UNL     1       6.611  -3.300  23.618  0.00  0.00    -0.461 OA
BRANCH  26  30
ATOM     27  C   UNL     1       6.972  -5.983  22.247  0.00  0.00    +0.041 C 
ATOM     28  C   UNL     1       5.502  -5.632  22.041  0.00  0.00    +0.150 C 
ATOM     29  O   UNL     1       5.281  -4.221  21.861  0.00  0.00    -0.334 OA
ATOM     30  C   UNL     1       5.289  -3.420  23.051  0.00  0.00    +0.339 C 
ATOM     31  C   UNL     1       4.279  -3.948  24.091  0.00  0.00    +0.214 C 
ATOM     32  C   UNL     1       4.524  -5.424  24.403  0.00  0.00    +0.180 C 
ATOM     33  C   UNL     1       4.555  -6.234  23.098  0.00  0.00    +0.174 C 
BRANCH  31  34
ATOM     34  O   UNL     1       4.297  -3.158  25.285  0.00  0.00    -0.383 OA
ATOM     35  H   UNL     1       3.610  -2.473  25.185  0.00  0.00    +0.210 HD
ENDBRANCH  31  34
BRANCH  32  36
ATOM     36  O   UNL     1       5.714  -5.590  25.181  0.00  0.00    -0.386 OA
ATOM     37  H   UNL     1       6.385  -4.948  24.884  0.00  0.00    +0.210 HD
ENDBRANCH  32  36
BRANCH  33  38
ATOM     38  O   UNL     1       3.222  -6.266  22.552  0.00  0.00    -0.387 OA
ATOM     39  H   UNL     1       2.675  -5.615  23.029  0.00  0.00    +0.210 HD
ENDBRANCH  33  38
ENDBRANCH  26  30
ENDBRANCH   1  26
TORSDOF 10
ENDMDL
MODEL 8
REMARK VINA RESULT:      -7.0      1.944      8.697
REMARK  Name = 
REMARK  11 active torsions:
REMARK  status: ('A' for Active; 'I' for Inactive)
REMARK    1  A    between atoms: C_1  and  C_2
REMARK    2  A    between atoms: C_4  and  O_37
REMARK    3  A    between atoms: C_6  and  O_36
REMARK    4  A    between atoms: C_8  and  O_35
REMARK    5  A    between atoms: C_10  and  O_13
REMARK    6  A    between atoms: O_13  and  C_14
REMARK    7  A    between atoms: C_16  and  O_34
REMARK    8  A    between atoms: C_21  and  C_26
REMARK    9  A    between atoms: C_22  and  O_25
REMARK   10  A    between atoms: C_28  and  O_33
REMARK   11  A    between atoms: C_29  and  O_32
REMARK                            x       y       z     vdW  Elec       q    Type
REMARK                         _______ _______ _______ _____ _____    ______ ____
ROOT
ATOM      1  C   UNL     1       5.563  -4.261  24.267  0.00  0.00    +0.131 A 
ATOM      2  C   UNL     1       5.703  -2.879  24.064  0.00  0.00    +0.093 A 
ATOM      3  C   UNL     1       6.971  -2.296  23.871  0.00  0.00    +0.147 A 
ATOM      4  O   UNL     1       7.013  -0.932  23.667  0.00  0.00    -0.451 OA
ATOM      5  C   UNL     1       8.234  -0.331  23.370  0.00  0.00    +0.181 A 
ATOM      6  C   UNL     1       9.404  -0.996  23.349  0.00  0.00    +0.208 A 
ATOM      7  C   UNL     1       9.425  -2.447  23.662  0.00  0.00    +0.238 A 
ATOM      8  O   UNL     1      10.506  -3.017  23.742  0.00  0.00    -0.283 OA
ATOM      9  C   UNL     1       8.121  -3.094  23.889  0.00  0.00    +0.109 A 
ATOM     10  C   UNL     1       7.978  -4.470  24.110  0.00  0.00    +0.135 A 
ATOM     11  C   UNL     1       6.716  -5.045  24.324  0.00  0.00    +0.092 A 
ENDROOT
BRANCH   5  12
ATOM     12  C   UNL     1       8.188   1.150  23.186  0.00  0.00    +0.025 A 
ATOM     13  C   UNL     1       7.680   1.713  22.000  0.00  0.00    +0.015 A 
ATOM     14  C   UNL     1       7.525   3.096  21.860  0.00  0.00    +0.050 A 
ATOM     15  C   UNL     1       7.866   3.938  22.910  0.00  0.00    +0.158 A 
ATOM     16  C   UNL     1       8.398   3.408  24.085  0.00  0.00    +0.159 A 
ATOM     17  C   UNL     1       8.577   2.029  24.215  0.00  0.00    +0.060 A 
BRANCH  15  18
ATOM     18  O   UNL     1       7.684   5.278  22.793  0.00  0.00    -0.503 OA
ATOM     19  H   UNL     1       7.972   5.643  23.657  0.00  0.00    +0.292 HD
ENDBRANCH  15  18
BRANCH  16  20
ATOM     20  O   UNL     1       8.693   4.276  25.098  0.00  0.00    -0.503 OA
ATOM     21  H   UNL     1       8.955   5.122  24.692  0.00  0.00    +0.292 HD
ENDBRANCH  16  20
ENDBRANCH   5  12
BRANCH   6  22
ATOM     22  O   UNL     1      10.620  -0.359  23.147  0.00  0.00    -0.501 OA
ATOM     23  H   UNL     1      10.961  -0.698  22.299  0.00  0.00    +0.292 HD
ENDBRANCH   6  22
BRANCH  10  24
ATOM     24  O   UNL     1       9.068  -5.299  24.110  0.00  0.00    -0.506 OA
ATOM     25  H   UNL     1       9.293  -5.577  25.011  0.00  0.00    +0.292 HD
ENDBRANCH  10  24
BRANCH   1  26
ATOM     26  O   UNL     1       4.276  -4.735  24.375  0.00  0.00    -0.461 OA
BRANCH  26  30
ATOM     27  C   UNL     1       1.531  -3.768  25.235  0.00  0.00    +0.041 C 
ATOM     28  C   UNL     1       1.756  -5.058  26.018  0.00  0.00    +0.150 C 
ATOM     29  O   UNL     1       3.129  -5.249  26.406  0.00  0.00    -0.334 OA
ATOM     30  C   UNL     1       4.016  -5.731  25.387  0.00  0.00    +0.339 C 
ATOM     31  C   UNL     1       3.494  -7.043  24.762  0.00  0.00    +0.214 C 
ATOM     32  C   UNL     1       2.067  -6.878  24.238  0.00  0.00    +0.180 C 
ATOM     33  C   UNL     1       1.166  -6.315  25.346  0.00  0.00    +0.174 C 
BRANCH  31  34
ATOM     34  O   UNL     1       4.371  -7.517  23.735  0.00  0.00    -0.383 OA
ATOM     35  H   UNL     1       4.661  -8.411  23.996  0.00  0.00    +0.210 HD
ENDBRANCH  31  34
BRANCH  32  36
ATOM     36  O   UNL     1       2.050  -6.074  23.053  0.00  0.00    -0.386 OA
ATOM     37  H   UNL     1       1.280  -5.476  23.081  0.00  0.00    +0.210 HD
ENDBRANCH  32  36
BRANCH  33  38
ATOM     38  O   UNL     1       0.994  -7.332  26.352  0.00  0.00    -0.387 OA
ATOM     39  H   UNL     1       0.852  -8.188  25.907  0.00  0.00    +0.210 HD
ENDBRANCH  33  38
ENDBRANCH  26  30
ENDBRANCH   1  26
TORSDOF 10
ENDMDL
MODEL 9
REMARK VINA RESULT:      -7.0      1.953      2.926
REMARK  Name = 
REMARK  11 active torsions:
REMARK  status: ('A' for Active; 'I' for Inactive)
REMARK    1  A    between atoms: C_1  and  C_2
REMARK    2  A    between atoms: C_4  and  O_37
REMARK    3  A    between atoms: C_6  and  O_36
REMARK    4  A    between atoms: C_8  and  O_35
REMARK    5  A    between atoms: C_10  and  O_13
REMARK    6  A    between atoms: O_13  and  C_14
REMARK    7  A    between atoms: C_16  and  O_34
REMARK    8  A    between atoms: C_21  and  C_26
REMARK    9  A    between atoms: C_22  and  O_25
REMARK   10  A    between atoms: C_28  and  O_33
REMARK   11  A    between atoms: C_29  and  O_32
REMARK                            x       y       z     vdW  Elec       q    Type
REMARK                         _______ _______ _______ _____ _____    ______ ____
ROOT
ATOM      1  C   UNL     1       7.881  -0.338  23.693  0.00  0.00    +0.131 A 
ATOM      2  C   UNL     1       7.044  -1.121  24.504  0.00  0.00    +0.093 A 
ATOM      3  C   UNL     1       7.435  -2.408  24.923  0.00  0.00    +0.147 A 
ATOM      4  O   UNL     1       6.554  -3.102  25.728  0.00  0.00    -0.451 OA
ATOM      5  C   UNL     1       6.944  -4.334  26.250  0.00  0.00    +0.181 A 
ATOM      6  C   UNL     1       8.111  -4.932  25.948  0.00  0.00    +0.208 A 
ATOM      7  C   UNL     1       9.049  -4.272  25.007  0.00  0.00    +0.238 A 
ATOM      8  O   UNL     1      10.058  -4.874  24.660  0.00  0.00    -0.283 OA
ATOM      9  C   UNL     1       8.671  -2.931  24.527  0.00  0.00    +0.109 A 
ATOM     10  C   UNL     1       9.495  -2.153  23.704  0.00  0.00    +0.135 A 
ATOM     11  C   UNL     1       9.094  -0.881  23.268  0.00  0.00    +0.092 A 
ENDROOT
BRANCH   5  12
ATOM     12  C   UNL     1       5.921  -5.023  27.091  0.00  0.00    +0.025 A 
ATOM     13  C   UNL     1       5.706  -4.635  28.427  0.00  0.00    +0.015 A 
ATOM     14  C   UNL     1       4.675  -5.193  29.189  0.00  0.00    +0.050 A 
ATOM     15  C   UNL     1       3.834  -6.141  28.623  0.00  0.00    +0.158 A 
ATOM     16  C   UNL     1       4.043  -6.564  27.311  0.00  0.00    +0.159 A 
ATOM     17  C   UNL     1       5.089  -6.026  26.557  0.00  0.00    +0.060 A 
BRANCH  15  18
ATOM     18  O   UNL     1       2.809  -6.660  29.347  0.00  0.00    -0.503 OA
ATOM     19  H   UNL     1       3.079  -6.537  30.281  0.00  0.00    +0.292 HD
ENDBRANCH  15  18
BRANCH  16  20
ATOM     20  O   UNL     1       3.172  -7.480  26.791  0.00  0.00    -0.503 OA
ATOM     21  H   UNL     1       2.859  -7.135  25.936  0.00  0.00    +0.292 HD
ENDBRANCH  16  20
ENDBRANCH   5  12
BRANCH   6  22
ATOM     22  O   UNL     1       8.436  -6.203  26.402  0.00  0.00    -0.501 OA
ATOM     23  H   UNL     1       8.098  -6.821  25.729  0.00  0.00    +0.292 HD
ENDBRANCH   6  22
BRANCH  10  24
ATOM     24  O   UNL     1      10.726  -2.606  23.311  0.00  0.00    -0.506 OA
ATOM     25  H   UNL     1      10.752  -3.575  23.298  0.00  0.00    +0.292 HD
ENDBRANCH  10  24
BRANCH   1  26
ATOM     26  O   UNL     1       7.433   0.930  23.398  0.00  0.00    -0.461 OA
BRANCH  26  30
ATOM     27  C   UNL     1       5.446   3.010  22.432  0.00  0.00    +0.041 C 
ATOM     28  C   UNL     1       6.817   3.596  22.107  0.00  0.00    +0.150 C 
ATOM     29  O   UNL     1       7.779   2.596  21.723  0.00  0.00    -0.334 OA
ATOM     30  C   UNL     1       8.372   1.842  22.789  0.00  0.00    +0.339 C 
ATOM     31  C   UNL     1       9.017   2.768  23.842  0.00  0.00    +0.214 C 
ATOM     32  C   UNL     1       8.014   3.796  24.366  0.00  0.00    +0.180 C 
ATOM     33  C   UNL     1       7.370   4.544  23.189  0.00  0.00    +0.174 C 
BRANCH  31  34
ATOM     34  O   UNL     1       9.596   2.017  24.914  0.00  0.00    -0.383 OA
ATOM     35  H   UNL     1       8.973   2.060  25.663  0.00  0.00    +0.210 HD
ENDBRANCH  31  34
BRANCH  32  36
ATOM     36  O   UNL     1       7.045   3.173  25.218  0.00  0.00    -0.386 OA
ATOM     37  H   UNL     1       6.872   3.750  25.985  0.00  0.00    +0.210 HD
ENDBRANCH  32  36
BRANCH  33  38
ATOM     38  O   UNL     1       8.370   5.389  22.588  0.00  0.00    -0.387 OA
ATOM     39  H   UNL     1       8.212   6.309  22.874  0.00  0.00    +0.210 HD
ENDBRANCH  33  38
ENDBRANCH  26  30
ENDBRANCH   1  26
TORSDOF 10
ENDMDL
