MODEL 1
REMARK VINA RESULT:      -6.2      0.000      0.000
REMARK  Name = 
REMARK  29 active torsions:
REMARK  status: ('A' for Active; 'I' for Inactive)
REMARK    1  A    between atoms: C_3  and  O_67
REMARK    2  A    between atoms: C_4  and  O_66
REMARK    3  A    between atoms: C_6  and  C_7
REMARK    4  A    between atoms: C_8  and  C_9
REMARK    5  A    between atoms: C_9  and  O_11
REMARK    6  A    between atoms: O_11  and  C_12
REMARK    7  A    between atoms: C_13  and  O_65
REMARK    8  A    between atoms: C_14  and  O_64
REMARK    9  A    between atoms: C_15  and  C_62
REMARK   10  A    between atoms: C_17  and  O_18
REMARK   11  A    between atoms: O_18  and  C_19
REMARK   12  A    between atoms: C_20  and  O_61
REMARK   13  A    between atoms: C_21  and  O_60
REMARK   14  A    between atoms: C_22  and  C_58
REMARK   15  A    between atoms: C_24  and  O_25
REMARK   16  A    between atoms: O_25  and  C_26
REMARK   17  A    between atoms: C_27  and  C_50
REMARK   18  A    between atoms: C_31  and  O_38
REMARK   19  A    between atoms: C_33  and  O_37
REMARK   20  A    between atoms: O_38  and  C_39
REMARK   21  A    between atoms: C_40  and  O_49
REMARK   22  A    between atoms: C_41  and  O_48
REMARK   23  A    between atoms: C_42  and  O_47
REMARK   24  A    between atoms: C_43  and  C_45
REMARK   25  A    between atoms: C_45  and  O_46
REMARK   26  A    between atoms: C_52  and  O_57
REMARK   27  A    between atoms: C_53  and  O_56
REMARK   28  A    between atoms: C_58  and  O_59
REMARK   29  A    between atoms: C_62  and  O_63
REMARK                            x       y       z     vdW  Elec       q    Type
REMARK                         _______ _______ _______ _____ _____    ______ ____
ROOT
ATOM      1  C   UNL     1       4.019  -5.083  26.636  0.00  0.00    +0.221 C 
ATOM      2  C   UNL     1       5.259  -4.809  27.564  0.00  0.00    +0.340 C 
ATOM      3  O   UNL     1       5.316  -5.773  28.643  0.00  0.00    -0.331 OA
ATOM      4  C   UNL     1       4.161  -5.861  29.486  0.00  0.00    +0.179 C 
ATOM      5  C   UNL     1       2.888  -6.085  28.655  0.00  0.00    +0.177 C 
ATOM      6  C   UNL     1       2.785  -5.025  27.554  0.00  0.00    +0.180 C 
ENDROOT
BRANCH   6   7
ATOM      7  O   UNL     1       1.534  -5.149  26.873  0.00  0.00    -0.386 OA
ATOM      8  H   UNL     1       1.266  -4.273  26.543  0.00  0.00    +0.210 HD
ENDBRANCH   6   7
BRANCH   5   9
ATOM      9  O   UNL     1       1.708  -6.053  29.470  0.00  0.00    -0.386 OA
ATOM     10  H   UNL     1       1.300  -6.941  29.428  0.00  0.00    +0.210 HD
ENDBRANCH   5   9
BRANCH   4  11
ATOM     11  C   UNL     1       4.044  -4.687  30.485  0.00  0.00    +0.190 C 
BRANCH  11  12
ATOM     12  O   UNL     1       3.125  -3.692  30.040  0.00  0.00    -0.392 OA
ATOM     13  H   UNL     1       2.345  -4.161  29.677  0.00  0.00    +0.210 HD
ENDBRANCH  11  12
ENDBRANCH   4  11
BRANCH   2  14
ATOM     14  O   UNL     1       5.241  -3.490  28.125  0.00  0.00    -0.453 OA
BRANCH  14  15
ATOM     15  C   UNL     1       5.272  -2.367  27.321  0.00  0.00    +0.214 A 
ATOM     16  C   UNL     1       4.188  -1.364  27.277  0.00  0.00    +0.238 A 
ATOM     17  O   UNL     1       3.026  -1.689  27.421  0.00  0.00    -0.283 OA
ATOM     18  C   UNL     1       4.527  -0.020  26.819  0.00  0.00    +0.109 A 
ATOM     19  C   UNL     1       5.506   0.012  25.841  0.00  0.00    +0.147 A 
ATOM     20  C   UNL     1       5.699   1.166  25.101  0.00  0.00    +0.093 A 
ATOM     21  C   UNL     1       4.974   2.327  25.387  0.00  0.00    +0.131 A 
ATOM     22  C   UNL     1       4.043   2.318  26.436  0.00  0.00    +0.092 A 
ATOM     23  O   UNL     1       6.280  -1.078  25.539  0.00  0.00    -0.451 OA
ATOM     24  C   UNL     1       3.814   1.136  27.147  0.00  0.00    +0.135 A 
ATOM     25  C   UNL     1       6.236  -2.158  26.406  0.00  0.00    +0.181 A 
BRANCH  25  26
ATOM     26  C   UNL     1       7.277  -3.155  26.130  0.00  0.00    +0.025 A 
ATOM     27  C   UNL     1       8.424  -3.255  26.932  0.00  0.00    +0.015 A 
ATOM     28  C   UNL     1       9.407  -4.203  26.636  0.00  0.00    +0.050 A 
ATOM     29  C   UNL     1       9.238  -5.040  25.543  0.00  0.00    +0.158 A 
ATOM     30  C   UNL     1       8.103  -4.947  24.741  0.00  0.00    +0.159 A 
ATOM     31  C   UNL     1       7.119  -4.009  25.026  0.00  0.00    +0.060 A 
BRANCH  30  32
ATOM     32  O   UNL     1       8.002  -5.801  23.677  0.00  0.00    -0.503 OA
ATOM     33  H   UNL     1       7.445  -6.553  23.942  0.00  0.00    +0.292 HD
ENDBRANCH  30  32
BRANCH  29  34
ATOM     34  O   UNL     1      10.203  -5.962  25.251  0.00  0.00    -0.503 OA
ATOM     35  H   UNL     1      10.645  -6.134  26.108  0.00  0.00    +0.292 HD
ENDBRANCH  29  34
ENDBRANCH  25  26
BRANCH  24  36
ATOM     36  O   UNL     1       2.917   1.122  28.177  0.00  0.00    -0.506 OA
ATOM     37  H   UNL     1       2.208   0.483  27.989  0.00  0.00    +0.292 HD
ENDBRANCH  24  36
BRANCH  21  38
ATOM     38  O   UNL     1       5.117   3.517  24.711  0.00  0.00    -0.461 OA
BRANCH  38  39
ATOM     39  C   UNL     1       5.532   3.402  23.333  0.00  0.00    +0.339 C 
ATOM     40  O   UNL     1       6.943   3.618  23.169  0.00  0.00    -0.331 OA
ATOM     41  C   UNL     1       7.357   4.905  23.663  0.00  0.00    +0.179 C 
ATOM     42  C   UNL     1       6.700   6.004  22.820  0.00  0.00    +0.177 C 
ATOM     43  C   UNL     1       5.171   5.834  22.754  0.00  0.00    +0.180 C 
ATOM     44  C   UNL     1       4.766   4.386  22.432  0.00  0.00    +0.214 C 
BRANCH  44  45
ATOM     45  O   UNL     1       3.352   4.184  22.539  0.00  0.00    -0.383 OA
ATOM     46  H   UNL     1       3.196   3.247  22.749  0.00  0.00    +0.210 HD
ENDBRANCH  44  45
BRANCH  43  47
ATOM     47  O   UNL     1       4.657   6.725  21.752  0.00  0.00    -0.386 OA
ATOM     48  H   UNL     1       5.341   7.415  21.626  0.00  0.00    +0.210 HD
ENDBRANCH  43  47
BRANCH  42  49
ATOM     49  O   UNL     1       7.201   5.995  21.469  0.00  0.00    -0.386 OA
ATOM     50  H   UNL     1       6.467   5.746  20.874  0.00  0.00    +0.210 HD
ENDBRANCH  42  49
BRANCH  41  51
ATOM     51  C   UNL     1       8.892   4.982  23.617  0.00  0.00    +0.190 C 
BRANCH  51  52
ATOM     52  O   UNL     1       9.470   3.772  23.126  0.00  0.00    -0.392 OA
ATOM     53  H   UNL     1       9.174   3.634  22.212  0.00  0.00    +0.210 HD
ENDBRANCH  51  52
ENDBRANCH  41  51
ENDBRANCH  38  39
ENDBRANCH  21  38
ENDBRANCH  14  15
ENDBRANCH   2  14
BRANCH   1  54
ATOM     54  O   UNL     1       4.192  -6.367  25.968  0.00  0.00    -0.336 OA
BRANCH  54  56
ATOM     55  C   UNL     1       3.394  -5.178  23.949  0.00  0.00    +0.263 C 
ATOM     56  C   UNL     1       4.250  -6.348  24.522  0.00  0.00    +0.295 C 
ATOM     57  O   UNL     1       3.980  -7.618  23.950  0.00  0.00    -0.340 OA
ATOM     58  C   UNL     1       2.609  -8.001  23.814  0.00  0.00    +0.178 C 
ATOM     59  C   UNL     1       1.822  -7.001  22.975  0.00  0.00    +0.178 C 
ATOM     60  C   UNL     1       1.967  -5.568  23.517  0.00  0.00    +0.191 C 
BRANCH  59  61
ATOM     61  O   UNL     1       0.443  -7.389  22.883  0.00  0.00    -0.386 OA
ATOM     62  H   UNL     1       0.133  -7.596  23.785  0.00  0.00    +0.210 HD
ENDBRANCH  59  61
BRANCH  60  63
ATOM     63  O   UNL     1       1.399  -4.602  22.624  0.00  0.00    -0.385 OA
ATOM     64  H   UNL     1       1.228  -5.057  21.779  0.00  0.00    +0.210 HD
ENDBRANCH  60  63
BRANCH  58  65
ATOM     65  C   UNL     1       1.956  -8.336  25.152  0.00  0.00    +0.190 C 
BRANCH  65  66
ATOM     66  O   UNL     1       0.895  -7.457  25.504  0.00  0.00    -0.392 OA
ATOM     67  H   UNL     1       1.215  -6.548  25.335  0.00  0.00    +0.210 HD
ENDBRANCH  65  66
ENDBRANCH  58  65
BRANCH  55  68
ATOM     68  O   UNL     1       4.155  -4.365  22.985  0.00  0.00    -0.450 OA
BRANCH  68  69
ATOM     69  C   UNL     1       5.001  -4.907  22.085  0.00  0.00    +0.332 C 
ATOM     70  O   UNL     1       4.880  -5.991  21.546  0.00  0.00    -0.246 OA
BRANCH  69  72
ATOM     71  C   UNL     1       6.113  -2.730  22.421  0.00  0.00    +0.015 C 
ATOM     72  C   UNL     1       6.123  -3.953  21.857  0.00  0.00    +0.092 C 
BRANCH  71  74
ATOM     73  C   UNL     1       6.860  -0.289  22.331  0.00  0.00    +0.012 A 
ATOM     74  C   UNL     1       7.140  -1.669  22.301  0.00  0.00    -0.021 A 
ATOM     75  C   UNL     1       8.481  -2.062  22.147  0.00  0.00    +0.057 A 
ATOM     76  C   UNL     1       9.489  -1.108  22.013  0.00  0.00    +0.159 A 
ATOM     77  C   UNL     1       9.197   0.256  22.031  0.00  0.00    +0.158 A 
ATOM     78  C   UNL     1       7.888   0.667  22.200  0.00  0.00    +0.050 A 
BRANCH  76  79
ATOM     79  O   UNL     1      10.781  -1.526  21.852  0.00  0.00    -0.503 OA
ATOM     80  H   UNL     1      11.069  -1.783  22.751  0.00  0.00    +0.292 HD
ENDBRANCH  76  79
BRANCH  77  81
ATOM     81  O   UNL     1      10.237   1.127  21.885  0.00  0.00    -0.503 OA
ATOM     82  H   UNL     1      10.253   1.413  20.955  0.00  0.00    +0.292 HD
ENDBRANCH  77  81
ENDBRANCH  71  74
ENDBRANCH  69  72
ENDBRANCH  68  69
ENDBRANCH  55  68
ENDBRANCH  54  56
ENDBRANCH   1  54
TORSDOF 29
ENDMDL
MODEL 2
REMARK VINA RESULT:      -5.2      2.287      9.893
REMARK  Name = 
REMARK  29 active torsions:
REMARK  status: ('A' for Active; 'I' for Inactive)
REMARK    1  A    between atoms: C_3  and  O_67
REMARK    2  A    between atoms: C_4  and  O_66
REMARK    3  A    between atoms: C_6  and  C_7
REMARK    4  A    between atoms: C_8  and  C_9
REMARK    5  A    between atoms: C_9  and  O_11
REMARK    6  A    between atoms: O_11  and  C_12
REMARK    7  A    between atoms: C_13  and  O_65
REMARK    8  A    between atoms: C_14  and  O_64
REMARK    9  A    between atoms: C_15  and  C_62
REMARK   10  A    between atoms: C_17  and  O_18
REMARK   11  A    between atoms: O_18  and  C_19
REMARK   12  A    between atoms: C_20  and  O_61
REMARK   13  A    between atoms: C_21  and  O_60
REMARK   14  A    between atoms: C_22  and  C_58
REMARK   15  A    between atoms: C_24  and  O_25
REMARK   16  A    between atoms: O_25  and  C_26
REMARK   17  A    between atoms: C_27  and  C_50
REMARK   18  A    between atoms: C_31  and  O_38
REMARK   19  A    between atoms: C_33  and  O_37
REMARK   20  A    between atoms: O_38  and  C_39
REMARK   21  A    between atoms: C_40  and  O_49
REMARK   22  A    between atoms: C_41  and  O_48
REMARK   23  A    between atoms: C_42  and  O_47
REMARK   24  A    between atoms: C_43  and  C_45
REMARK   25  A    between atoms: C_45  and  O_46
REMARK   26  A    between atoms: C_52  and  O_57
REMARK   27  A    between atoms: C_53  and  O_56
REMARK   28  A    between atoms: C_58  and  O_59
REMARK   29  A    between atoms: C_62  and  O_63
REMARK                            x       y       z     vdW  Elec       q    Type
REMARK                         _______ _______ _______ _____ _____    ______ ____
ROOT
ATOM      1  C   UNL     1       5.751   3.531  27.001  0.00  0.00    +0.221 C 
ATOM      2  C   UNL     1       7.311   3.439  26.825  0.00  0.00    +0.340 C 
ATOM      3  O   UNL     1       7.944   4.688  27.197  0.00  0.00    -0.331 OA
ATOM      4  C   UNL     1       7.504   5.861  26.503  0.00  0.00    +0.179 C 
ATOM      5  C   UNL     1       5.976   6.007  26.583  0.00  0.00    +0.177 C 
ATOM      6  C   UNL     1       5.298   4.713  26.125  0.00  0.00    +0.180 C 
ENDROOT
BRANCH   6   7
ATOM      7  O   UNL     1       3.881   4.898  26.067  0.00  0.00    -0.386 OA
ATOM      8  H   UNL     1       3.447   4.151  26.516  0.00  0.00    +0.210 HD
ENDBRANCH   6   7
BRANCH   5   9
ATOM      9  O   UNL     1       5.505   7.108  25.791  0.00  0.00    -0.386 OA
ATOM     10  H   UNL     1       6.284   7.650  25.553  0.00  0.00    +0.210 HD
ENDBRANCH   5   9
BRANCH   4  11
ATOM     11  C   UNL     1       8.055   5.961  25.062  0.00  0.00    +0.190 C 
BRANCH  11  12
ATOM     12  O   UNL     1       9.281   6.686  25.004  0.00  0.00    -0.392 OA
ATOM     13  H   UNL     1       9.436   7.064  25.894  0.00  0.00    +0.210 HD
ENDBRANCH  11  12
ENDBRANCH   4  11
BRANCH   2  14
ATOM     14  O   UNL     1       7.693   3.110  25.483  0.00  0.00    -0.453 OA
BRANCH  14  15
ATOM     15  C   UNL     1       7.440   1.861  24.951  0.00  0.00    +0.214 A 
ATOM     16  C   UNL     1       8.265   0.668  25.238  0.00  0.00    +0.238 A 
ATOM     17  O   UNL     1       9.463   0.762  25.418  0.00  0.00    -0.283 OA
ATOM     18  C   UNL     1       7.646  -0.642  25.059  0.00  0.00    +0.109 A 
ATOM     19  C   UNL     1       6.732  -0.696  24.022  0.00  0.00    +0.147 A 
ATOM     20  C   UNL     1       6.312  -1.926  23.542  0.00  0.00    +0.093 A 
ATOM     21  C   UNL     1       6.736  -3.111  24.149  0.00  0.00    +0.131 A 
ATOM     22  C   UNL     1       7.595  -3.051  25.256  0.00  0.00    +0.092 A 
ATOM     23  O   UNL     1       6.244   0.429  23.410  0.00  0.00    -0.451 OA
ATOM     24  C   UNL     1       8.058  -1.811  25.704  0.00  0.00    +0.135 A 
ATOM     25  C   UNL     1       6.497   1.650  24.015  0.00  0.00    +0.181 A 
BRANCH  25  26
ATOM     26  C   UNL     1       5.728   2.751  23.423  0.00  0.00    +0.025 A 
ATOM     27  C   UNL     1       4.327   2.710  23.357  0.00  0.00    +0.015 A 
ATOM     28  C   UNL     1       3.620   3.764  22.772  0.00  0.00    +0.050 A 
ATOM     29  C   UNL     1       4.317   4.848  22.258  0.00  0.00    +0.158 A 
ATOM     30  C   UNL     1       5.707   4.896  22.319  0.00  0.00    +0.159 A 
ATOM     31  C   UNL     1       6.420   3.854  22.898  0.00  0.00    +0.060 A 
BRANCH  30  32
ATOM     32  O   UNL     1       6.331   5.992  21.790  0.00  0.00    -0.503 OA
ATOM     33  H   UNL     1       7.093   6.212  22.355  0.00  0.00    +0.292 HD
ENDBRANCH  30  32
BRANCH  29  34
ATOM     34  O   UNL     1       3.626   5.875  21.682  0.00  0.00    -0.503 OA
ATOM     35  H   UNL     1       2.741   5.500  21.493  0.00  0.00    +0.292 HD
ENDBRANCH  29  34
ENDBRANCH  25  26
BRANCH  24  36
ATOM     36  O   UNL     1       8.887  -1.743  26.788  0.00  0.00    -0.506 OA
ATOM     37  H   UNL     1       8.456  -2.149  27.559  0.00  0.00    +0.292 HD
ENDBRANCH  24  36
BRANCH  21  38
ATOM     38  O   UNL     1       6.353  -4.370  23.744  0.00  0.00    -0.461 OA
BRANCH  38  39
ATOM     39  C   UNL     1       5.125  -4.431  22.985  0.00  0.00    +0.339 C 
ATOM     40  O   UNL     1       4.049  -3.735  23.633  0.00  0.00    -0.331 OA
ATOM     41  C   UNL     1       3.792  -4.243  24.955  0.00  0.00    +0.179 C 
ATOM     42  C   UNL     1       3.306  -5.693  24.854  0.00  0.00    +0.177 C 
ATOM     43  C   UNL     1       4.279  -6.564  24.040  0.00  0.00    +0.180 C 
ATOM     44  C   UNL     1       4.698  -5.886  22.725  0.00  0.00    +0.214 C 
BRANCH  44  45
ATOM     45  O   UNL     1       5.732  -6.611  22.049  0.00  0.00    -0.383 OA
ATOM     46  H   UNL     1       6.187  -7.169  22.704  0.00  0.00    +0.210 HD
ENDBRANCH  44  45
BRANCH  43  47
ATOM     47  O   UNL     1       3.644  -7.822  23.766  0.00  0.00    -0.386 OA
ATOM     48  H   UNL     1       3.204  -7.721  22.896  0.00  0.00    +0.210 HD
ENDBRANCH  43  47
BRANCH  42  49
ATOM     49  O   UNL     1       2.015  -5.766  24.218  0.00  0.00    -0.386 OA
ATOM     50  H   UNL     1       1.999  -5.120  23.485  0.00  0.00    +0.210 HD
ENDBRANCH  42  49
BRANCH  41  51
ATOM     51  C   UNL     1       2.759  -3.334  25.641  0.00  0.00    +0.190 C 
BRANCH  51  52
ATOM     52  O   UNL     1       2.009  -4.037  26.633  0.00  0.00    -0.392 OA
ATOM     53  H   UNL     1       1.235  -3.503  26.875  0.00  0.00    +0.210 HD
ENDBRANCH  51  52
ENDBRANCH  41  51
ENDBRANCH  38  39
ENDBRANCH  21  38
ENDBRANCH  14  15
ENDBRANCH   2  14
BRANCH   1  54
ATOM     54  O   UNL     1       5.434   3.694  28.414  0.00  0.00    -0.336 OA
BRANCH  54  56
ATOM     55  C   UNL     1       3.625   2.045  28.041  0.00  0.00    +0.263 C 
ATOM     56  C   UNL     1       4.669   2.635  29.037  0.00  0.00    +0.295 C 
ATOM     57  O   UNL     1       4.139   3.016  30.297  0.00  0.00    -0.340 OA
ATOM     58  C   UNL     1       2.933   3.784  30.299  0.00  0.00    +0.178 C 
ATOM     59  C   UNL     1       1.800   3.060  29.583  0.00  0.00    +0.178 C 
ATOM     60  C   UNL     1       2.207   2.636  28.161  0.00  0.00    +0.191 C 
BRANCH  59  61
ATOM     61  O   UNL     1       0.612   3.867  29.568  0.00  0.00    -0.386 OA
ATOM     62  H   UNL     1      -0.119   3.325  29.923  0.00  0.00    +0.210 HD
ENDBRANCH  59  61
BRANCH  60  63
ATOM     63  O   UNL     1       1.224   1.784  27.558  0.00  0.00    -0.385 OA
ATOM     64  H   UNL     1       1.159   2.040  26.620  0.00  0.00    +0.210 HD
ENDBRANCH  60  63
BRANCH  58  65
ATOM     65  C   UNL     1       3.149   5.219  29.827  0.00  0.00    +0.190 C 
BRANCH  65  66
ATOM     66  O   UNL     1       2.679   5.460  28.506  0.00  0.00    -0.392 OA
ATOM     67  H   UNL     1       1.767   5.804  28.591  0.00  0.00    +0.210 HD
ENDBRANCH  65  66
ENDBRANCH  58  65
BRANCH  55  68
ATOM     68  O   UNL     1       3.704   0.576  27.973  0.00  0.00    -0.450 OA
BRANCH  68  69
ATOM     69  C   UNL     1       3.606  -0.209  29.066  0.00  0.00    +0.332 C 
ATOM     70  O   UNL     1       3.145   0.114  30.145  0.00  0.00    -0.246 OA
BRANCH  69  72
ATOM     71  C   UNL     1       3.754  -2.649  29.397  0.00  0.00    +0.015 C 
ATOM     72  C   UNL     1       4.165  -1.550  28.736  0.00  0.00    +0.092 C 
BRANCH  71  74
ATOM     73  C   UNL     1       3.474  -5.179  29.614  0.00  0.00    +0.012 A 
ATOM     74  C   UNL     1       4.200  -4.047  29.195  0.00  0.00    -0.021 A 
ATOM     75  C   UNL     1       5.429  -4.262  28.546  0.00  0.00    +0.057 A 
ATOM     76  C   UNL     1       5.907  -5.555  28.343  0.00  0.00    +0.159 A 
ATOM     77  C   UNL     1       5.184  -6.667  28.773  0.00  0.00    +0.158 A 
ATOM     78  C   UNL     1       3.964  -6.482  29.397  0.00  0.00    +0.050 A 
BRANCH  76  79
ATOM     79  O   UNL     1       7.112  -5.726  27.718  0.00  0.00    -0.503 OA
ATOM     80  H   UNL     1       6.971  -5.381  26.814  0.00  0.00    +0.292 HD
ENDBRANCH  76  79
BRANCH  77  81
ATOM     81  O   UNL     1       5.724  -7.899  28.545  0.00  0.00    -0.503 OA
ATOM     82  H   UNL     1       6.662  -7.773  28.321  0.00  0.00    +0.292 HD
ENDBRANCH  77  81
ENDBRANCH  71  74
ENDBRANCH  69  72
ENDBRANCH  68  69
ENDBRANCH  55  68
ENDBRANCH  54  56
ENDBRANCH   1  54
TORSDOF 29
ENDMDL
MODEL 3
REMARK VINA RESULT:      -4.9      2.858     10.511
REMARK  Name = 
REMARK  29 active torsions:
REMARK  status: ('A' for Active; 'I' for Inactive)
REMARK    1  A    between atoms: C_3  and  O_67
REMARK    2  A    between atoms: C_4  and  O_66
REMARK    3  A    between atoms: C_6  and  C_7
REMARK    4  A    between atoms: C_8  and  C_9
REMARK    5  A    between atoms: C_9  and  O_11
REMARK    6  A    between atoms: O_11  and  C_12
REMARK    7  A    between atoms: C_13  and  O_65
REMARK    8  A    between atoms: C_14  and  O_64
REMARK    9  A    between atoms: C_15  and  C_62
REMARK   10  A    between atoms: C_17  and  O_18
REMARK   11  A    between atoms: O_18  and  C_19
REMARK   12  A    between atoms: C_20  and  O_61
REMARK   13  A    between atoms: C_21  and  O_60
REMARK   14  A    between atoms: C_22  and  C_58
REMARK   15  A    between atoms: C_24  and  O_25
REMARK   16  A    between atoms: O_25  and  C_26
REMARK   17  A    between atoms: C_27  and  C_50
REMARK   18  A    between atoms: C_31  and  O_38
REMARK   19  A    between atoms: C_33  and  O_37
REMARK   20  A    between atoms: O_38  and  C_39
REMARK   21  A    between atoms: C_40  and  O_49
REMARK   22  A    between atoms: C_41  and  O_48
REMARK   23  A    between atoms: C_42  and  O_47
REMARK   24  A    between atoms: C_43  and  C_45
REMARK   25  A    between atoms: C_45  and  O_46
REMARK   26  A    between atoms: C_52  and  O_57
REMARK   27  A    between atoms: C_53  and  O_56
REMARK   28  A    between atoms: C_58  and  O_59
REMARK   29  A    between atoms: C_62  and  O_63
REMARK                            x       y       z     vdW  Elec       q    Type
REMARK                         _______ _______ _______ _____ _____    ______ ____
ROOT
ATOM      1  C   UNL     1       6.614   1.802  24.137  0.00  0.00    +0.221 C 
ATOM      2  C   UNL     1       7.588   1.186  25.207  0.00  0.00    +0.340 C 
ATOM      3  O   UNL     1       8.882   1.836  25.158  0.00  0.00    -0.331 OA
ATOM      4  C   UNL     1       9.562   1.816  23.898  0.00  0.00    +0.179 C 
ATOM      5  C   UNL     1       8.662   2.362  22.778  0.00  0.00    +0.177 C 
ATOM      6  C   UNL     1       7.317   1.630  22.779  0.00  0.00    +0.180 C 
ENDROOT
BRANCH   6   7
ATOM      7  O   UNL     1       6.538   2.040  21.652  0.00  0.00    -0.386 OA
ATOM      8  H   UNL     1       7.137   2.361  20.954  0.00  0.00    +0.210 HD
ENDBRANCH   6   7
BRANCH   5   9
ATOM      9  O   UNL     1       9.282   2.236  21.489  0.00  0.00    -0.386 OA
ATOM     10  H   UNL     1       8.569   2.088  20.836  0.00  0.00    +0.210 HD
ENDBRANCH   5   9
BRANCH   4  11
ATOM     11  C   UNL     1      10.192   0.444  23.566  0.00  0.00    +0.190 C 
BRANCH  11  12
ATOM     12  O   UNL     1      10.523  -0.295  24.739  0.00  0.00    -0.392 OA
ATOM     13  H   UNL     1      11.031  -1.081  24.452  0.00  0.00    +0.210 HD
ENDBRANCH  11  12
ENDBRANCH   4  11
BRANCH   2  14
ATOM     14  O   UNL     1       7.775  -0.224  25.030  0.00  0.00    -0.453 OA
BRANCH  14  15
ATOM     15  C   UNL     1       6.701  -1.093  25.008  0.00  0.00    +0.214 A 
ATOM     16  C   UNL     1       6.317  -1.889  23.823  0.00  0.00    +0.238 A 
ATOM     17  O   UNL     1       6.468  -1.452  22.699  0.00  0.00    -0.283 OA
ATOM     18  C   UNL     1       5.536  -3.101  24.045  0.00  0.00    +0.109 A 
ATOM     19  C   UNL     1       4.651  -3.015  25.105  0.00  0.00    +0.147 A 
ATOM     20  C   UNL     1       3.641  -3.953  25.234  0.00  0.00    +0.093 A 
ATOM     21  C   UNL     1       3.555  -5.035  24.352  0.00  0.00    +0.131 A 
ATOM     22  C   UNL     1       4.505  -5.168  23.329  0.00  0.00    +0.092 A 
ATOM     23  O   UNL     1       4.705  -2.004  26.029  0.00  0.00    -0.451 OA
ATOM     24  C   UNL     1       5.493  -4.191  23.171  0.00  0.00    +0.135 A 
ATOM     25  C   UNL     1       5.827  -1.191  26.027  0.00  0.00    +0.181 A 
BRANCH  25  26
ATOM     26  C   UNL     1       5.898  -0.312  27.200  0.00  0.00    +0.025 A 
ATOM     27  C   UNL     1       4.749   0.298  27.726  0.00  0.00    +0.015 A 
ATOM     28  C   UNL     1       4.847   1.144  28.833  0.00  0.00    +0.050 A 
ATOM     29  C   UNL     1       6.090   1.374  29.405  0.00  0.00    +0.158 A 
ATOM     30  C   UNL     1       7.235   0.774  28.890  0.00  0.00    +0.159 A 
ATOM     31  C   UNL     1       7.150  -0.069  27.789  0.00  0.00    +0.060 A 
BRANCH  30  32
ATOM     32  O   UNL     1       8.428   1.047  29.500  0.00  0.00    -0.503 OA
ATOM     33  H   UNL     1       9.133   0.590  29.010  0.00  0.00    +0.292 HD
ENDBRANCH  30  32
BRANCH  29  34
ATOM     34  O   UNL     1       6.185   2.206  30.485  0.00  0.00    -0.503 OA
ATOM     35  H   UNL     1       5.276   2.545  30.615  0.00  0.00    +0.292 HD
ENDBRANCH  29  34
ENDBRANCH  25  26
BRANCH  24  36
ATOM     36  O   UNL     1       6.428  -4.319  22.184  0.00  0.00    -0.506 OA
ATOM     37  H   UNL     1       7.112  -4.954  22.457  0.00  0.00    +0.292 HD
ENDBRANCH  24  36
BRANCH  21  38
ATOM     38  O   UNL     1       2.594  -6.017  24.420  0.00  0.00    -0.461 OA
BRANCH  38  39
ATOM     39  C   UNL     1       3.093  -7.368  24.529  0.00  0.00    +0.339 C 
ATOM     40  O   UNL     1       2.472  -8.255  23.585  0.00  0.00    -0.331 OA
ATOM     41  C   UNL     1       1.040  -8.287  23.730  0.00  0.00    +0.179 C 
ATOM     42  C   UNL     1       0.684  -8.873  25.101  0.00  0.00    +0.177 C 
ATOM     43  C   UNL     1       1.401  -8.129  26.242  0.00  0.00    +0.180 C 
ATOM     44  C   UNL     1       2.896  -7.927  25.949  0.00  0.00    +0.214 C 
BRANCH  44  45
ATOM     45  O   UNL     1       3.530  -7.088  26.922  0.00  0.00    -0.383 OA
ATOM     46  H   UNL     1       4.239  -7.602  27.348  0.00  0.00    +0.210 HD
ENDBRANCH  44  45
BRANCH  43  47
ATOM     47  O   UNL     1       1.233  -8.882  27.453  0.00  0.00    -0.386 OA
ATOM     48  H   UNL     1       1.640  -8.345  28.165  0.00  0.00    +0.210 HD
ENDBRANCH  43  47
BRANCH  42  49
ATOM     49  O   UNL     1       1.053 -10.263  25.185  0.00  0.00    -0.386 OA
ATOM     50  H   UNL     1       1.785 -10.423  24.559  0.00  0.00    +0.210 HD
ENDBRANCH  42  49
BRANCH  41  51
ATOM     51  C   UNL     1       0.445  -9.112  22.578  0.00  0.00    +0.190 C 
BRANCH  51  52
ATOM     52  O   UNL     1       0.864  -8.623  21.303  0.00  0.00    -0.392 OA
ATOM     53  H   UNL     1       1.828  -8.513  21.314  0.00  0.00    +0.210 HD
ENDBRANCH  51  52
ENDBRANCH  41  51
ENDBRANCH  38  39
ENDBRANCH  21  38
ENDBRANCH  14  15
ENDBRANCH   2  14
BRANCH   1  54
ATOM     54  O   UNL     1       6.336   3.191  24.481  0.00  0.00    -0.336 OA
BRANCH  54  56
ATOM     55  C   UNL     1       4.446   4.630  25.177  0.00  0.00    +0.263 C 
ATOM     56  C   UNL     1       5.366   3.422  25.530  0.00  0.00    +0.295 C 
ATOM     57  O   UNL     1       5.961   3.483  26.816  0.00  0.00    -0.340 OA
ATOM     58  C   UNL     1       6.563   4.720  27.206  0.00  0.00    +0.178 C 
ATOM     59  C   UNL     1       5.567   5.873  27.162  0.00  0.00    +0.178 C 
ATOM     60  C   UNL     1       4.880   5.976  25.790  0.00  0.00    +0.191 C 
BRANCH  59  61
ATOM     61  O   UNL     1       6.204   7.108  27.522  0.00  0.00    -0.386 OA
ATOM     62  H   UNL     1       5.768   7.823  27.023  0.00  0.00    +0.210 HD
ENDBRANCH  59  61
BRANCH  60  63
ATOM     63  O   UNL     1       3.804   6.924  25.804  0.00  0.00    -0.385 OA
ATOM     64  H   UNL     1       2.994   6.435  26.038  0.00  0.00    +0.210 HD
ENDBRANCH  60  63
BRANCH  58  65
ATOM     65  C   UNL     1       7.867   4.999  26.464  0.00  0.00    +0.190 C 
BRANCH  65  66
ATOM     66  O   UNL     1       8.634   6.051  27.037  0.00  0.00    -0.392 OA
ATOM     67  H   UNL     1       8.862   5.769  27.946  0.00  0.00    +0.210 HD
ENDBRANCH  65  66
ENDBRANCH  58  65
BRANCH  55  68
ATOM     68  O   UNL     1       3.020   4.291  25.319  0.00  0.00    -0.450 OA
BRANCH  68  69
ATOM     69  C   UNL     1       2.390   3.436  24.487  0.00  0.00    +0.332 C 
ATOM     70  O   UNL     1       2.284   2.233  24.637  0.00  0.00    -0.246 OA
BRANCH  69  72
ATOM     71  C   UNL     1       2.489   4.249  22.160  0.00  0.00    +0.015 C 
ATOM     72  C   UNL     1       1.841   4.212  23.340  0.00  0.00    +0.092 C 
BRANCH  71  74
ATOM     73  C   UNL     1       1.722   6.324  20.882  0.00  0.00    +0.012 A 
ATOM     74  C   UNL     1       2.085   4.963  20.927  0.00  0.00    -0.021 A 
ATOM     75  C   UNL     1       2.058   4.239  19.721  0.00  0.00    +0.057 A 
ATOM     76  C   UNL     1       1.670   4.855  18.533  0.00  0.00    +0.159 A 
ATOM     77  C   UNL     1       1.302   6.200  18.504  0.00  0.00    +0.158 A 
ATOM     78  C   UNL     1       1.337   6.937  19.673  0.00  0.00    +0.050 A 
BRANCH  76  79
ATOM     79  O   UNL     1       1.644   4.117  17.381  0.00  0.00    -0.503 OA
ATOM     80  H   UNL     1       2.247   4.590  16.773  0.00  0.00    +0.292 HD
ENDBRANCH  76  79
BRANCH  77  81
ATOM     81  O   UNL     1       0.925   6.726  17.303  0.00  0.00    -0.503 OA
ATOM     82  H   UNL     1       0.064   7.161  17.429  0.00  0.00    +0.292 HD
ENDBRANCH  77  81
ENDBRANCH  71  74
ENDBRANCH  69  72
ENDBRANCH  68  69
ENDBRANCH  55  68
ENDBRANCH  54  56
ENDBRANCH   1  54
TORSDOF 29
ENDMDL
MODEL 4
REMARK VINA RESULT:      -4.5      2.564     10.527
REMARK  Name = 
REMARK  29 active torsions:
REMARK  status: ('A' for Active; 'I' for Inactive)
REMARK    1  A    between atoms: C_3  and  O_67
REMARK    2  A    between atoms: C_4  and  O_66
REMARK    3  A    between atoms: C_6  and  C_7
REMARK    4  A    between atoms: C_8  and  C_9
REMARK    5  A    between atoms: C_9  and  O_11
REMARK    6  A    between atoms: O_11  and  C_12
REMARK    7  A    between atoms: C_13  and  O_65
REMARK    8  A    between atoms: C_14  and  O_64
REMARK    9  A    between atoms: C_15  and  C_62
REMARK   10  A    between atoms: C_17  and  O_18
REMARK   11  A    between atoms: O_18  and  C_19
REMARK   12  A    between atoms: C_20  and  O_61
REMARK   13  A    between atoms: C_21  and  O_60
REMARK   14  A    between atoms: C_22  and  C_58
REMARK   15  A    between atoms: C_24  and  O_25
REMARK   16  A    between atoms: O_25  and  C_26
REMARK   17  A    between atoms: C_27  and  C_50
REMARK   18  A    between atoms: C_31  and  O_38
REMARK   19  A    between atoms: C_33  and  O_37
REMARK   20  A    between atoms: O_38  and  C_39
REMARK   21  A    between atoms: C_40  and  O_49
REMARK   22  A    between atoms: C_41  and  O_48
REMARK   23  A    between atoms: C_42  and  O_47
REMARK   24  A    between atoms: C_43  and  C_45
REMARK   25  A    between atoms: C_45  and  O_46
REMARK   26  A    between atoms: C_52  and  O_57
REMARK   27  A    between atoms: C_53  and  O_56
REMARK   28  A    between atoms: C_58  and  O_59
REMARK   29  A    between atoms: C_62  and  O_63
REMARK                            x       y       z     vdW  Elec       q    Type
REMARK                         _______ _______ _______ _____ _____    ______ ____
ROOT
ATOM      1  C   UNL     1       6.467   1.822  24.067  0.00  0.00    +0.221 C 
ATOM      2  C   UNL     1       7.565   1.250  25.037  0.00  0.00    +0.340 C 
ATOM      3  O   UNL     1       8.827   1.933  24.844  0.00  0.00    -0.331 OA
ATOM      4  C   UNL     1       9.373   1.910  23.520  0.00  0.00    +0.179 C 
ATOM      5  C   UNL     1       8.346   2.412  22.492  0.00  0.00    +0.177 C 
ATOM      6  C   UNL     1       7.030   1.646  22.645  0.00  0.00    +0.180 C 
ENDROOT
BRANCH   6   7
ATOM      7  O   UNL     1       6.126   2.016  21.600  0.00  0.00    -0.386 OA
ATOM      8  H   UNL     1       6.564   1.879  20.741  0.00  0.00    +0.210 HD
ENDBRANCH   6   7
BRANCH   5   9
ATOM      9  O   UNL     1       8.831   2.281  21.148  0.00  0.00    -0.386 OA
ATOM     10  H   UNL     1       8.105   2.547  20.549  0.00  0.00    +0.210 HD
ENDBRANCH   5   9
BRANCH   4  11
ATOM     11  C   UNL     1      10.003   0.549  23.143  0.00  0.00    +0.190 C 
BRANCH  11  12
ATOM     12  O   UNL     1      10.726  -0.028  24.227  0.00  0.00    -0.392 OA
ATOM     13  H   UNL     1      10.912  -0.960  23.987  0.00  0.00    +0.210 HD
ENDBRANCH  11  12
ENDBRANCH   4  11
BRANCH   2  14
ATOM     14  O   UNL     1       7.771  -0.157  24.862  0.00  0.00    -0.453 OA
BRANCH  14  15
ATOM     15  C   UNL     1       6.714  -1.046  24.882  0.00  0.00    +0.214 A 
ATOM     16  C   UNL     1       6.268  -1.813  23.699  0.00  0.00    +0.238 A 
ATOM     17  O   UNL     1       6.338  -1.340  22.582  0.00  0.00    -0.283 OA
ATOM     18  C   UNL     1       5.524  -3.047  23.933  0.00  0.00    +0.109 A 
ATOM     19  C   UNL     1       4.708  -3.010  25.050  0.00  0.00    +0.147 A 
ATOM     20  C   UNL     1       3.725  -3.971  25.213  0.00  0.00    +0.093 A 
ATOM     21  C   UNL     1       3.601  -5.026  24.306  0.00  0.00    +0.131 A 
ATOM     22  C   UNL     1       4.486  -5.111  23.220  0.00  0.00    +0.092 A 
ATOM     23  O   UNL     1       4.804  -2.026  25.999  0.00  0.00    -0.451 OA
ATOM     24  C   UNL     1       5.443  -4.110  23.030  0.00  0.00    +0.135 A 
ATOM     25  C   UNL     1       5.910  -1.191  25.951  0.00  0.00    +0.181 A 
BRANCH  25  26
ATOM     26  C   UNL     1       6.041  -0.347  27.144  0.00  0.00    +0.025 A 
ATOM     27  C   UNL     1       4.928   0.294  27.711  0.00  0.00    +0.015 A 
ATOM     28  C   UNL     1       5.084   1.106  28.837  0.00  0.00    +0.050 A 
ATOM     29  C   UNL     1       6.347   1.272  29.386  0.00  0.00    +0.158 A 
ATOM     30  C   UNL     1       7.456   0.641  28.829  0.00  0.00    +0.159 A 
ATOM     31  C   UNL     1       7.313  -0.169  27.710  0.00  0.00    +0.060 A 
BRANCH  30  32
ATOM     32  O   UNL     1       8.673   0.852  29.419  0.00  0.00    -0.503 OA
ATOM     33  H   UNL     1       8.521   1.139  30.336  0.00  0.00    +0.292 HD
ENDBRANCH  30  32
BRANCH  29  34
ATOM     34  O   UNL     1       6.499   2.071  30.484  0.00  0.00    -0.503 OA
ATOM     35  H   UNL     1       7.380   2.484  30.368  0.00  0.00    +0.292 HD
ENDBRANCH  29  34
ENDBRANCH  25  26
BRANCH  24  36
ATOM     36  O   UNL     1       6.315  -4.190  21.982  0.00  0.00    -0.506 OA
ATOM     37  H   UNL     1       7.222  -4.304  22.314  0.00  0.00    +0.292 HD
ENDBRANCH  24  36
BRANCH  21  38
ATOM     38  O   UNL     1       2.663  -6.029  24.405  0.00  0.00    -0.461 OA
BRANCH  38  39
ATOM     39  C   UNL     1       3.178  -7.325  24.781  0.00  0.00    +0.339 C 
ATOM     40  O   UNL     1       2.610  -8.385  23.996  0.00  0.00    -0.331 OA
ATOM     41  C   UNL     1       1.174  -8.421  24.090  0.00  0.00    +0.179 C 
ATOM     42  C   UNL     1       0.769  -8.751  25.531  0.00  0.00    +0.177 C 
ATOM     43  C   UNL     1       1.427  -7.793  26.540  0.00  0.00    +0.180 C 
ATOM     44  C   UNL     1       2.930  -7.616  26.272  0.00  0.00    +0.214 C 
BRANCH  44  45
ATOM     45  O   UNL     1       3.511  -6.597  27.096  0.00  0.00    -0.383 OA
ATOM     46  H   UNL     1       3.782  -5.861  26.519  0.00  0.00    +0.210 HD
ENDBRANCH  44  45
BRANCH  43  47
ATOM     47  O   UNL     1       1.220  -8.312  27.863  0.00  0.00    -0.386 OA
ATOM     48  H   UNL     1       0.718  -9.146  27.752  0.00  0.00    +0.210 HD
ENDBRANCH  43  47
BRANCH  42  49
ATOM     49  O   UNL     1       1.155 -10.093  25.886  0.00  0.00    -0.386 OA
ATOM     50  H   UNL     1       0.785 -10.703  25.219  0.00  0.00    +0.210 HD
ENDBRANCH  42  49
BRANCH  41  51
ATOM     51  C   UNL     1       0.639  -9.458  23.089  0.00  0.00    +0.190 C 
BRANCH  51  52
ATOM     52  O   UNL     1       0.841  -9.044  21.736  0.00  0.00    -0.392 OA
ATOM     53  H   UNL     1       0.084  -8.505  21.459  0.00  0.00    +0.210 HD
ENDBRANCH  51  52
ENDBRANCH  41  51
ENDBRANCH  38  39
ENDBRANCH  21  38
ENDBRANCH  14  15
ENDBRANCH   2  14
BRANCH   1  54
ATOM     54  O   UNL     1       6.189   3.209  24.418  0.00  0.00    -0.336 OA
BRANCH  54  56
ATOM     55  C   UNL     1       4.334   4.641  25.218  0.00  0.00    +0.263 C 
ATOM     56  C   UNL     1       5.273   3.432  25.516  0.00  0.00    +0.295 C 
ATOM     57  O   UNL     1       5.932   3.487  26.771  0.00  0.00    -0.340 OA
ATOM     58  C   UNL     1       6.552   4.723  27.136  0.00  0.00    +0.178 C 
ATOM     59  C   UNL     1       5.553   5.874  27.151  0.00  0.00    +0.178 C 
ATOM     60  C   UNL     1       4.796   5.984  25.816  0.00  0.00    +0.191 C 
BRANCH  59  61
ATOM     61  O   UNL     1       6.206   7.108  27.485  0.00  0.00    -0.386 OA
ATOM     62  H   UNL     1       5.649   7.837  27.153  0.00  0.00    +0.210 HD
ENDBRANCH  59  61
BRANCH  60  63
ATOM     63  O   UNL     1       3.721   6.930  25.890  0.00  0.00    -0.385 OA
ATOM     64  H   UNL     1       3.630   7.188  26.825  0.00  0.00    +0.210 HD
ENDBRANCH  60  63
BRANCH  58  65
ATOM     65  C   UNL     1       7.816   5.008  26.330  0.00  0.00    +0.190 C 
BRANCH  65  66
ATOM     66  O   UNL     1       8.736   5.862  26.999  0.00  0.00    -0.392 OA
ATOM     67  H   UNL     1       9.586   5.789  26.520  0.00  0.00    +0.210 HD
ENDBRANCH  65  66
ENDBRANCH  58  65
BRANCH  55  68
ATOM     68  O   UNL     1       2.918   4.298  25.430  0.00  0.00    -0.450 OA
BRANCH  68  69
ATOM     69  C   UNL     1       2.236   3.479  24.604  0.00  0.00    +0.332 C 
ATOM     70  O   UNL     1       2.103   3.617  23.401  0.00  0.00    -0.246 OA
BRANCH  69  72
ATOM     71  C   UNL     1       2.123   2.102  26.648  0.00  0.00    +0.015 C 
ATOM     72  C   UNL     1       1.662   2.366  25.410  0.00  0.00    +0.092 C 
BRANCH  71  74
ATOM     73  C   UNL     1       1.364   1.259  28.937  0.00  0.00    +0.012 A 
ATOM     74  C   UNL     1       1.666   1.044  27.578  0.00  0.00    -0.021 A 
ATOM     75  C   UNL     1       1.524  -0.262  27.076  0.00  0.00    +0.057 A 
ATOM     76  C   UNL     1       1.114  -1.302  27.909  0.00  0.00    +0.159 A 
ATOM     77  C   UNL     1       0.830  -1.077  29.256  0.00  0.00    +0.158 A 
ATOM     78  C   UNL     1       0.944   0.201  29.768  0.00  0.00    +0.050 A 
BRANCH  76  79
ATOM     79  O   UNL     1       0.999  -2.562  27.389  0.00  0.00    -0.503 OA
ATOM     80  H   UNL     1       0.844  -2.420  26.434  0.00  0.00    +0.292 HD
ENDBRANCH  76  79
BRANCH  77  81
ATOM     81  O   UNL     1       0.443  -2.148  30.007  0.00  0.00    -0.503 OA
ATOM     82  H   UNL     1      -0.181  -2.671  29.475  0.00  0.00    +0.292 HD
ENDBRANCH  77  81
ENDBRANCH  71  74
ENDBRANCH  69  72
ENDBRANCH  68  69
ENDBRANCH  55  68
ENDBRANCH  54  56
ENDBRANCH   1  54
TORSDOF 29
ENDMDL
MODEL 5
REMARK VINA RESULT:      -4.4      2.517     10.006
REMARK  Name = 
REMARK  29 active torsions:
REMARK  status: ('A' for Active; 'I' for Inactive)
REMARK    1  A    between atoms: C_3  and  O_67
REMARK    2  A    between atoms: C_4  and  O_66
REMARK    3  A    between atoms: C_6  and  C_7
REMARK    4  A    between atoms: C_8  and  C_9
REMARK    5  A    between atoms: C_9  and  O_11
REMARK    6  A    between atoms: O_11  and  C_12
REMARK    7  A    between atoms: C_13  and  O_65
REMARK    8  A    between atoms: C_14  and  O_64
REMARK    9  A    between atoms: C_15  and  C_62
REMARK   10  A    between atoms: C_17  and  O_18
REMARK   11  A    between atoms: O_18  and  C_19
REMARK   12  A    between atoms: C_20  and  O_61
REMARK   13  A    between atoms: C_21  and  O_60
REMARK   14  A    between atoms: C_22  and  C_58
REMARK   15  A    between atoms: C_24  and  O_25
REMARK   16  A    between atoms: O_25  and  C_26
REMARK   17  A    between atoms: C_27  and  C_50
REMARK   18  A    between atoms: C_31  and  O_38
REMARK   19  A    between atoms: C_33  and  O_37
REMARK   20  A    between atoms: O_38  and  C_39
REMARK   21  A    between atoms: C_40  and  O_49
REMARK   22  A    between atoms: C_41  and  O_48
REMARK   23  A    between atoms: C_42  and  O_47
REMARK   24  A    between atoms: C_43  and  C_45
REMARK   25  A    between atoms: C_45  and  O_46
REMARK   26  A    between atoms: C_52  and  O_57
REMARK   27  A    between atoms: C_53  and  O_56
REMARK   28  A    between atoms: C_58  and  O_59
REMARK   29  A    between atoms: C_62  and  O_63
REMARK                            x       y       z     vdW  Elec       q    Type
REMARK                         _______ _______ _______ _____ _____    ______ ____
ROOT
ATOM      1  C   UNL     1       6.323   3.088  27.472  0.00  0.00    +0.221 C 
ATOM      2  C   UNL     1       4.830   3.526  27.247  0.00  0.00    +0.340 C 
ATOM      3  O   UNL     1       4.664   4.940  27.513  0.00  0.00    -0.331 OA
ATOM      4  C   UNL     1       5.052   5.397  28.814  0.00  0.00    +0.179 C 
ATOM      5  C   UNL     1       6.493   4.971  29.140  0.00  0.00    +0.177 C 
ATOM      6  C   UNL     1       6.657   3.464  28.926  0.00  0.00    +0.180 C 
ENDROOT
BRANCH   6   7
ATOM      7  O   UNL     1       7.954   3.048  29.363  0.00  0.00    -0.386 OA
ATOM      8  H   UNL     1       8.583   3.780  29.226  0.00  0.00    +0.210 HD
ENDBRANCH   6   7
BRANCH   5   9
ATOM      9  O   UNL     1       6.857   5.314  30.485  0.00  0.00    -0.386 OA
ATOM     10  H   UNL     1       7.229   4.509  30.900  0.00  0.00    +0.210 HD
ENDBRANCH   5   9
BRANCH   4  11
ATOM     11  C   UNL     1       4.038   5.026  29.919  0.00  0.00    +0.190 C 
BRANCH  11  12
ATOM     12  O   UNL     1       2.691   5.081  29.455  0.00  0.00    -0.392 OA
ATOM     13  H   UNL     1       2.344   4.165  29.466  0.00  0.00    +0.210 HD
ENDBRANCH  11  12
ENDBRANCH   4  11
BRANCH   2  14
ATOM     14  O   UNL     1       3.914   2.792  28.069  0.00  0.00    -0.453 OA
BRANCH  14  15
ATOM     15  C   UNL     1       3.470   1.535  27.703  0.00  0.00    +0.214 A 
ATOM     16  C   UNL     1       4.064   0.279  28.208  0.00  0.00    +0.238 A 
ATOM     17  O   UNL     1       5.252   0.200  28.449  0.00  0.00    -0.283 OA
ATOM     18  C   UNL     1       3.235  -0.922  28.178  0.00  0.00    +0.109 A 
ATOM     19  C   UNL     1       2.366  -0.980  27.103  0.00  0.00    +0.147 A 
ATOM     20  C   UNL     1       1.758  -2.181  26.777  0.00  0.00    +0.093 A 
ATOM     21  C   UNL     1       1.947  -3.315  27.571  0.00  0.00    +0.131 A 
ATOM     22  C   UNL     1       2.761  -3.232  28.710  0.00  0.00    +0.092 A 
ATOM     23  O   UNL     1       2.104   0.105  26.309  0.00  0.00    -0.451 OA
ATOM     24  C   UNL     1       3.415  -2.032  29.007  0.00  0.00    +0.135 A 
ATOM     25  C   UNL     1       2.540   1.345  26.749  0.00  0.00    +0.181 A 
BRANCH  25  26
ATOM     26  C   UNL     1       1.996   2.456  25.960  0.00  0.00    +0.025 A 
ATOM     27  C   UNL     1       0.958   3.262  26.452  0.00  0.00    +0.015 A 
ATOM     28  C   UNL     1       0.447   4.302  25.672  0.00  0.00    +0.050 A 
ATOM     29  C   UNL     1       0.975   4.529  24.409  0.00  0.00    +0.158 A 
ATOM     30  C   UNL     1       2.004   3.734  23.913  0.00  0.00    +0.159 A 
ATOM     31  C   UNL     1       2.520   2.697  24.680  0.00  0.00    +0.060 A 
BRANCH  30  32
ATOM     32  O   UNL     1       2.476   4.010  22.659  0.00  0.00    -0.503 OA
ATOM     33  H   UNL     1       3.267   4.568  22.747  0.00  0.00    +0.292 HD
ENDBRANCH  30  32
BRANCH  29  34
ATOM     34  O   UNL     1       0.471   5.543  23.646  0.00  0.00    -0.503 OA
ATOM     35  H   UNL     1       1.031   6.316  23.863  0.00  0.00    +0.292 HD
ENDBRANCH  29  34
ENDBRANCH  25  26
BRANCH  24  36
ATOM     36  O   UNL     1       4.200  -1.940  30.120  0.00  0.00    -0.506 OA
ATOM     37  H   UNL     1       4.921  -1.306  29.965  0.00  0.00    +0.292 HD
ENDBRANCH  24  36
BRANCH  21  38
ATOM     38  O   UNL     1       1.368  -4.540  27.325  0.00  0.00    -0.461 OA
BRANCH  38  39
ATOM     39  C   UNL     1       1.655  -5.113  26.031  0.00  0.00    +0.339 C 
ATOM     40  O   UNL     1       0.987  -6.369  25.832  0.00  0.00    -0.331 OA
ATOM     41  C   UNL     1       1.330  -7.334  26.843  0.00  0.00    +0.179 C 
ATOM     42  C   UNL     1       2.822  -7.671  26.734  0.00  0.00    +0.177 C 
ATOM     43  C   UNL     1       3.696  -6.404  26.771  0.00  0.00    +0.180 C 
ATOM     44  C   UNL     1       3.167  -5.311  25.828  0.00  0.00    +0.214 C 
BRANCH  44  45
ATOM     45  O   UNL     1       3.872  -4.074  25.985  0.00  0.00    -0.383 OA
ATOM     46  H   UNL     1       3.897  -3.629  25.120  0.00  0.00    +0.210 HD
ENDBRANCH  44  45
BRANCH  43  47
ATOM     47  O   UNL     1       5.037  -6.766  26.406  0.00  0.00    -0.386 OA
ATOM     48  H   UNL     1       4.955  -7.372  25.640  0.00  0.00    +0.210 HD
ENDBRANCH  43  47
BRANCH  42  49
ATOM     49  O   UNL     1       3.110  -8.366  25.506  0.00  0.00    -0.386 OA
ATOM     50  H   UNL     1       3.486  -9.239  25.731  0.00  0.00    +0.210 HD
ENDBRANCH  42  49
BRANCH  41  51
ATOM     51  C   UNL     1       0.443  -8.576  26.663  0.00  0.00    +0.190 C 
BRANCH  51  52
ATOM     52  O   UNL     1       1.004  -9.726  27.297  0.00  0.00    -0.392 OA
ATOM     53  H   UNL     1       0.947 -10.478  26.686  0.00  0.00    +0.210 HD
ENDBRANCH  51  52
ENDBRANCH  41  51
ENDBRANCH  38  39
ENDBRANCH  21  38
ENDBRANCH  14  15
ENDBRANCH   2  14
BRANCH   1  54
ATOM     54  O   UNL     1       7.173   3.746  26.488  0.00  0.00    -0.336 OA
BRANCH  54  56
ATOM     55  C   UNL     1       8.553   2.978  24.581  0.00  0.00    +0.263 C 
ATOM     56  C   UNL     1       7.119   3.236  25.134  0.00  0.00    +0.295 C 
ATOM     57  O   UNL     1       6.288   4.019  24.291  0.00  0.00    -0.340 OA
ATOM     58  C   UNL     1       6.850   5.212  23.738  0.00  0.00    +0.178 C 
ATOM     59  C   UNL     1       8.102   4.922  22.920  0.00  0.00    +0.178 C 
ATOM     60  C   UNL     1       9.137   4.124  23.732  0.00  0.00    +0.191 C 
BRANCH  59  61
ATOM     61  O   UNL     1       8.666   6.138  22.406  0.00  0.00    -0.386 OA
ATOM     62  H   UNL     1       7.927   6.735  22.181  0.00  0.00    +0.210 HD
ENDBRANCH  59  61
BRANCH  60  63
ATOM     63  O   UNL     1      10.225   3.676  22.913  0.00  0.00    -0.385 OA
ATOM     64  H   UNL     1       9.873   3.548  22.013  0.00  0.00    +0.210 HD
ENDBRANCH  60  63
BRANCH  58  65
ATOM     65  C   UNL     1       7.030   6.315  24.778  0.00  0.00    +0.190 C 
BRANCH  65  66
ATOM     66  O   UNL     1       5.952   6.408  25.701  0.00  0.00    -0.392 OA
ATOM     67  H   UNL     1       6.281   6.056  26.553  0.00  0.00    +0.210 HD
ENDBRANCH  65  66
ENDBRANCH  58  65
BRANCH  55  68
ATOM     68  O   UNL     1       8.684   1.626  24.011  0.00  0.00    -0.450 OA
BRANCH  68  69
ATOM     69  C   UNL     1       9.774   0.857  24.207  0.00  0.00    +0.332 C 
ATOM     70  O   UNL     1      10.923   1.248  24.305  0.00  0.00    -0.246 OA
BRANCH  69  72
ATOM     71  C   UNL     1       8.124  -0.940  23.839  0.00  0.00    +0.015 C 
ATOM     72  C   UNL     1       9.341  -0.566  24.280  0.00  0.00    +0.092 C 
BRANCH  71  74
ATOM     73  C   UNL     1       7.642  -3.209  24.909  0.00  0.00    +0.012 A 
ATOM     74  C   UNL     1       7.541  -2.302  23.836  0.00  0.00    -0.021 A 
ATOM     75  C   UNL     1       6.842  -2.720  22.689  0.00  0.00    +0.057 A 
ATOM     76  C   UNL     1       6.287  -3.997  22.624  0.00  0.00    +0.159 A 
ATOM     77  C   UNL     1       6.404  -4.890  23.688  0.00  0.00    +0.158 A 
ATOM     78  C   UNL     1       7.070  -4.495  24.834  0.00  0.00    +0.050 A 
BRANCH  76  79
ATOM     79  O   UNL     1       5.625  -4.374  21.488  0.00  0.00    -0.503 OA
ATOM     80  H   UNL     1       6.026  -3.833  20.779  0.00  0.00    +0.292 HD
ENDBRANCH  76  79
BRANCH  77  81
ATOM     81  O   UNL     1       5.841  -6.124  23.543  0.00  0.00    -0.503 OA
ATOM     82  H   UNL     1       6.558  -6.780  23.571  0.00  0.00    +0.292 HD
ENDBRANCH  77  81
ENDBRANCH  71  74
ENDBRANCH  69  72
ENDBRANCH  68  69
ENDBRANCH  55  68
ENDBRANCH  54  56
ENDBRANCH   1  54
TORSDOF 29
ENDMDL
MODEL 6
REMARK VINA RESULT:      -4.3      2.286      9.493
REMARK  Name = 
REMARK  29 active torsions:
REMARK  status: ('A' for Active; 'I' for Inactive)
REMARK    1  A    between atoms: C_3  and  O_67
REMARK    2  A    between atoms: C_4  and  O_66
REMARK    3  A    between atoms: C_6  and  C_7
REMARK    4  A    between atoms: C_8  and  C_9
REMARK    5  A    between atoms: C_9  and  O_11
REMARK    6  A    between atoms: O_11  and  C_12
REMARK    7  A    between atoms: C_13  and  O_65
REMARK    8  A    between atoms: C_14  and  O_64
REMARK    9  A    between atoms: C_15  and  C_62
REMARK   10  A    between atoms: C_17  and  O_18
REMARK   11  A    between atoms: O_18  and  C_19
REMARK   12  A    between atoms: C_20  and  O_61
REMARK   13  A    between atoms: C_21  and  O_60
REMARK   14  A    between atoms: C_22  and  C_58
REMARK   15  A    between atoms: C_24  and  O_25
REMARK   16  A    between atoms: O_25  and  C_26
REMARK   17  A    between atoms: C_27  and  C_50
REMARK   18  A    between atoms: C_31  and  O_38
REMARK   19  A    between atoms: C_33  and  O_37
REMARK   20  A    between atoms: O_38  and  C_39
REMARK   21  A    between atoms: C_40  and  O_49
REMARK   22  A    between atoms: C_41  and  O_48
REMARK   23  A    between atoms: C_42  and  O_47
REMARK   24  A    between atoms: C_43  and  C_45
REMARK   25  A    between atoms: C_45  and  O_46
REMARK   26  A    between atoms: C_52  and  O_57
REMARK   27  A    between atoms: C_53  and  O_56
REMARK   28  A    between atoms: C_58  and  O_59
REMARK   29  A    between atoms: C_62  and  O_63
REMARK                            x       y       z     vdW  Elec       q    Type
REMARK                         _______ _______ _______ _____ _____    ______ ____
ROOT
ATOM      1  C   UNL     1       5.254   1.114  25.159  0.00  0.00    +0.221 C 
ATOM      2  C   UNL     1       6.267   0.638  26.263  0.00  0.00    +0.340 C 
ATOM      3  O   UNL     1       7.225   1.682  26.567  0.00  0.00    -0.331 OA
ATOM      4  C   UNL     1       7.995   2.184  25.468  0.00  0.00    +0.179 C 
ATOM      5  C   UNL     1       7.082   2.633  24.316  0.00  0.00    +0.177 C 
ATOM      6  C   UNL     1       6.112   1.508  23.943  0.00  0.00    +0.180 C 
ENDROOT
BRANCH   6   7
ATOM      7  O   UNL     1       5.361   1.876  22.783  0.00  0.00    -0.386 OA
ATOM      8  H   UNL     1       5.692   2.730  22.451  0.00  0.00    +0.210 HD
ENDBRANCH   6   7
BRANCH   5   9
ATOM      9  O   UNL     1       7.837   3.025  23.161  0.00  0.00    -0.386 OA
ATOM     10  H   UNL     1       7.201   3.354  22.494  0.00  0.00    +0.210 HD
ENDBRANCH   5   9
BRANCH   4  11
ATOM     11  C   UNL     1       9.120   1.224  25.021  0.00  0.00    +0.190 C 
BRANCH  11  12
ATOM     12  O   UNL     1       9.927   1.784  23.988  0.00  0.00    -0.392 OA
ATOM     13  H   UNL     1      10.613   2.332  24.423  0.00  0.00    +0.210 HD
ENDBRANCH  11  12
ENDBRANCH   4  11
BRANCH   2  14
ATOM     14  O   UNL     1       6.981  -0.544  25.879  0.00  0.00    -0.453 OA
BRANCH  14  15
ATOM     15  C   UNL     1       6.316  -1.683  25.467  0.00  0.00    +0.214 A 
ATOM     16  C   UNL     1       5.143  -2.244  26.171  0.00  0.00    +0.238 A 
ATOM     17  O   UNL     1       5.041  -2.168  27.379  0.00  0.00    -0.283 OA
ATOM     18  C   UNL     1       4.239  -3.097  25.406  0.00  0.00    +0.109 A 
ATOM     19  C   UNL     1       4.868  -3.864  24.442  0.00  0.00    +0.147 A 
ATOM     20  C   UNL     1       4.197  -4.931  23.868  0.00  0.00    +0.093 A 
ATOM     21  C   UNL     1       2.862  -5.191  24.191  0.00  0.00    +0.131 A 
ATOM     22  C   UNL     1       2.198  -4.359  25.105  0.00  0.00    +0.092 A 
ATOM     23  O   UNL     1       6.161  -3.638  24.049  0.00  0.00    -0.451 OA
ATOM     24  C   UNL     1       2.895  -3.315  25.721  0.00  0.00    +0.135 A 
ATOM     25  C   UNL     1       6.761  -2.458  24.461  0.00  0.00    +0.181 A 
BRANCH  25  26
ATOM     26  C   UNL     1       8.039  -2.201  23.788  0.00  0.00    +0.025 A 
ATOM     27  C   UNL     1       9.243  -2.730  24.280  0.00  0.00    +0.015 A 
ATOM     28  C   UNL     1      10.448  -2.456  23.629  0.00  0.00    +0.050 A 
ATOM     29  C   UNL     1      10.442  -1.656  22.495  0.00  0.00    +0.158 A 
ATOM     30  C   UNL     1       9.253  -1.127  22.001  0.00  0.00    +0.159 A 
ATOM     31  C   UNL     1       8.049  -1.393  22.640  0.00  0.00    +0.060 A 
BRANCH  30  32
ATOM     32  O   UNL     1       9.320  -0.344  20.881  0.00  0.00    -0.503 OA
ATOM     33  H   UNL     1       9.215   0.585  21.152  0.00  0.00    +0.292 HD
ENDBRANCH  30  32
BRANCH  29  34
ATOM     34  O   UNL     1      11.622  -1.384  21.862  0.00  0.00    -0.503 OA
ATOM     35  H   UNL     1      11.418  -1.481  20.910  0.00  0.00    +0.292 HD
ENDBRANCH  29  34
ENDBRANCH  25  26
BRANCH  24  36
ATOM     36  O   UNL     1       2.253  -2.493  26.604  0.00  0.00    -0.506 OA
ATOM     37  H   UNL     1       2.904  -2.032  27.159  0.00  0.00    +0.292 HD
ENDBRANCH  24  36
BRANCH  21  38
ATOM     38  O   UNL     1       2.120  -6.219  23.655  0.00  0.00    -0.461 OA
BRANCH  38  39
ATOM     39  C   UNL     1       0.985  -6.641  24.442  0.00  0.00    +0.339 C 
ATOM     40  O   UNL     1       1.176  -6.400  25.845  0.00  0.00    -0.331 OA
ATOM     41  C   UNL     1       2.352  -7.056  26.354  0.00  0.00    +0.179 C 
ATOM     42  C   UNL     1       2.170  -8.574  26.246  0.00  0.00    +0.177 C 
ATOM     43  C   UNL     1       1.798  -9.002  24.815  0.00  0.00    +0.180 C 
ATOM     44  C   UNL     1       0.675  -8.132  24.226  0.00  0.00    +0.214 C 
BRANCH  44  45
ATOM     45  O   UNL     1       0.445  -8.412  22.840  0.00  0.00    -0.383 OA
ATOM     46  H   UNL     1      -0.502  -8.277  22.658  0.00  0.00    +0.210 HD
ENDBRANCH  44  45
BRANCH  43  47
ATOM     47  O   UNL     1       1.391 -10.380  24.843  0.00  0.00    -0.386 OA
ATOM     48  H   UNL     1       0.967 -10.555  23.977  0.00  0.00    +0.210 HD
ENDBRANCH  43  47
BRANCH  42  49
ATOM     49  O   UNL     1       1.128  -9.038  27.127  0.00  0.00    -0.386 OA
ATOM     50  H   UNL     1       0.738  -8.262  27.573  0.00  0.00    +0.210 HD
ENDBRANCH  42  49
BRANCH  41  51
ATOM     51  C   UNL     1       2.581  -6.604  27.806  0.00  0.00    +0.190 C 
BRANCH  51  52
ATOM     52  O   UNL     1       3.118  -7.655  28.610  0.00  0.00    -0.392 OA
ATOM     53  H   UNL     1       2.802  -8.505  28.264  0.00  0.00    +0.210 HD
ENDBRANCH  51  52
ENDBRANCH  41  51
ENDBRANCH  38  39
ENDBRANCH  21  38
ENDBRANCH  14  15
ENDBRANCH   2  14
BRANCH   1  54
ATOM     54  O   UNL     1       4.447   2.207  25.684  0.00  0.00    -0.336 OA
BRANCH  54  56
ATOM     55  C   UNL     1       4.255   4.674  25.602  0.00  0.00    +0.263 C 
ATOM     56  C   UNL     1       4.223   3.335  24.804  0.00  0.00    +0.295 C 
ATOM     57  O   UNL     1       3.083   3.161  23.977  0.00  0.00    -0.340 OA
ATOM     58  C   UNL     1       1.805   3.451  24.549  0.00  0.00    +0.178 C 
ATOM     59  C   UNL     1       1.724   4.885  25.057  0.00  0.00    +0.178 C 
ATOM     60  C   UNL     1       2.873   5.207  26.029  0.00  0.00    +0.191 C 
BRANCH  59  61
ATOM     61  O   UNL     1       0.445   5.139  25.657  0.00  0.00    -0.386 OA
ATOM     62  H   UNL     1      -0.194   4.513  25.268  0.00  0.00    +0.210 HD
ENDBRANCH  59  61
BRANCH  60  63
ATOM     63  O   UNL     1       2.919   6.603  26.353  0.00  0.00    -0.385 OA
ATOM     64  H   UNL     1       3.060   7.087  25.520  0.00  0.00    +0.210 HD
ENDBRANCH  60  63
BRANCH  58  65
ATOM     65  C   UNL     1       1.366   2.405  25.569  0.00  0.00    +0.190 C 
BRANCH  65  66
ATOM     66  O   UNL     1       1.825   2.670  26.889  0.00  0.00    -0.392 OA
ATOM     67  H   UNL     1       1.967   3.636  26.949  0.00  0.00    +0.210 HD
ENDBRANCH  65  66
ENDBRANCH  58  65
BRANCH  55  68
ATOM     68  O   UNL     1       5.157   5.658  24.981  0.00  0.00    -0.450 OA
BRANCH  68  69
ATOM     69  C   UNL     1       5.948   6.477  25.705  0.00  0.00    +0.332 C 
ATOM     70  O   UNL     1       5.637   7.060  26.727  0.00  0.00    -0.246 OA
BRANCH  69  72
ATOM     71  C   UNL     1       8.356   5.954  25.580  0.00  0.00    +0.015 C 
ATOM     72  C   UNL     1       7.279   6.557  25.040  0.00  0.00    +0.092 C 
BRANCH  71  74
ATOM     73  C   UNL     1      10.748   6.839  25.436  0.00  0.00    +0.012 A 
ATOM     74  C   UNL     1       9.740   5.933  25.053  0.00  0.00    -0.021 A 
ATOM     75  C   UNL     1      10.073   4.945  24.108  0.00  0.00    +0.057 A 
ATOM     76  C   UNL     1      11.356   4.887  23.566  0.00  0.00    +0.159 A 
ATOM     77  C   UNL     1      12.341   5.799  23.944  0.00  0.00    +0.158 A 
ATOM     78  C   UNL     1      12.043   6.767  24.885  0.00  0.00    +0.050 A 
BRANCH  76  79
ATOM     79  O   UNL     1      11.641   3.921  22.640  0.00  0.00    -0.503 OA
ATOM     80  H   UNL     1      12.437   3.473  22.990  0.00  0.00    +0.292 HD
ENDBRANCH  76  79
BRANCH  77  81
ATOM     81  O   UNL     1      13.569   5.681  23.361  0.00  0.00    -0.503 OA
ATOM     82  H   UNL     1      13.873   4.767  23.495  0.00  0.00    +0.292 HD
ENDBRANCH  77  81
ENDBRANCH  71  74
ENDBRANCH  69  72
ENDBRANCH  68  69
ENDBRANCH  55  68
ENDBRANCH  54  56
ENDBRANCH   1  54
TORSDOF 29
ENDMDL
MODEL 7
REMARK VINA RESULT:      -4.1      1.280      1.840
REMARK  Name = 
REMARK  29 active torsions:
REMARK  status: ('A' for Active; 'I' for Inactive)
REMARK    1  A    between atoms: C_3  and  O_67
REMARK    2  A    between atoms: C_4  and  O_66
REMARK    3  A    between atoms: C_6  and  C_7
REMARK    4  A    between atoms: C_8  and  C_9
REMARK    5  A    between atoms: C_9  and  O_11
REMARK    6  A    between atoms: O_11  and  C_12
REMARK    7  A    between atoms: C_13  and  O_65
REMARK    8  A    between atoms: C_14  and  O_64
REMARK    9  A    between atoms: C_15  and  C_62
REMARK   10  A    between atoms: C_17  and  O_18
REMARK   11  A    between atoms: O_18  and  C_19
REMARK   12  A    between atoms: C_20  and  O_61
REMARK   13  A    between atoms: C_21  and  O_60
REMARK   14  A    between atoms: C_22  and  C_58
REMARK   15  A    between atoms: C_24  and  O_25
REMARK   16  A    between atoms: O_25  and  C_26
REMARK   17  A    between atoms: C_27  and  C_50
REMARK   18  A    between atoms: C_31  and  O_38
REMARK   19  A    between atoms: C_33  and  O_37
REMARK   20  A    between atoms: O_38  and  C_39
REMARK   21  A    between atoms: C_40  and  O_49
REMARK   22  A    between atoms: C_41  and  O_48
REMARK   23  A    between atoms: C_42  and  O_47
REMARK   24  A    between atoms: C_43  and  C_45
REMARK   25  A    between atoms: C_45  and  O_46
REMARK   26  A    between atoms: C_52  and  O_57
REMARK   27  A    between atoms: C_53  and  O_56
REMARK   28  A    between atoms: C_58  and  O_59
REMARK   29  A    between atoms: C_62  and  O_63
REMARK                            x       y       z     vdW  Elec       q    Type
REMARK                         _______ _______ _______ _____ _____    ______ ____
ROOT
ATOM      1  C   UNL     1       3.831  -4.873  26.529  0.00  0.00    +0.221 C 
ATOM      2  C   UNL     1       5.096  -4.261  27.236  0.00  0.00    +0.340 C 
ATOM      3  O   UNL     1       5.581  -5.145  28.276  0.00  0.00    -0.331 OA
ATOM      4  C   UNL     1       4.647  -5.499  29.303  0.00  0.00    +0.179 C 
ATOM      5  C   UNL     1       3.353  -6.067  28.698  0.00  0.00    +0.177 C 
ATOM      6  C   UNL     1       2.797  -5.104  27.645  0.00  0.00    +0.180 C 
ENDROOT
BRANCH   6   7
ATOM      7  O   UNL     1       1.524  -5.566  27.187  0.00  0.00    -0.386 OA
ATOM      8  H   UNL     1       1.617  -6.480  26.864  0.00  0.00    +0.210 HD
ENDBRANCH   6   7
BRANCH   5   9
ATOM      9  O   UNL     1       2.360  -6.313  29.704  0.00  0.00    -0.386 OA
ATOM     10  H   UNL     1       2.085  -5.445  30.061  0.00  0.00    +0.210 HD
ENDBRANCH   5   9
BRANCH   4  11
ATOM     11  C   UNL     1       4.402  -4.364  30.323  0.00  0.00    +0.190 C 
BRANCH  11  12
ATOM     12  O   UNL     1       3.174  -3.681  30.082  0.00  0.00    -0.392 OA
ATOM     13  H   UNL     1       2.539  -4.341  29.732  0.00  0.00    +0.210 HD
ENDBRANCH  11  12
ENDBRANCH   4  11
BRANCH   2  14
ATOM     14  O   UNL     1       4.835  -2.975  27.809  0.00  0.00    -0.453 OA
BRANCH  14  15
ATOM     15  C   UNL     1       5.269  -1.814  27.198  0.00  0.00    +0.214 A 
ATOM     16  C   UNL     1       4.462  -0.578  27.123  0.00  0.00    +0.238 A 
ATOM     17  O   UNL     1       3.252  -0.624  27.020  0.00  0.00    -0.283 OA
ATOM     18  C   UNL     1       5.171   0.684  26.933  0.00  0.00    +0.109 A 
ATOM     19  C   UNL     1       6.306   0.579  26.149  0.00  0.00    +0.147 A 
ATOM     20  C   UNL     1       6.890   1.724  25.632  0.00  0.00    +0.093 A 
ATOM     21  C   UNL     1       6.395   2.988  25.962  0.00  0.00    +0.131 A 
ATOM     22  C   UNL     1       5.297   3.096  26.827  0.00  0.00    +0.092 A 
ATOM     23  O   UNL     1       6.867  -0.627  25.822  0.00  0.00    -0.451 OA
ATOM     24  C   UNL     1       4.678   1.937  27.306  0.00  0.00    +0.135 A 
ATOM     25  C   UNL     1       6.417  -1.750  26.499  0.00  0.00    +0.181 A 
BRANCH  25  26
ATOM     26  C   UNL     1       7.247  -2.936  26.255  0.00  0.00    +0.025 A 
ATOM     27  C   UNL     1       8.406  -3.183  27.008  0.00  0.00    +0.015 A 
ATOM     28  C   UNL     1       9.187  -4.310  26.743  0.00  0.00    +0.050 A 
ATOM     29  C   UNL     1       8.807  -5.179  25.731  0.00  0.00    +0.158 A 
ATOM     30  C   UNL     1       7.660  -4.941  24.979  0.00  0.00    +0.159 A 
ATOM     31  C   UNL     1       6.875  -3.824  25.233  0.00  0.00    +0.060 A 
BRANCH  30  32
ATOM     32  O   UNL     1       7.346  -5.836  23.994  0.00  0.00    -0.503 OA
ATOM     33  H   UNL     1       7.528  -5.419  23.133  0.00  0.00    +0.292 HD
ENDBRANCH  30  32
BRANCH  29  34
ATOM     34  O   UNL     1       9.576  -6.278  25.469  0.00  0.00    -0.503 OA
ATOM     35  H   UNL     1      10.362  -6.170  26.042  0.00  0.00    +0.292 HD
ENDBRANCH  29  34
ENDBRANCH  25  26
BRANCH  24  36
ATOM     36  O   UNL     1       3.614   2.032  28.157  0.00  0.00    -0.506 OA
ATOM     37  H   UNL     1       2.929   2.603  27.768  0.00  0.00    +0.292 HD
ENDBRANCH  24  36
BRANCH  21  38
ATOM     38  O   UNL     1       6.926   4.173  25.505  0.00  0.00    -0.461 OA
BRANCH  38  39
ATOM     39  C   UNL     1       7.274   4.197  24.103  0.00  0.00    +0.339 C 
ATOM     40  O   UNL     1       8.287   3.232  23.777  0.00  0.00    -0.331 OA
ATOM     41  C   UNL     1       9.488   3.423  24.548  0.00  0.00    +0.179 C 
ATOM     42  C   UNL     1      10.113   4.774  24.182  0.00  0.00    +0.177 C 
ATOM     43  C   UNL     1       9.102   5.926  24.323  0.00  0.00    +0.180 C 
ATOM     44  C   UNL     1       7.752   5.593  23.667  0.00  0.00    +0.214 C 
BRANCH  44  45
ATOM     45  O   UNL     1       6.756   6.585  23.944  0.00  0.00    -0.383 OA
ATOM     46  H   UNL     1       6.039   6.481  23.295  0.00  0.00    +0.210 HD
ENDBRANCH  44  45
BRANCH  43  47
ATOM     47  O   UNL     1       9.665   7.103  23.724  0.00  0.00    -0.386 OA
ATOM     48  H   UNL     1      10.277   6.786  23.027  0.00  0.00    +0.210 HD
ENDBRANCH  43  47
BRANCH  42  49
ATOM     49  O   UNL     1      10.591   4.776  22.823  0.00  0.00    -0.386 OA
ATOM     50  H   UNL     1       9.817   4.770  22.227  0.00  0.00    +0.210 HD
ENDBRANCH  42  49
BRANCH  41  51
ATOM     51  C   UNL     1      10.444   2.251  24.272  0.00  0.00    +0.190 C 
BRANCH  51  52
ATOM     52  O   UNL     1      10.264   1.187  25.207  0.00  0.00    -0.392 OA
ATOM     53  H   UNL     1      10.016   0.384  24.721  0.00  0.00    +0.210 HD
ENDBRANCH  51  52
ENDBRANCH  41  51
ENDBRANCH  38  39
ENDBRANCH  21  38
ENDBRANCH  14  15
ENDBRANCH   2  14
BRANCH   1  54
ATOM     54  O   UNL     1       4.213  -6.090  25.824  0.00  0.00    -0.336 OA
BRANCH  54  56
ATOM     55  C   UNL     1       3.350  -4.860  23.857  0.00  0.00    +0.263 C 
ATOM     56  C   UNL     1       4.247  -6.023  24.379  0.00  0.00    +0.295 C 
ATOM     57  O   UNL     1       4.002  -7.282  23.771  0.00  0.00    -0.340 OA
ATOM     58  C   UNL     1       2.640  -7.698  23.645  0.00  0.00    +0.178 C 
ATOM     59  C   UNL     1       1.813  -6.695  22.850  0.00  0.00    +0.178 C 
ATOM     60  C   UNL     1       1.927  -5.277  23.436  0.00  0.00    +0.191 C 
BRANCH  59  61
ATOM     61  O   UNL     1       0.443  -7.118  22.768  0.00  0.00    -0.386 OA
ATOM     62  H   UNL     1       0.096  -7.175  23.678  0.00  0.00    +0.210 HD
ENDBRANCH  59  61
BRANCH  60  63
ATOM     63  O   UNL     1       1.318  -4.298  22.582  0.00  0.00    -0.385 OA
ATOM     64  H   UNL     1       0.368  -4.280  22.798  0.00  0.00    +0.210 HD
ENDBRANCH  60  63
BRANCH  58  65
ATOM     65  C   UNL     1       2.018  -8.094  24.981  0.00  0.00    +0.190 C 
BRANCH  65  66
ATOM     66  O   UNL     1       2.948  -8.665  25.894  0.00  0.00    -0.392 OA
ATOM     67  H   UNL     1       3.804  -8.217  25.740  0.00  0.00    +0.210 HD
ENDBRANCH  65  66
ENDBRANCH  58  65
BRANCH  55  68
ATOM     68  O   UNL     1       4.073  -3.997  22.907  0.00  0.00    -0.450 OA
BRANCH  68  69
ATOM     69  C   UNL     1       4.958  -4.481  22.012  0.00  0.00    +0.332 C 
ATOM     70  O   UNL     1       5.034  -5.633  21.627  0.00  0.00    -0.246 OA
BRANCH  69  72
ATOM     71  C   UNL     1       6.599  -2.693  22.455  0.00  0.00    +0.015 C 
ATOM     72  C   UNL     1       5.840  -3.366  21.569  0.00  0.00    +0.092 C 
BRANCH  71  74
ATOM     73  C   UNL     1       8.927  -1.696  22.121  0.00  0.00    +0.012 A 
ATOM     74  C   UNL     1       7.526  -1.570  22.185  0.00  0.00    -0.021 A 
ATOM     75  C   UNL     1       6.974  -0.292  21.978  0.00  0.00    +0.057 A 
ATOM     76  C   UNL     1       7.799   0.805  21.736  0.00  0.00    +0.159 A 
ATOM     77  C   UNL     1       9.186   0.668  21.688  0.00  0.00    +0.158 A 
ATOM     78  C   UNL     1       9.751  -0.580  21.869  0.00  0.00    +0.050 A 
BRANCH  76  79
ATOM     79  O   UNL     1       7.229   2.035  21.552  0.00  0.00    -0.503 OA
ATOM     80  H   UNL     1       7.604   2.588  22.266  0.00  0.00    +0.292 HD
ENDBRANCH  76  79
BRANCH  77  81
ATOM     81  O   UNL     1       9.924   1.792  21.456  0.00  0.00    -0.503 OA
ATOM     82  H   UNL     1      10.556   1.588  20.745  0.00  0.00    +0.292 HD
ENDBRANCH  77  81
ENDBRANCH  71  74
ENDBRANCH  69  72
ENDBRANCH  68  69
ENDBRANCH  55  68
ENDBRANCH  54  56
ENDBRANCH   1  54
TORSDOF 29
ENDMDL
MODEL 8
REMARK VINA RESULT:      -3.5      2.527      5.889
REMARK  Name = 
REMARK  29 active torsions:
REMARK  status: ('A' for Active; 'I' for Inactive)
REMARK    1  A    between atoms: C_3  and  O_67
REMARK    2  A    between atoms: C_4  and  O_66
REMARK    3  A    between atoms: C_6  and  C_7
REMARK    4  A    between atoms: C_8  and  C_9
REMARK    5  A    between atoms: C_9  and  O_11
REMARK    6  A    between atoms: O_11  and  C_12
REMARK    7  A    between atoms: C_13  and  O_65
REMARK    8  A    between atoms: C_14  and  O_64
REMARK    9  A    between atoms: C_15  and  C_62
REMARK   10  A    between atoms: C_17  and  O_18
REMARK   11  A    between atoms: O_18  and  C_19
REMARK   12  A    between atoms: C_20  and  O_61
REMARK   13  A    between atoms: C_21  and  O_60
REMARK   14  A    between atoms: C_22  and  C_58
REMARK   15  A    between atoms: C_24  and  O_25
REMARK   16  A    between atoms: O_25  and  C_26
REMARK   17  A    between atoms: C_27  and  C_50
REMARK   18  A    between atoms: C_31  and  O_38
REMARK   19  A    between atoms: C_33  and  O_37
REMARK   20  A    between atoms: O_38  and  C_39
REMARK   21  A    between atoms: C_40  and  O_49
REMARK   22  A    between atoms: C_41  and  O_48
REMARK   23  A    between atoms: C_42  and  O_47
REMARK   24  A    between atoms: C_43  and  C_45
REMARK   25  A    between atoms: C_45  and  O_46
REMARK   26  A    between atoms: C_52  and  O_57
REMARK   27  A    between atoms: C_53  and  O_56
REMARK   28  A    between atoms: C_58  and  O_59
REMARK   29  A    between atoms: C_62  and  O_63
REMARK                            x       y       z     vdW  Elec       q    Type
REMARK                         _______ _______ _______ _____ _____    ______ ____
ROOT
ATOM      1  C   UNL     1       2.952  -1.768  26.457  0.00  0.00    +0.221 C 
ATOM      2  C   UNL     1       4.124  -0.982  27.150  0.00  0.00    +0.340 C 
ATOM      3  O   UNL     1       4.105  -1.188  28.583  0.00  0.00    -0.331 OA
ATOM      4  C   UNL     1       2.894  -0.838  29.265  0.00  0.00    +0.179 C 
ATOM      5  C   UNL     1       1.681  -1.530  28.622  0.00  0.00    +0.177 C 
ATOM      6  C   UNL     1       1.657  -1.258  27.115  0.00  0.00    +0.180 C 
ENDROOT
BRANCH   6   7
ATOM      7  O   UNL     1       0.456  -1.783  26.544  0.00  0.00    -0.386 OA
ATOM      8  H   UNL     1      -0.285  -1.193  26.770  0.00  0.00    +0.210 HD
ENDBRANCH   6   7
BRANCH   5   9
ATOM      9  O   UNL     1       0.447  -1.096  29.213  0.00  0.00    -0.386 OA
ATOM     10  H   UNL     1       0.293  -0.174  28.922  0.00  0.00    +0.210 HD
ENDBRANCH   5   9
BRANCH   4  11
ATOM     11  C   UNL     1       2.710   0.687  29.438  0.00  0.00    +0.190 C 
BRANCH  11  12
ATOM     12  O   UNL     1       3.712   1.258  30.276  0.00  0.00    -0.392 OA
ATOM     13  H   UNL     1       4.211   0.516  30.677  0.00  0.00    +0.210 HD
ENDBRANCH  11  12
ENDBRANCH   4  11
BRANCH   2  14
ATOM     14  O   UNL     1       4.071   0.425  26.886  0.00  0.00    -0.453 OA
BRANCH  14  15
ATOM     15  C   UNL     1       5.202   1.130  26.520  0.00  0.00    +0.214 A 
ATOM     16  C   UNL     1       6.576   0.605  26.666  0.00  0.00    +0.238 A 
ATOM     17  O   UNL     1       6.873  -0.126  27.590  0.00  0.00    -0.283 OA
ATOM     18  C   UNL     1       7.614   1.177  25.813  0.00  0.00    +0.109 A 
ATOM     19  C   UNL     1       7.439   2.522  25.539  0.00  0.00    +0.147 A 
ATOM     20  C   UNL     1       8.491   3.258  25.018  0.00  0.00    +0.093 A 
ATOM     21  C   UNL     1       9.699   2.638  24.687  0.00  0.00    +0.131 A 
ATOM     22  C   UNL     1       9.845   1.258  24.885  0.00  0.00    +0.092 A 
ATOM     23  O   UNL     1       6.266   3.181  25.800  0.00  0.00    -0.451 OA
ATOM     24  C   UNL     1       8.800   0.528  25.460  0.00  0.00    +0.135 A 
ATOM     25  C   UNL     1       5.157   2.415  26.122  0.00  0.00    +0.181 A 
BRANCH  25  26
ATOM     26  C   UNL     1       3.911   3.191  26.137  0.00  0.00    +0.025 A 
ATOM     27  C   UNL     1       2.862   2.904  25.250  0.00  0.00    +0.015 A 
ATOM     28  C   UNL     1       1.694   3.670  25.274  0.00  0.00    +0.050 A 
ATOM     29  C   UNL     1       1.583   4.715  26.180  0.00  0.00    +0.158 A 
ATOM     30  C   UNL     1       2.620   5.007  27.062  0.00  0.00    +0.159 A 
ATOM     31  C   UNL     1       3.786   4.252  27.048  0.00  0.00    +0.060 A 
BRANCH  30  32
ATOM     32  O   UNL     1       2.447   6.053  27.926  0.00  0.00    -0.503 OA
ATOM     33  H   UNL     1       2.171   6.831  27.411  0.00  0.00    +0.292 HD
ENDBRANCH  30  32
BRANCH  29  34
ATOM     34  O   UNL     1       0.443   5.467  26.198  0.00  0.00    -0.503 OA
ATOM     35  H   UNL     1       0.367   5.819  25.287  0.00  0.00    +0.292 HD
ENDBRANCH  29  34
ENDBRANCH  25  26
BRANCH  24  36
ATOM     36  O   UNL     1       8.929  -0.819  25.646  0.00  0.00    -0.506 OA
ATOM     37  H   UNL     1       8.052  -1.221  25.770  0.00  0.00    +0.292 HD
ENDBRANCH  24  36
BRANCH  21  38
ATOM     38  O   UNL     1      10.785   3.293  24.151  0.00  0.00    -0.461 OA
BRANCH  38  39
ATOM     39  C   UNL     1      10.507   4.589  23.577  0.00  0.00    +0.339 C 
ATOM     40  O   UNL     1      11.240   4.815  22.363  0.00  0.00    -0.331 OA
ATOM     41  C   UNL     1      12.662   4.700  22.558  0.00  0.00    +0.179 C 
ATOM     42  C   UNL     1      13.134   5.809  23.504  0.00  0.00    +0.177 C 
ATOM     43  C   UNL     1      12.332   5.815  24.818  0.00  0.00    +0.180 C 
ATOM     44  C   UNL     1      10.818   5.722  24.571  0.00  0.00    +0.214 C 
BRANCH  44  45
ATOM     45  O   UNL     1      10.080   5.554  25.787  0.00  0.00    -0.383 OA
ATOM     46  H   UNL     1       9.532   6.347  25.920  0.00  0.00    +0.210 HD
ENDBRANCH  44  45
BRANCH  43  47
ATOM     47  O   UNL     1      12.642   7.021  25.535  0.00  0.00    -0.386 OA
ATOM     48  H   UNL     1      13.442   6.824  26.065  0.00  0.00    +0.210 HD
ENDBRANCH  43  47
BRANCH  42  49
ATOM     49  O   UNL     1      12.991   7.108  22.898  0.00  0.00    -0.386 OA
ATOM     50  H   UNL     1      13.723   7.231  22.264  0.00  0.00    +0.210 HD
ENDBRANCH  42  49
BRANCH  41  51
ATOM     51  C   UNL     1      13.356   4.776  21.188  0.00  0.00    +0.190 C 
BRANCH  51  52
ATOM     52  O   UNL     1      14.277   5.865  21.119  0.00  0.00    -0.392 OA
ATOM     53  H   UNL     1      13.788   6.671  20.888  0.00  0.00    +0.210 HD
ENDBRANCH  51  52
ENDBRANCH  41  51
ENDBRANCH  38  39
ENDBRANCH  21  38
ENDBRANCH  14  15
ENDBRANCH   2  14
BRANCH   1  54
ATOM     54  O   UNL     1       3.167  -3.200  26.623  0.00  0.00    -0.336 OA
BRANCH  54  56
ATOM     55  C   UNL     1       4.006  -5.014  25.160  0.00  0.00    +0.263 C 
ATOM     56  C   UNL     1       4.356  -3.756  26.012  0.00  0.00    +0.295 C 
ATOM     57  O   UNL     1       5.409  -3.943  26.945  0.00  0.00    -0.340 OA
ATOM     58  C   UNL     1       5.368  -5.120  27.756  0.00  0.00    +0.178 C 
ATOM     59  C   UNL     1       5.341  -6.389  26.912  0.00  0.00    +0.178 C 
ATOM     60  C   UNL     1       4.196  -6.361  25.884  0.00  0.00    +0.191 C 
BRANCH  59  61
ATOM     61  O   UNL     1       5.264  -7.553  27.749  0.00  0.00    -0.386 OA
ATOM     62  H   UNL     1       4.447  -8.033  27.515  0.00  0.00    +0.210 HD
ENDBRANCH  59  61
BRANCH  60  63
ATOM     63  O   UNL     1       4.286  -7.452  24.959  0.00  0.00    -0.385 OA
ATOM     64  H   UNL     1       3.551  -8.060  25.159  0.00  0.00    +0.210 HD
ENDBRANCH  60  63
BRANCH  58  65
ATOM     65  C   UNL     1       4.279  -5.061  28.823  0.00  0.00    +0.190 C 
BRANCH  65  66
ATOM     66  O   UNL     1       4.159  -3.787  29.444  0.00  0.00    -0.392 OA
ATOM     67  H   UNL     1       4.086  -3.950  30.407  0.00  0.00    +0.210 HD
ENDBRANCH  65  66
ENDBRANCH  58  65
BRANCH  55  68
ATOM     68  O   UNL     1       4.571  -4.929  23.803  0.00  0.00    -0.450 OA
BRANCH  68  69
ATOM     69  C   UNL     1       5.893  -4.797  23.573  0.00  0.00    +0.332 C 
ATOM     70  O   UNL     1       6.740  -5.659  23.725  0.00  0.00    -0.246 OA
BRANCH  69  72
ATOM     71  C   UNL     1       7.414  -2.956  22.955  0.00  0.00    +0.015 C 
ATOM     72  C   UNL     1       6.154  -3.410  23.099  0.00  0.00    +0.092 C 
BRANCH  71  74
ATOM     73  C   UNL     1       9.121  -1.333  21.965  0.00  0.00    +0.012 A 
ATOM     74  C   UNL     1       7.847  -1.616  22.496  0.00  0.00    -0.021 A 
ATOM     75  C   UNL     1       6.930  -0.554  22.596  0.00  0.00    +0.057 A 
ATOM     76  C   UNL     1       7.288   0.732  22.195  0.00  0.00    +0.159 A 
ATOM     77  C   UNL     1       8.557   1.001  21.683  0.00  0.00    +0.158 A 
ATOM     78  C   UNL     1       9.469  -0.030  21.557  0.00  0.00    +0.050 A 
BRANCH  76  79
ATOM     79  O   UNL     1       6.375   1.743  22.318  0.00  0.00    -0.503 OA
ATOM     80  H   UNL     1       5.524   1.338  22.059  0.00  0.00    +0.292 HD
ENDBRANCH  76  79
BRANCH  77  81
ATOM     81  O   UNL     1       8.833   2.287  21.321  0.00  0.00    -0.503 OA
ATOM     82  H   UNL     1       9.507   2.258  20.621  0.00  0.00    +0.292 HD
ENDBRANCH  77  81
ENDBRANCH  71  74
ENDBRANCH  69  72
ENDBRANCH  68  69
ENDBRANCH  55  68
ENDBRANCH  54  56
ENDBRANCH   1  54
TORSDOF 29
ENDMDL
