MODEL 1
REMARK VINA RESULT:      -7.6      0.000      0.000
REMARK  Name = 
REMARK  11 active torsions:
REMARK  status: ('A' for Active; 'I' for Inactive)
REMARK    1  A    between atoms: C_3  and  O_28
REMARK    2  A    between atoms: C_4  and  O_21
REMARK    3  A    between atoms: C_6  and  C_7
REMARK    4  A    between atoms: C_8  and  O_20
REMARK    5  A    between atoms: C_12  and  O_19
REMARK    6  A    between atoms: C_14  and  O_18
REMARK    7  A    between atoms: O_21  and  C_22
REMARK    8  A    between atoms: C_22  and  C_24
REMARK    9  A    between atoms: C_24  and  C_25
REMARK   10  A    between atoms: C_25  and  C_26
REMARK   11  A    between atoms: C_26  and  N_27
REMARK                            x       y       z     vdW  Elec       q    Type
REMARK                         _______ _______ _______ _____ _____    ______ ____
ROOT
ATOM      1  C   UNL     1       8.664  -0.957  22.245  0.00  0.00    +0.015 A 
ATOM      2  C   UNL     1       8.747  -0.944  23.648  0.00  0.00    +0.025 A 
ATOM      3  C   UNL     1       9.226   0.227  24.259  0.00  0.00    +0.061 A 
ATOM      4  C   UNL     1       9.725   1.287  23.494  0.00  0.00    +0.173 A 
ATOM      5  C   UNL     1       9.714   1.213  22.101  0.00  0.00    +0.159 A 
ATOM      6  C   UNL     1       9.163   0.101  21.472  0.00  0.00    +0.050 A 
ENDROOT
BRANCH   2   7
ATOM      7  C   UNL     1       8.356  -2.108  24.498  0.00  0.00    +0.181 A 
ATOM      8  O   UNL     1       7.161  -1.901  25.188  0.00  0.00    -0.451 OA
ATOM      9  C   UNL     1       6.750  -2.825  26.116  0.00  0.00    +0.147 A 
ATOM     10  C   UNL     1       7.400  -4.038  26.307  0.00  0.00    +0.109 A 
ATOM     11  C   UNL     1       6.920  -4.954  27.251  0.00  0.00    +0.135 A 
ATOM     12  C   UNL     1       5.792  -4.658  28.010  0.00  0.00    +0.091 A 
ATOM     13  C   UNL     1       5.155  -3.435  27.821  0.00  0.00    +0.124 A 
ATOM     14  C   UNL     1       8.602  -4.314  25.521  0.00  0.00    +0.238 A 
ATOM     15  O   UNL     1       9.179  -5.392  25.641  0.00  0.00    -0.283 OA
ATOM     16  C   UNL     1       5.624  -2.517  26.883  0.00  0.00    +0.092 A 
ATOM     17  C   UNL     1       9.108  -3.222  24.642  0.00  0.00    +0.208 A 
BRANCH  11  18
ATOM     18  O   UNL     1       7.518  -6.164  27.488  0.00  0.00    -0.506 OA
ATOM     19  H   UNL     1       6.835  -6.775  27.851  0.00  0.00    +0.292 HD
ENDBRANCH  11  18
BRANCH  13  20
ATOM     20  O   UNL     1       4.049  -3.099  28.547  0.00  0.00    -0.507 OA
ATOM     21  H   UNL     1       3.682  -2.271  28.193  0.00  0.00    +0.292 HD
ENDBRANCH  13  20
BRANCH  17  22
ATOM     22  O   UNL     1      10.350  -3.428  24.071  0.00  0.00    -0.501 OA
ATOM     23  H   UNL     1      10.577  -4.368  24.170  0.00  0.00    +0.292 HD
ENDBRANCH  17  22
ENDBRANCH   2   7
BRANCH   5  24
ATOM     24  O   UNL     1      10.250   2.232  21.366  0.00  0.00    -0.503 OA
ATOM     25  H   UNL     1       9.974   2.132  20.439  0.00  0.00    +0.292 HD
ENDBRANCH   5  24
BRANCH   4  26
ATOM     26  O   UNL     1      10.224   2.478  24.073  0.00  0.00    -0.422 OA
BRANCH  26  27
ATOM     27  C   UNL     1       9.435   3.617  24.185  0.00  0.00    +0.312 C 
ATOM     28  O   UNL     1       8.276   3.671  24.567  0.00  0.00    -0.250 OA
BRANCH  27  29
ATOM     29  C   UNL     1      10.242   4.839  23.831  0.00  0.00    +0.122 C 
BRANCH  29  30
ATOM     30  C   UNL     1      11.671   4.419  23.486  0.00  0.00    +0.026 C 
BRANCH  30  31
ATOM     31  C   UNL     1      12.662   5.585  23.432  0.00  0.00    +0.078 C 
BRANCH  31  32
ATOM     32  N   UNL     1      14.014   5.133  23.134  0.00  0.00    -0.330 NA
ATOM     33  H   UNL     1      14.595   5.942  22.911  0.00  0.00    +0.118 HD
ATOM     34  H   UNL     1      14.443   4.719  23.961  0.00  0.00    +0.118 HD
ENDBRANCH  31  32
ENDBRANCH  30  31
ENDBRANCH  29  30
ENDBRANCH  27  29
ENDBRANCH  26  27
ENDBRANCH   4  26
TORSDOF 11
ENDMDL
MODEL 2
REMARK VINA RESULT:      -7.3      2.434      3.042
REMARK  Name = 
REMARK  11 active torsions:
REMARK  status: ('A' for Active; 'I' for Inactive)
REMARK    1  A    between atoms: C_3  and  O_28
REMARK    2  A    between atoms: C_4  and  O_21
REMARK    3  A    between atoms: C_6  and  C_7
REMARK    4  A    between atoms: C_8  and  O_20
REMARK    5  A    between atoms: C_12  and  O_19
REMARK    6  A    between atoms: C_14  and  O_18
REMARK    7  A    between atoms: O_21  and  C_22
REMARK    8  A    between atoms: C_22  and  C_24
REMARK    9  A    between atoms: C_24  and  C_25
REMARK   10  A    between atoms: C_25  and  C_26
REMARK   11  A    between atoms: C_26  and  N_27
REMARK                            x       y       z     vdW  Elec       q    Type
REMARK                         _______ _______ _______ _____ _____    ______ ____
ROOT
ATOM      1  C   UNL     1       8.784  -1.626  21.917  0.00  0.00    +0.015 A 
ATOM      2  C   UNL     1       7.611  -1.456  22.674  0.00  0.00    +0.025 A 
ATOM      3  C   UNL     1       7.181  -0.141  22.916  0.00  0.00    +0.061 A 
ATOM      4  C   UNL     1       7.960   0.956  22.534  0.00  0.00    +0.173 A 
ATOM      5  C   UNL     1       9.167   0.758  21.860  0.00  0.00    +0.159 A 
ATOM      6  C   UNL     1       9.571  -0.532  21.531  0.00  0.00    +0.050 A 
ENDROOT
BRANCH   2   7
ATOM      7  C   UNL     1       6.823  -2.600  23.223  0.00  0.00    +0.181 A 
ATOM      8  O   UNL     1       7.199  -2.945  24.522  0.00  0.00    -0.451 OA
ATOM      9  C   UNL     1       6.662  -4.066  25.103  0.00  0.00    +0.147 A 
ATOM     10  C   UNL     1       5.648  -4.807  24.509  0.00  0.00    +0.109 A 
ATOM     11  C   UNL     1       5.119  -5.928  25.161  0.00  0.00    +0.135 A 
ATOM     12  C   UNL     1       5.608  -6.315  26.406  0.00  0.00    +0.091 A 
ATOM     13  C   UNL     1       6.633  -5.575  26.987  0.00  0.00    +0.124 A 
ATOM     14  C   UNL     1       5.172  -4.401  23.187  0.00  0.00    +0.238 A 
ATOM     15  O   UNL     1       4.252  -5.015  22.651  0.00  0.00    -0.283 OA
ATOM     16  C   UNL     1       7.164  -4.456  26.347  0.00  0.00    +0.092 A 
ATOM     17  C   UNL     1       5.889  -3.278  22.519  0.00  0.00    +0.208 A 
BRANCH  11  18
ATOM     18  O   UNL     1       4.121  -6.701  24.627  0.00  0.00    -0.506 OA
ATOM     19  H   UNL     1       3.855  -7.365  25.305  0.00  0.00    +0.292 HD
ENDBRANCH  11  18
BRANCH  13  20
ATOM     20  O   UNL     1       7.147  -5.920  28.203  0.00  0.00    -0.507 OA
ATOM     21  H   UNL     1       6.902  -6.840  28.397  0.00  0.00    +0.292 HD
ENDBRANCH  13  20
BRANCH  17  22
ATOM     22  O   UNL     1       5.561  -3.049  21.197  0.00  0.00    -0.501 OA
ATOM     23  H   UNL     1       6.318  -3.313  20.647  0.00  0.00    +0.292 HD
ENDBRANCH  17  22
ENDBRANCH   2   7
BRANCH   5  24
ATOM     24  O   UNL     1       9.944   1.834  21.536  0.00  0.00    -0.503 OA
ATOM     25  H   UNL     1       9.627   2.210  20.698  0.00  0.00    +0.292 HD
ENDBRANCH   5  24
BRANCH   4  26
ATOM     26  O   UNL     1       7.564   2.294  22.769  0.00  0.00    -0.422 OA
BRANCH  26  27
ATOM     27  C   UNL     1       7.146   2.718  24.025  0.00  0.00    +0.312 C 
ATOM     28  O   UNL     1       5.993   2.857  24.405  0.00  0.00    -0.250 OA
BRANCH  27  29
ATOM     29  C   UNL     1       8.339   2.926  24.922  0.00  0.00    +0.122 C 
BRANCH  29  30
ATOM     30  C   UNL     1       8.620   4.422  25.049  0.00  0.00    +0.026 C 
BRANCH  30  31
ATOM     31  C   UNL     1       9.426   5.002  23.882  0.00  0.00    +0.078 C 
BRANCH  31  32
ATOM     32  N   UNL     1      10.335   4.017  23.311  0.00  0.00    -0.330 NA
ATOM     33  H   UNL     1      11.203   4.483  23.041  0.00  0.00    +0.118 HD
ATOM     34  H   UNL     1      10.610   3.332  24.015  0.00  0.00    +0.118 HD
ENDBRANCH  31  32
ENDBRANCH  30  31
ENDBRANCH  29  30
ENDBRANCH  27  29
ENDBRANCH  26  27
ENDBRANCH   4  26
TORSDOF 11
ENDMDL
MODEL 3
REMARK VINA RESULT:      -7.3      3.349      8.217
REMARK  Name = 
REMARK  11 active torsions:
REMARK  status: ('A' for Active; 'I' for Inactive)
REMARK    1  A    between atoms: C_3  and  O_28
REMARK    2  A    between atoms: C_4  and  O_21
REMARK    3  A    between atoms: C_6  and  C_7
REMARK    4  A    between atoms: C_8  and  O_20
REMARK    5  A    between atoms: C_12  and  O_19
REMARK    6  A    between atoms: C_14  and  O_18
REMARK    7  A    between atoms: O_21  and  C_22
REMARK    8  A    between atoms: C_22  and  C_24
REMARK    9  A    between atoms: C_24  and  C_25
REMARK   10  A    between atoms: C_25  and  C_26
REMARK   11  A    between atoms: C_26  and  N_27
REMARK                            x       y       z     vdW  Elec       q    Type
REMARK                         _______ _______ _______ _____ _____    ______ ____
ROOT
ATOM      1  C   UNL     1       8.438  -3.455  26.145  0.00  0.00    +0.015 A 
ATOM      2  C   UNL     1       7.694  -2.819  25.136  0.00  0.00    +0.025 A 
ATOM      3  C   UNL     1       6.428  -3.346  24.834  0.00  0.00    +0.061 A 
ATOM      4  C   UNL     1       5.982  -4.536  25.420  0.00  0.00    +0.173 A 
ATOM      5  C   UNL     1       6.779  -5.198  26.356  0.00  0.00    +0.159 A 
ATOM      6  C   UNL     1       7.999  -4.648  26.737  0.00  0.00    +0.050 A 
ENDROOT
BRANCH   2   7
ATOM      7  C   UNL     1       8.193  -1.629  24.384  0.00  0.00    +0.181 A 
ATOM      8  O   UNL     1       8.156  -0.456  25.138  0.00  0.00    -0.451 OA
ATOM      9  C   UNL     1       8.450   0.742  24.535  0.00  0.00    +0.147 A 
ATOM     10  C   UNL     1       8.920   0.830  23.230  0.00  0.00    +0.109 A 
ATOM     11  C   UNL     1       9.228   2.079  22.675  0.00  0.00    +0.135 A 
ATOM     12  C   UNL     1       9.061   3.242  23.421  0.00  0.00    +0.091 A 
ATOM     13  C   UNL     1       8.577   3.145  24.721  0.00  0.00    +0.124 A 
ATOM     14  C   UNL     1       9.057  -0.402  22.455  0.00  0.00    +0.238 A 
ATOM     15  O   UNL     1       9.504  -0.360  21.311  0.00  0.00    -0.283 OA
ATOM     16  C   UNL     1       8.269   1.907  25.284  0.00  0.00    +0.092 A 
ATOM     17  C   UNL     1       8.578  -1.663  23.088  0.00  0.00    +0.208 A 
BRANCH  11  18
ATOM     18  O   UNL     1       9.692   2.232  21.395  0.00  0.00    -0.506 OA
ATOM     19  H   UNL     1      10.394   1.557  21.242  0.00  0.00    +0.292 HD
ENDBRANCH  11  18
BRANCH  13  20
ATOM     20  O   UNL     1       8.391   4.259  25.488  0.00  0.00    -0.507 OA
ATOM     21  H   UNL     1       8.243   3.985  26.408  0.00  0.00    +0.292 HD
ENDBRANCH  13  20
BRANCH  17  22
ATOM     22  O   UNL     1       8.525  -2.773  22.267  0.00  0.00    -0.501 OA
ATOM     23  H   UNL     1       9.366  -2.834  21.784  0.00  0.00    +0.292 HD
ENDBRANCH  17  22
ENDBRANCH   2   7
BRANCH   5  24
ATOM     24  O   UNL     1       6.356  -6.384  26.884  0.00  0.00    -0.503 OA
ATOM     25  H   UNL     1       6.593  -7.103  26.275  0.00  0.00    +0.292 HD
ENDBRANCH   5  24
BRANCH   4  26
ATOM     26  O   UNL     1       4.717  -5.102  25.134  0.00  0.00    -0.422 OA
BRANCH  26  27
ATOM     27  C   UNL     1       4.586  -6.195  24.283  0.00  0.00    +0.312 C 
ATOM     28  O   UNL     1       4.467  -7.366  24.609  0.00  0.00    -0.250 OA
BRANCH  27  29
ATOM     29  C   UNL     1       4.535  -5.729  22.851  0.00  0.00    +0.122 C 
BRANCH  29  30
ATOM     30  C   UNL     1       5.792  -6.201  22.121  0.00  0.00    +0.026 C 
BRANCH  30  31
ATOM     31  C   UNL     1       6.336  -5.189  21.109  0.00  0.00    +0.078 C 
BRANCH  31  32
ATOM     32  N   UNL     1       5.744  -3.870  21.290  0.00  0.00    -0.330 NA
ATOM     33  H   UNL     1       5.928  -3.306  20.460  0.00  0.00    +0.118 HD
ATOM     34  H   UNL     1       4.727  -3.939  21.344  0.00  0.00    +0.118 HD
ENDBRANCH  31  32
ENDBRANCH  30  31
ENDBRANCH  29  30
ENDBRANCH  27  29
ENDBRANCH  26  27
ENDBRANCH   4  26
TORSDOF 11
ENDMDL
MODEL 4
REMARK VINA RESULT:      -7.2      2.686      3.007
REMARK  Name = 
REMARK  11 active torsions:
REMARK  status: ('A' for Active; 'I' for Inactive)
REMARK    1  A    between atoms: C_3  and  O_28
REMARK    2  A    between atoms: C_4  and  O_21
REMARK    3  A    between atoms: C_6  and  C_7
REMARK    4  A    between atoms: C_8  and  O_20
REMARK    5  A    between atoms: C_12  and  O_19
REMARK    6  A    between atoms: C_14  and  O_18
REMARK    7  A    between atoms: O_21  and  C_22
REMARK    8  A    between atoms: C_22  and  C_24
REMARK    9  A    between atoms: C_24  and  C_25
REMARK   10  A    between atoms: C_25  and  C_26
REMARK   11  A    between atoms: C_26  and  N_27
REMARK                            x       y       z     vdW  Elec       q    Type
REMARK                         _______ _______ _______ _____ _____    ______ ____
ROOT
ATOM      1  C   UNL     1       9.205  -1.319  22.040  0.00  0.00    +0.015 A 
ATOM      2  C   UNL     1       8.236  -1.266  23.058  0.00  0.00    +0.025 A 
ATOM      3  C   UNL     1       7.765   0.001  23.439  0.00  0.00    +0.061 A 
ATOM      4  C   UNL     1       8.333   1.169  22.920  0.00  0.00    +0.173 A 
ATOM      5  C   UNL     1       9.357   1.090  21.975  0.00  0.00    +0.159 A 
ATOM      6  C   UNL     1       9.780  -0.153  21.516  0.00  0.00    +0.050 A 
ENDROOT
BRANCH   2   7
ATOM      7  C   UNL     1       7.704  -2.484  23.740  0.00  0.00    +0.181 A 
ATOM      8  O   UNL     1       6.770  -3.174  22.967  0.00  0.00    -0.451 OA
ATOM      9  C   UNL     1       6.090  -4.233  23.518  0.00  0.00    +0.147 A 
ATOM     10  C   UNL     1       6.388  -4.742  24.775  0.00  0.00    +0.109 A 
ATOM     11  C   UNL     1       5.678  -5.841  25.276  0.00  0.00    +0.135 A 
ATOM     12  C   UNL     1       4.665  -6.429  24.523  0.00  0.00    +0.091 A 
ATOM     13  C   UNL     1       4.366  -5.902  23.270  0.00  0.00    +0.124 A 
ATOM     14  C   UNL     1       7.433  -4.090  25.562  0.00  0.00    +0.238 A 
ATOM     15  O   UNL     1       7.743  -4.539  26.663  0.00  0.00    -0.283 OA
ATOM     16  C   UNL     1       5.068  -4.810  22.762  0.00  0.00    +0.092 A 
ATOM     17  C   UNL     1       8.036  -2.848  24.999  0.00  0.00    +0.208 A 
BRANCH  11  18
ATOM     18  O   UNL     1       5.921  -6.388  26.509  0.00  0.00    -0.506 OA
ATOM     19  H   UNL     1       5.159  -6.970  26.739  0.00  0.00    +0.292 HD
ENDBRANCH  11  18
BRANCH  13  20
ATOM     20  O   UNL     1       3.377  -6.441  22.499  0.00  0.00    -0.507 OA
ATOM     21  H   UNL     1       2.788  -5.728  22.201  0.00  0.00    +0.292 HD
ENDBRANCH  13  20
BRANCH  17  22
ATOM     22  O   UNL     1       8.866  -2.139  25.845  0.00  0.00    -0.501 OA
ATOM     23  H   UNL     1       9.690  -1.941  25.367  0.00  0.00    +0.292 HD
ENDBRANCH  17  22
ENDBRANCH   2   7
BRANCH   5  24
ATOM     24  O   UNL     1       9.939   2.237  21.512  0.00  0.00    -0.503 OA
ATOM     25  H   UNL     1      10.669   2.001  20.915  0.00  0.00    +0.292 HD
ENDBRANCH   5  24
BRANCH   4  26
ATOM     26  O   UNL     1       7.891   2.462  23.287  0.00  0.00    -0.422 OA
BRANCH  26  27
ATOM     27  C   UNL     1       6.810   3.067  22.655  0.00  0.00    +0.312 C 
ATOM     28  O   UNL     1       5.691   2.600  22.511  0.00  0.00    -0.250 OA
BRANCH  27  29
ATOM     29  C   UNL     1       7.184   4.458  22.213  0.00  0.00    +0.122 C 
BRANCH  29  30
ATOM     30  C   UNL     1       7.582   5.286  23.434  0.00  0.00    +0.026 C 
BRANCH  30  31
ATOM     31  C   UNL     1       9.022   5.805  23.387  0.00  0.00    +0.078 C 
BRANCH  31  32
ATOM     32  N   UNL     1       9.990   4.716  23.399  0.00  0.00    -0.330 NA
ATOM     33  H   UNL     1       9.594   3.914  22.908  0.00  0.00    +0.118 HD
ATOM     34  H   UNL     1      10.821   4.970  22.866  0.00  0.00    +0.118 HD
ENDBRANCH  31  32
ENDBRANCH  30  31
ENDBRANCH  29  30
ENDBRANCH  27  29
ENDBRANCH  26  27
ENDBRANCH   4  26
TORSDOF 11
ENDMDL
MODEL 5
REMARK VINA RESULT:      -7.1      1.642      2.042
REMARK  Name = 
REMARK  11 active torsions:
REMARK  status: ('A' for Active; 'I' for Inactive)
REMARK    1  A    between atoms: C_3  and  O_28
REMARK    2  A    between atoms: C_4  and  O_21
REMARK    3  A    between atoms: C_6  and  C_7
REMARK    4  A    between atoms: C_8  and  O_20
REMARK    5  A    between atoms: C_12  and  O_19
REMARK    6  A    between atoms: C_14  and  O_18
REMARK    7  A    between atoms: O_21  and  C_22
REMARK    8  A    between atoms: C_22  and  C_24
REMARK    9  A    between atoms: C_24  and  C_25
REMARK   10  A    between atoms: C_25  and  C_26
REMARK   11  A    between atoms: C_26  and  N_27
REMARK                            x       y       z     vdW  Elec       q    Type
REMARK                         _______ _______ _______ _____ _____    ______ ____
ROOT
ATOM      1  C   UNL     1       8.943  -0.877  22.279  0.00  0.00    +0.015 A 
ATOM      2  C   UNL     1       8.833  -0.840  23.681  0.00  0.00    +0.025 A 
ATOM      3  C   UNL     1       9.132   0.373  24.323  0.00  0.00    +0.061 A 
ATOM      4  C   UNL     1       9.648   1.460  23.610  0.00  0.00    +0.173 A 
ATOM      5  C   UNL     1       9.833   1.368  22.229  0.00  0.00    +0.159 A 
ATOM      6  C   UNL     1       9.460   0.209  21.558  0.00  0.00    +0.050 A 
ENDROOT
BRANCH   2   7
ATOM      7  C   UNL     1       8.421  -2.021  24.497  0.00  0.00    +0.181 A 
ATOM      8  O   UNL     1       7.228  -1.814  25.189  0.00  0.00    -0.451 OA
ATOM      9  C   UNL     1       6.799  -2.757  26.090  0.00  0.00    +0.147 A 
ATOM     10  C   UNL     1       7.429  -3.986  26.247  0.00  0.00    +0.109 A 
ATOM     11  C   UNL     1       6.932  -4.921  27.164  0.00  0.00    +0.135 A 
ATOM     12  C   UNL     1       5.807  -4.627  27.929  0.00  0.00    +0.091 A 
ATOM     13  C   UNL     1       5.191  -3.389  27.774  0.00  0.00    +0.124 A 
ATOM     14  C   UNL     1       8.628  -4.259  25.456  0.00  0.00    +0.238 A 
ATOM     15  O   UNL     1       9.187  -5.350  25.547  0.00  0.00    -0.283 OA
ATOM     16  C   UNL     1       5.677  -2.453  26.864  0.00  0.00    +0.092 A 
ATOM     17  C   UNL     1       9.154  -3.151  24.609  0.00  0.00    +0.208 A 
BRANCH  11  18
ATOM     18  O   UNL     1       7.509  -6.146  27.367  0.00  0.00    -0.506 OA
ATOM     19  H   UNL     1       6.788  -6.815  27.436  0.00  0.00    +0.292 HD
ENDBRANCH  11  18
BRANCH  13  20
ATOM     20  O   UNL     1       4.089  -3.056  28.508  0.00  0.00    -0.507 OA
ATOM     21  H   UNL     1       3.803  -2.162  28.255  0.00  0.00    +0.292 HD
ENDBRANCH  13  20
BRANCH  17  22
ATOM     22  O   UNL     1      10.394  -3.362  24.036  0.00  0.00    -0.501 OA
ATOM     23  H   UNL     1      10.703  -4.246  24.296  0.00  0.00    +0.292 HD
ENDBRANCH  17  22
ENDBRANCH   2   7
BRANCH   5  24
ATOM     24  O   UNL     1      10.384   2.418  21.551  0.00  0.00    -0.503 OA
ATOM     25  H   UNL     1      10.670   3.092  22.190  0.00  0.00    +0.292 HD
ENDBRANCH   5  24
BRANCH   4  26
ATOM     26  O   UNL     1       9.969   2.694  24.224  0.00  0.00    -0.422 OA
BRANCH  26  27
ATOM     27  C   UNL     1       9.336   3.876  23.854  0.00  0.00    +0.312 C 
ATOM     28  O   UNL     1       9.867   4.883  23.412  0.00  0.00    -0.250 OA
BRANCH  27  29
ATOM     29  C   UNL     1       7.844   3.730  24.007  0.00  0.00    +0.122 C 
BRANCH  29  30
ATOM     30  C   UNL     1       7.176   3.921  22.646  0.00  0.00    +0.026 C 
BRANCH  30  31
ATOM     31  C   UNL     1       6.659   5.342  22.405  0.00  0.00    +0.078 C 
BRANCH  31  32
ATOM     32  N   UNL     1       7.550   6.104  21.541  0.00  0.00    -0.330 NA
ATOM     33  H   UNL     1       8.319   5.502  21.243  0.00  0.00    +0.118 HD
ATOM     34  H   UNL     1       7.073   6.371  20.680  0.00  0.00    +0.118 HD
ENDBRANCH  31  32
ENDBRANCH  30  31
ENDBRANCH  29  30
ENDBRANCH  27  29
ENDBRANCH  26  27
ENDBRANCH   4  26
TORSDOF 11
ENDMDL
MODEL 6
REMARK VINA RESULT:      -7.1      2.766      3.408
REMARK  Name = 
REMARK  11 active torsions:
REMARK  status: ('A' for Active; 'I' for Inactive)
REMARK    1  A    between atoms: C_3  and  O_28
REMARK    2  A    between atoms: C_4  and  O_21
REMARK    3  A    between atoms: C_6  and  C_7
REMARK    4  A    between atoms: C_8  and  O_20
REMARK    5  A    between atoms: C_12  and  O_19
REMARK    6  A    between atoms: C_14  and  O_18
REMARK    7  A    between atoms: O_21  and  C_22
REMARK    8  A    between atoms: C_22  and  C_24
REMARK    9  A    between atoms: C_24  and  C_25
REMARK   10  A    between atoms: C_25  and  C_26
REMARK   11  A    between atoms: C_26  and  N_27
REMARK                            x       y       z     vdW  Elec       q    Type
REMARK                         _______ _______ _______ _____ _____    ______ ____
ROOT
ATOM      1  C   UNL     1       8.757  -1.586  21.867  0.00  0.00    +0.015 A 
ATOM      2  C   UNL     1       7.615  -1.411  22.668  0.00  0.00    +0.025 A 
ATOM      3  C   UNL     1       7.219  -0.094  22.954  0.00  0.00    +0.061 A 
ATOM      4  C   UNL     1       8.006   0.996  22.570  0.00  0.00    +0.173 A 
ATOM      5  C   UNL     1       9.185   0.791  21.851  0.00  0.00    +0.159 A 
ATOM      6  C   UNL     1       9.552  -0.498  21.479  0.00  0.00    +0.050 A 
ENDROOT
BRANCH   2   7
ATOM      7  C   UNL     1       6.823  -2.552  23.218  0.00  0.00    +0.181 A 
ATOM      8  O   UNL     1       7.203  -2.901  24.514  0.00  0.00    -0.451 OA
ATOM      9  C   UNL     1       6.663  -4.021  25.096  0.00  0.00    +0.147 A 
ATOM     10  C   UNL     1       5.642  -4.756  24.505  0.00  0.00    +0.109 A 
ATOM     11  C   UNL     1       5.111  -5.876  25.157  0.00  0.00    +0.135 A 
ATOM     12  C   UNL     1       5.603  -6.267  26.399  0.00  0.00    +0.091 A 
ATOM     13  C   UNL     1       6.634  -5.533  26.977  0.00  0.00    +0.124 A 
ATOM     14  C   UNL     1       5.164  -4.345  23.186  0.00  0.00    +0.238 A 
ATOM     15  O   UNL     1       4.238  -4.953  22.652  0.00  0.00    -0.283 OA
ATOM     16  C   UNL     1       7.168  -4.416  26.337  0.00  0.00    +0.092 A 
ATOM     17  C   UNL     1       5.883  -3.224  22.517  0.00  0.00    +0.208 A 
BRANCH  11  18
ATOM     18  O   UNL     1       4.108  -6.642  24.626  0.00  0.00    -0.506 OA
ATOM     19  H   UNL     1       3.262  -6.381  25.060  0.00  0.00    +0.292 HD
ENDBRANCH  11  18
BRANCH  13  20
ATOM     20  O   UNL     1       7.151  -5.883  28.190  0.00  0.00    -0.507 OA
ATOM     21  H   UNL     1       8.079  -6.148  28.070  0.00  0.00    +0.292 HD
ENDBRANCH  13  20
BRANCH  17  22
ATOM     22  O   UNL     1       5.551  -2.991  21.196  0.00  0.00    -0.501 OA
ATOM     23  H   UNL     1       5.003  -3.731  20.886  0.00  0.00    +0.292 HD
ENDBRANCH  17  22
ENDBRANCH   2   7
BRANCH   5  24
ATOM     24  O   UNL     1       9.972   1.859  21.524  0.00  0.00    -0.503 OA
ATOM     25  H   UNL     1       9.829   2.082  20.589  0.00  0.00    +0.292 HD
ENDBRANCH   5  24
BRANCH   4  26
ATOM     26  O   UNL     1       7.646   2.336  22.849  0.00  0.00    -0.422 OA
BRANCH  26  27
ATOM     27  C   UNL     1       8.197   3.029  23.921  0.00  0.00    +0.312 C 
ATOM     28  O   UNL     1       9.206   2.733  24.543  0.00  0.00    -0.250 OA
BRANCH  27  29
ATOM     29  C   UNL     1       7.405   4.283  24.185  0.00  0.00    +0.122 C 
BRANCH  29  30
ATOM     30  C   UNL     1       6.382   4.480  23.067  0.00  0.00    +0.026 C 
BRANCH  30  31
ATOM     31  C   UNL     1       6.399   5.883  22.453  0.00  0.00    +0.078 C 
BRANCH  31  32
ATOM     32  N   UNL     1       7.532   6.067  21.556  0.00  0.00    -0.330 NA
ATOM     33  H   UNL     1       7.225   6.591  20.736  0.00  0.00    +0.118 HD
ATOM     34  H   UNL     1       8.244   6.651  21.993  0.00  0.00    +0.118 HD
ENDBRANCH  31  32
ENDBRANCH  30  31
ENDBRANCH  29  30
ENDBRANCH  27  29
ENDBRANCH  26  27
ENDBRANCH   4  26
TORSDOF 11
ENDMDL
MODEL 7
REMARK VINA RESULT:      -7.0      2.903      3.599
REMARK  Name = 
REMARK  11 active torsions:
REMARK  status: ('A' for Active; 'I' for Inactive)
REMARK    1  A    between atoms: C_3  and  O_28
REMARK    2  A    between atoms: C_4  and  O_21
REMARK    3  A    between atoms: C_6  and  C_7
REMARK    4  A    between atoms: C_8  and  O_20
REMARK    5  A    between atoms: C_12  and  O_19
REMARK    6  A    between atoms: C_14  and  O_18
REMARK    7  A    between atoms: O_21  and  C_22
REMARK    8  A    between atoms: C_22  and  C_24
REMARK    9  A    between atoms: C_24  and  C_25
REMARK   10  A    between atoms: C_25  and  C_26
REMARK   11  A    between atoms: C_26  and  N_27
REMARK                            x       y       z     vdW  Elec       q    Type
REMARK                         _______ _______ _______ _____ _____    ______ ____
ROOT
ATOM      1  C   UNL     1       9.493  -2.208  22.979  0.00  0.00    +0.015 A 
ATOM      2  C   UNL     1       8.178  -2.187  23.477  0.00  0.00    +0.025 A 
ATOM      3  C   UNL     1       7.381  -1.076  23.157  0.00  0.00    +0.061 A 
ATOM      4  C   UNL     1       7.916   0.026  22.483  0.00  0.00    +0.173 A 
ATOM      5  C   UNL     1       9.252   0.019  22.077  0.00  0.00    +0.159 A 
ATOM      6  C   UNL     1      10.037  -1.107  22.304  0.00  0.00    +0.050 A 
ENDROOT
BRANCH   2   7
ATOM      7  C   UNL     1       7.609  -3.281  24.321  0.00  0.00    +0.181 A 
ATOM      8  O   UNL     1       6.743  -4.117  23.617  0.00  0.00    -0.451 OA
ATOM      9  C   UNL     1       6.036  -5.079  24.294  0.00  0.00    +0.147 A 
ATOM     10  C   UNL     1       6.245  -5.356  25.639  0.00  0.00    +0.109 A 
ATOM     11  C   UNL     1       5.511  -6.368  26.272  0.00  0.00    +0.135 A 
ATOM     12  C   UNL     1       4.564  -7.100  25.563  0.00  0.00    +0.091 A 
ATOM     13  C   UNL     1       4.352  -6.806  24.220  0.00  0.00    +0.124 A 
ATOM     14  C   UNL     1       7.222  -4.553  26.372  0.00  0.00    +0.238 A 
ATOM     15  O   UNL     1       7.455  -4.797  27.554  0.00  0.00    -0.283 OA
ATOM     16  C   UNL     1       5.078  -5.802  23.581  0.00  0.00    +0.092 A 
ATOM     17  C   UNL     1       7.852  -3.414  25.645  0.00  0.00    +0.208 A 
BRANCH  11  18
ATOM     18  O   UNL     1       5.669  -6.687  27.596  0.00  0.00    -0.506 OA
ATOM     19  H   UNL     1       5.895  -5.861  28.084  0.00  0.00    +0.292 HD
ENDBRANCH  11  18
BRANCH  13  20
ATOM     20  O   UNL     1       3.429  -7.494  23.487  0.00  0.00    -0.507 OA
ATOM     21  H   UNL     1       3.892  -8.132  22.919  0.00  0.00    +0.292 HD
ENDBRANCH  13  20
BRANCH  17  22
ATOM     22  O   UNL     1       8.610  -2.549  26.411  0.00  0.00    -0.501 OA
ATOM     23  H   UNL     1       8.766  -1.742  25.892  0.00  0.00    +0.292 HD
ENDBRANCH  17  22
ENDBRANCH   2   7
BRANCH   5  24
ATOM     24  O   UNL     1       9.777   1.121  21.464  0.00  0.00    -0.503 OA
ATOM     25  H   UNL     1       9.930   1.810  22.132  0.00  0.00    +0.292 HD
ENDBRANCH   5  24
BRANCH   4  26
ATOM     26  O   UNL     1       7.147   1.167  22.152  0.00  0.00    -0.422 OA
BRANCH  26  27
ATOM     27  C   UNL     1       7.268   2.356  22.863  0.00  0.00    +0.312 C 
ATOM     28  O   UNL     1       7.824   3.378  22.491  0.00  0.00    -0.250 OA
BRANCH  27  29
ATOM     29  C   UNL     1       6.537   2.249  24.175  0.00  0.00    +0.122 C 
BRANCH  29  30
ATOM     30  C   UNL     1       7.540   2.356  25.323  0.00  0.00    +0.026 C 
BRANCH  30  31
ATOM     31  C   UNL     1       7.649   1.084  26.170  0.00  0.00    +0.078 C 
BRANCH  31  32
ATOM     32  N   UNL     1       8.924   0.409  25.971  0.00  0.00    -0.330 NA
ATOM     33  H   UNL     1       8.763  -0.598  25.925  0.00  0.00    +0.118 HD
ATOM     34  H   UNL     1       9.322   0.656  25.065  0.00  0.00    +0.118 HD
ENDBRANCH  31  32
ENDBRANCH  30  31
ENDBRANCH  29  30
ENDBRANCH  27  29
ENDBRANCH  26  27
ENDBRANCH   4  26
TORSDOF 11
ENDMDL
MODEL 8
REMARK VINA RESULT:      -7.0      4.342      8.864
REMARK  Name = 
REMARK  11 active torsions:
REMARK  status: ('A' for Active; 'I' for Inactive)
REMARK    1  A    between atoms: C_3  and  O_28
REMARK    2  A    between atoms: C_4  and  O_21
REMARK    3  A    between atoms: C_6  and  C_7
REMARK    4  A    between atoms: C_8  and  O_20
REMARK    5  A    between atoms: C_12  and  O_19
REMARK    6  A    between atoms: C_14  and  O_18
REMARK    7  A    between atoms: O_21  and  C_22
REMARK    8  A    between atoms: C_22  and  C_24
REMARK    9  A    between atoms: C_24  and  C_25
REMARK   10  A    between atoms: C_25  and  C_26
REMARK   11  A    between atoms: C_26  and  N_27
REMARK                            x       y       z     vdW  Elec       q    Type
REMARK                         _______ _______ _______ _____ _____    ______ ____
ROOT
ATOM      1  C   UNL     1       7.428  -3.127  26.338  0.00  0.00    +0.015 A 
ATOM      2  C   UNL     1       7.333  -2.933  24.948  0.00  0.00    +0.025 A 
ATOM      3  C   UNL     1       6.659  -3.912  24.201  0.00  0.00    +0.061 A 
ATOM      4  C   UNL     1       6.218  -5.099  24.797  0.00  0.00    +0.173 A 
ATOM      5  C   UNL     1       6.403  -5.307  26.164  0.00  0.00    +0.159 A 
ATOM      6  C   UNL     1       6.988  -4.314  26.942  0.00  0.00    +0.050 A 
ENDROOT
BRANCH   2   7
ATOM      7  C   UNL     1       7.915  -1.747  24.250  0.00  0.00    +0.181 A 
ATOM      8  O   UNL     1       6.999  -0.708  24.088  0.00  0.00    -0.451 OA
ATOM      9  C   UNL     1       7.349   0.388  23.340  0.00  0.00    +0.147 A 
ATOM     10  C   UNL     1       8.633   0.580  22.845  0.00  0.00    +0.109 A 
ATOM     11  C   UNL     1       8.940   1.731  22.109  0.00  0.00    +0.135 A 
ATOM     12  C   UNL     1       7.962   2.691  21.861  0.00  0.00    +0.091 A 
ATOM     13  C   UNL     1       6.676   2.483  22.350  0.00  0.00    +0.124 A 
ATOM     14  C   UNL     1       9.635  -0.457  23.089  0.00  0.00    +0.238 A 
ATOM     15  O   UNL     1      10.788  -0.300  22.695  0.00  0.00    -0.283 OA
ATOM     16  C   UNL     1       6.361   1.342  23.085  0.00  0.00    +0.092 A 
ATOM     17  C   UNL     1       9.177  -1.703  23.765  0.00  0.00    +0.208 A 
BRANCH  11  18
ATOM     18  O   UNL     1      10.185   1.976  21.592  0.00  0.00    -0.506 OA
ATOM     19  H   UNL     1      10.592   2.708  22.112  0.00  0.00    +0.292 HD
ENDBRANCH  11  18
BRANCH  13  20
ATOM     20  O   UNL     1       5.684   3.394  22.126  0.00  0.00    -0.507 OA
ATOM     21  H   UNL     1       5.919   3.929  21.349  0.00  0.00    +0.292 HD
ENDBRANCH  13  20
BRANCH  17  22
ATOM     22  O   UNL     1      10.084  -2.745  23.800  0.00  0.00    -0.501 OA
ATOM     23  H   UNL     1       9.874  -3.306  24.565  0.00  0.00    +0.292 HD
ENDBRANCH  17  22
ENDBRANCH   2   7
BRANCH   5  24
ATOM     24  O   UNL     1       6.013  -6.491  26.726  0.00  0.00    -0.503 OA
ATOM     25  H   UNL     1       5.304  -6.316  27.367  0.00  0.00    +0.292 HD
ENDBRANCH   5  24
BRANCH   4  26
ATOM     26  O   UNL     1       5.544  -6.112  24.075  0.00  0.00    -0.422 OA
BRANCH  26  27
ATOM     27  C   UNL     1       4.649  -5.806  23.055  0.00  0.00    +0.312 C 
ATOM     28  O   UNL     1       4.901  -5.712  21.863  0.00  0.00    -0.250 OA
BRANCH  27  29
ATOM     29  C   UNL     1       3.258  -5.667  23.616  0.00  0.00    +0.122 C 
BRANCH  29  30
ATOM     30  C   UNL     1       2.482  -6.960  23.368  0.00  0.00    +0.026 C 
BRANCH  30  31
ATOM     31  C   UNL     1       2.306  -7.825  24.620  0.00  0.00    +0.078 C 
BRANCH  31  32
ATOM     32  N   UNL     1       3.531  -7.896  25.405  0.00  0.00    -0.330 NA
ATOM     33  H   UNL     1       4.297  -7.494  24.863  0.00  0.00    +0.118 HD
ATOM     34  H   UNL     1       3.458  -7.310  26.236  0.00  0.00    +0.118 HD
ENDBRANCH  31  32
ENDBRANCH  30  31
ENDBRANCH  29  30
ENDBRANCH  27  29
ENDBRANCH  26  27
ENDBRANCH   4  26
TORSDOF 11
ENDMDL
MODEL 9
REMARK VINA RESULT:      -6.9      2.616      3.346
REMARK  Name = 
REMARK  11 active torsions:
REMARK  status: ('A' for Active; 'I' for Inactive)
REMARK    1  A    between atoms: C_3  and  O_28
REMARK    2  A    between atoms: C_4  and  O_21
REMARK    3  A    between atoms: C_6  and  C_7
REMARK    4  A    between atoms: C_8  and  O_20
REMARK    5  A    between atoms: C_12  and  O_19
REMARK    6  A    between atoms: C_14  and  O_18
REMARK    7  A    between atoms: O_21  and  C_22
REMARK    8  A    between atoms: C_22  and  C_24
REMARK    9  A    between atoms: C_24  and  C_25
REMARK   10  A    between atoms: C_25  and  C_26
REMARK   11  A    between atoms: C_26  and  N_27
REMARK                            x       y       z     vdW  Elec       q    Type
REMARK                         _______ _______ _______ _____ _____    ______ ____
ROOT
ATOM      1  C   UNL     1       8.255  -2.865  22.751  0.00  0.00    +0.015 A 
ATOM      2  C   UNL     1       8.195  -2.892  24.155  0.00  0.00    +0.025 A 
ATOM      3  C   UNL     1       8.849  -1.862  24.852  0.00  0.00    +0.061 A 
ATOM      4  C   UNL     1       9.640  -0.925  24.179  0.00  0.00    +0.173 A 
ATOM      5  C   UNL     1       9.756  -0.974  22.789  0.00  0.00    +0.159 A 
ATOM      6  C   UNL     1       9.046  -1.930  22.070  0.00  0.00    +0.050 A 
ENDROOT
BRANCH   2   7
ATOM      7  C   UNL     1       7.478  -3.956  24.920  0.00  0.00    +0.181 A 
ATOM      8  O   UNL     1       6.318  -4.396  24.282  0.00  0.00    -0.451 OA
ATOM      9  C   UNL     1       5.481  -5.269  24.931  0.00  0.00    +0.147 A 
ATOM     10  C   UNL     1       5.804  -5.849  26.152  0.00  0.00    +0.109 A 
ATOM     11  C   UNL     1       4.921  -6.754  26.757  0.00  0.00    +0.135 A 
ATOM     12  C   UNL     1       3.713  -7.075  26.146  0.00  0.00    +0.091 A 
ATOM     13  C   UNL     1       3.393  -6.478  24.930  0.00  0.00    +0.124 A 
ATOM     14  C   UNL     1       7.064  -5.473  26.791  0.00  0.00    +0.238 A 
ATOM     15  O   UNL     1       7.393  -5.996  27.853  0.00  0.00    -0.283 OA
ATOM     16  C   UNL     1       4.265  -5.578  24.319  0.00  0.00    +0.092 A 
ATOM     17  C   UNL     1       7.869  -4.404  26.134  0.00  0.00    +0.208 A 
BRANCH  11  18
ATOM     18  O   UNL     1       5.180  -7.357  27.959  0.00  0.00    -0.506 OA
ATOM     19  H   UNL     1       4.832  -8.279  27.919  0.00  0.00    +0.292 HD
ENDBRANCH  11  18
BRANCH  13  20
ATOM     20  O   UNL     1       2.216  -6.758  24.298  0.00  0.00    -0.507 OA
ATOM     21  H   UNL     1       1.797  -7.517  24.737  0.00  0.00    +0.292 HD
ENDBRANCH  13  20
BRANCH  17  22
ATOM     22  O   UNL     1       8.943  -3.922  26.858  0.00  0.00    -0.501 OA
ATOM     23  H   UNL     1       9.722  -3.917  26.277  0.00  0.00    +0.292 HD
ENDBRANCH  17  22
ENDBRANCH   2   7
BRANCH   5  24
ATOM     24  O   UNL     1      10.571  -0.084  22.148  0.00  0.00    -0.503 OA
ATOM     25  H   UNL     1      11.124  -0.566  21.511  0.00  0.00    +0.292 HD
ENDBRANCH   5  24
BRANCH   4  26
ATOM     26  O   UNL     1      10.322   0.120  24.847  0.00  0.00    -0.422 OA
BRANCH  26  27
ATOM     27  C   UNL     1      10.111   1.454  24.515  0.00  0.00    +0.312 C 
ATOM     28  O   UNL     1      10.906   2.209  23.977  0.00  0.00    -0.250 OA
BRANCH  27  29
ATOM     29  C   UNL     1       8.696   1.850  24.851  0.00  0.00    +0.122 C 
BRANCH  29  30
ATOM     30  C   UNL     1       8.180   2.824  23.793  0.00  0.00    +0.026 C 
BRANCH  30  31
ATOM     31  C   UNL     1       7.806   2.154  22.467  0.00  0.00    +0.078 C 
BRANCH  31  32
ATOM     32  N   UNL     1       8.880   2.256  21.488  0.00  0.00    -0.330 NA
ATOM     33  H   UNL     1       8.885   1.414  20.911  0.00  0.00    +0.118 HD
ATOM     34  H   UNL     1       8.700   3.021  20.838  0.00  0.00    +0.118 HD
ENDBRANCH  31  32
ENDBRANCH  30  31
ENDBRANCH  29  30
ENDBRANCH  27  29
ENDBRANCH  26  27
ENDBRANCH   4  26
TORSDOF 11
ENDMDL
