MODEL 1
REMARK VINA RESULT:      -7.5      0.000      0.000
REMARK  Name = 
REMARK  17 active torsions:
REMARK  status: ('A' for Active; 'I' for Inactive)
REMARK    1  A    between atoms: C_1  and  C_2
REMARK    2  A    between atoms: C_4  and  O_53
REMARK    3  A    between atoms: C_6  and  O_52
REMARK    4  A    between atoms: C_8  and  O_51
REMARK    5  A    between atoms: C_10  and  O_13
REMARK    6  A    between atoms: O_13  and  C_14
REMARK    7  A    between atoms: C_16  and  O_50
REMARK    8  A    between atoms: C_21  and  C_42
REMARK    9  A    between atoms: C_22  and  O_25
REMARK   10  A    between atoms: O_25  and  C_26
REMARK   11  A    between atoms: C_28  and  O_41
REMARK   12  A    between atoms: C_30  and  O_40
REMARK   13  A    between atoms: C_32  and  O_39
REMARK   14  A    between atoms: C_34  and  C_37
REMARK   15  A    between atoms: C_37  and  O_38
REMARK   16  A    between atoms: C_44  and  O_49
REMARK   17  A    between atoms: C_45  and  O_48
REMARK                            x       y       z     vdW  Elec       q    Type
REMARK                         _______ _______ _______ _____ _____    ______ ____
ROOT
ATOM      1  C   UNL     1       9.482  -1.884  24.132  0.00  0.00    +0.131 A 
ATOM      2  C   UNL     1       8.753  -1.243  25.140  0.00  0.00    +0.093 A 
ATOM      3  C   UNL     1       8.601   0.146  25.111  0.00  0.00    +0.147 A 
ATOM      4  O   UNL     1       7.903   0.754  26.132  0.00  0.00    -0.451 OA
ATOM      5  C   UNL     1       7.499   2.076  25.948  0.00  0.00    +0.181 A 
ATOM      6  C   UNL     1       7.966   2.891  24.978  0.00  0.00    +0.214 A 
ATOM      7  C   UNL     1       9.124   2.337  24.209  0.00  0.00    +0.238 A 
ATOM      8  O   UNL     1      10.022   3.046  23.782  0.00  0.00    -0.283 OA
ATOM      9  C   UNL     1       9.183   0.881  24.083  0.00  0.00    +0.109 A 
ATOM     10  C   UNL     1       9.850   0.238  23.042  0.00  0.00    +0.135 A 
ATOM     11  C   UNL     1      10.000  -1.141  23.068  0.00  0.00    +0.092 A 
ENDROOT
BRANCH   5  12
ATOM     12  C   UNL     1       6.575   2.551  26.995  0.00  0.00    +0.025 A 
ATOM     13  C   UNL     1       5.190   2.381  26.801  0.00  0.00    +0.015 A 
ATOM     14  C   UNL     1       4.272   2.808  27.764  0.00  0.00    +0.050 A 
ATOM     15  C   UNL     1       4.738   3.403  28.924  0.00  0.00    +0.158 A 
ATOM     16  C   UNL     1       6.105   3.582  29.126  0.00  0.00    +0.159 A 
ATOM     17  C   UNL     1       7.032   3.169  28.167  0.00  0.00    +0.060 A 
BRANCH  15  18
ATOM     18  O   UNL     1       3.845   3.813  29.868  0.00  0.00    -0.503 OA
ATOM     19  H   UNL     1       4.337   4.462  30.414  0.00  0.00    +0.292 HD
ENDBRANCH  15  18
BRANCH  16  20
ATOM     20  O   UNL     1       6.491   4.184  30.292  0.00  0.00    -0.503 OA
ATOM     21  H   UNL     1       7.393   4.533  30.181  0.00  0.00    +0.292 HD
ENDBRANCH  16  20
ENDBRANCH   5  12
BRANCH  10  22
ATOM     22  O   UNL     1      10.331   0.945  21.980  0.00  0.00    -0.506 OA
ATOM     23  H   UNL     1      10.904   0.380  21.436  0.00  0.00    +0.292 HD
ENDBRANCH  10  22
BRANCH   6  24
ATOM     24  O   UNL     1       7.462   4.175  24.751  0.00  0.00    -0.453 OA
BRANCH  24  25
ATOM     25  C   UNL     1       6.617   4.306  23.586  0.00  0.00    +0.340 C 
ATOM     26  O   UNL     1       7.345   4.812  22.458  0.00  0.00    -0.331 OA
ATOM     27  C   UNL     1       7.547   6.221  22.336  0.00  0.00    +0.179 C 
ATOM     28  C   UNL     1       6.251   7.019  22.560  0.00  0.00    +0.177 C 
ATOM     29  C   UNL     1       5.581   6.624  23.882  0.00  0.00    +0.180 C 
ATOM     30  C   UNL     1       5.326   5.111  23.904  0.00  0.00    +0.214 C 
BRANCH  28  31
ATOM     31  O   UNL     1       5.350   6.724  21.472  0.00  0.00    -0.386 OA
ATOM     32  H   UNL     1       4.878   7.546  21.245  0.00  0.00    +0.210 HD
ENDBRANCH  28  31
BRANCH  29  33
ATOM     33  O   UNL     1       6.337   7.082  25.007  0.00  0.00    -0.386 OA
ATOM     34  H   UNL     1       6.486   6.329  25.607  0.00  0.00    +0.210 HD
ENDBRANCH  29  33
BRANCH  30  35
ATOM     35  O   UNL     1       4.279   4.792  22.975  0.00  0.00    -0.383 OA
ATOM     36  H   UNL     1       3.571   4.355  23.490  0.00  0.00    +0.210 HD
ENDBRANCH  30  35
BRANCH  27  37
ATOM     37  C   UNL     1       8.748   6.695  23.162  0.00  0.00    +0.190 C 
BRANCH  37  38
ATOM     38  O   UNL     1       9.788   5.721  23.158  0.00  0.00    -0.392 OA
ATOM     39  H   UNL     1       9.761   5.261  22.302  0.00  0.00    +0.210 HD
ENDBRANCH  37  38
ENDBRANCH  27  37
ENDBRANCH  24  25
ENDBRANCH   6  24
BRANCH   1  40
ATOM     40  O   UNL     1       9.791  -3.211  24.056  0.00  0.00    -0.461 OA
BRANCH  40  44
ATOM     41  C   UNL     1       6.277  -5.619  23.387  0.00  0.00    +0.041 C 
ATOM     42  C   UNL     1       6.379  -4.486  24.409  0.00  0.00    +0.150 C 
ATOM     43  O   UNL     1       7.468  -3.614  24.113  0.00  0.00    -0.334 OA
ATOM     44  C   UNL     1       8.768  -4.180  24.308  0.00  0.00    +0.339 C 
ATOM     45  C   UNL     1       8.954  -4.660  25.768  0.00  0.00    +0.214 C 
ATOM     46  C   UNL     1       7.807  -5.604  26.157  0.00  0.00    +0.180 C 
ATOM     47  C   UNL     1       6.452  -4.951  25.869  0.00  0.00    +0.174 C 
BRANCH  47  48
ATOM     48  O   UNL     1       5.414  -5.879  26.194  0.00  0.00    -0.387 OA
ATOM     49  H   UNL     1       4.841  -5.958  25.409  0.00  0.00    +0.210 HD
ENDBRANCH  47  48
BRANCH  46  50
ATOM     50  O   UNL     1       7.880  -5.951  27.546  0.00  0.00    -0.386 OA
ATOM     51  H   UNL     1       8.744  -6.395  27.660  0.00  0.00    +0.210 HD
ENDBRANCH  46  50
BRANCH  45  52
ATOM     52  O   UNL     1      10.234  -5.298  25.929  0.00  0.00    -0.383 OA
ATOM     53  H   UNL     1      10.641  -4.985  26.752  0.00  0.00    +0.210 HD
ENDBRANCH  45  52
ENDBRANCH  40  44
ENDBRANCH   1  40
TORSDOF 16
ENDMDL
MODEL 2
REMARK VINA RESULT:      -7.2      0.972      1.330
REMARK  Name = 
REMARK  17 active torsions:
REMARK  status: ('A' for Active; 'I' for Inactive)
REMARK    1  A    between atoms: C_1  and  C_2
REMARK    2  A    between atoms: C_4  and  O_53
REMARK    3  A    between atoms: C_6  and  O_52
REMARK    4  A    between atoms: C_8  and  O_51
REMARK    5  A    between atoms: C_10  and  O_13
REMARK    6  A    between atoms: O_13  and  C_14
REMARK    7  A    between atoms: C_16  and  O_50
REMARK    8  A    between atoms: C_21  and  C_42
REMARK    9  A    between atoms: C_22  and  O_25
REMARK   10  A    between atoms: O_25  and  C_26
REMARK   11  A    between atoms: C_28  and  O_41
REMARK   12  A    between atoms: C_30  and  O_40
REMARK   13  A    between atoms: C_32  and  O_39
REMARK   14  A    between atoms: C_34  and  C_37
REMARK   15  A    between atoms: C_37  and  O_38
REMARK   16  A    between atoms: C_44  and  O_49
REMARK   17  A    between atoms: C_45  and  O_48
REMARK                            x       y       z     vdW  Elec       q    Type
REMARK                         _______ _______ _______ _____ _____    ______ ____
ROOT
ATOM      1  C   UNL     1       8.987  -2.321  24.089  0.00  0.00    +0.131 A 
ATOM      2  C   UNL     1       8.298  -1.613  25.080  0.00  0.00    +0.093 A 
ATOM      3  C   UNL     1       8.317  -0.215  25.076  0.00  0.00    +0.147 A 
ATOM      4  O   UNL     1       7.655   0.455  26.082  0.00  0.00    -0.451 OA
ATOM      5  C   UNL     1       7.423   1.820  25.911  0.00  0.00    +0.181 A 
ATOM      6  C   UNL     1       8.026   2.588  24.978  0.00  0.00    +0.214 A 
ATOM      7  C   UNL     1       9.139   1.910  24.244  0.00  0.00    +0.238 A 
ATOM      8  O   UNL     1      10.134   2.512  23.869  0.00  0.00    -0.283 OA
ATOM      9  C   UNL     1       9.027   0.460  24.088  0.00  0.00    +0.109 A 
ATOM     10  C   UNL     1       9.654  -0.241  23.061  0.00  0.00    +0.135 A 
ATOM     11  C   UNL     1       9.635  -1.629  23.063  0.00  0.00    +0.092 A 
ENDROOT
BRANCH   5  12
ATOM     12  C   UNL     1       6.520   2.386  26.930  0.00  0.00    +0.025 A 
ATOM     13  C   UNL     1       5.133   2.390  26.677  0.00  0.00    +0.015 A 
ATOM     14  C   UNL     1       4.234   2.910  27.612  0.00  0.00    +0.050 A 
ATOM     15  C   UNL     1       4.719   3.423  28.802  0.00  0.00    +0.158 A 
ATOM     16  C   UNL     1       6.088   3.430  29.062  0.00  0.00    +0.159 A 
ATOM     17  C   UNL     1       6.997   2.923  28.132  0.00  0.00    +0.060 A 
BRANCH  15  18
ATOM     18  O   UNL     1       3.843   3.923  29.718  0.00  0.00    -0.503 OA
ATOM     19  H   UNL     1       4.313   4.680  30.128  0.00  0.00    +0.292 HD
ENDBRANCH  15  18
BRANCH  16  20
ATOM     20  O   UNL     1       6.495   3.960  30.256  0.00  0.00    -0.503 OA
ATOM     21  H   UNL     1       5.846   4.627  30.539  0.00  0.00    +0.292 HD
ENDBRANCH  16  20
ENDBRANCH   5  12
BRANCH  10  22
ATOM     22  O   UNL     1      10.262   0.420  22.034  0.00  0.00    -0.506 OA
ATOM     23  H   UNL     1      11.218   0.242  22.043  0.00  0.00    +0.292 HD
ENDBRANCH  10  22
BRANCH   6  24
ATOM     24  O   UNL     1       7.691   3.928  24.760  0.00  0.00    -0.453 OA
BRANCH  24  25
ATOM     25  C   UNL     1       6.848   4.171  23.611  0.00  0.00    +0.340 C 
ATOM     26  O   UNL     1       7.596   4.697  22.506  0.00  0.00    -0.331 OA
ATOM     27  C   UNL     1       7.876   6.098  22.461  0.00  0.00    +0.179 C 
ATOM     28  C   UNL     1       6.628   6.953  22.741  0.00  0.00    +0.177 C 
ATOM     29  C   UNL     1       5.945   6.523  24.044  0.00  0.00    +0.180 C 
ATOM     30  C   UNL     1       5.606   5.027  23.985  0.00  0.00    +0.214 C 
BRANCH  28  31
ATOM     31  O   UNL     1       5.706   6.769  21.646  0.00  0.00    -0.386 OA
ATOM     32  H   UNL     1       6.228   6.710  20.824  0.00  0.00    +0.210 HD
ENDBRANCH  28  31
BRANCH  29  33
ATOM     33  O   UNL     1       6.732   6.875  25.187  0.00  0.00    -0.386 OA
ATOM     34  H   UNL     1       6.156   6.869  25.973  0.00  0.00    +0.210 HD
ENDBRANCH  29  33
BRANCH  30  35
ATOM     35  O   UNL     1       4.537   4.820  23.049  0.00  0.00    -0.383 OA
ATOM     36  H   UNL     1       4.911   4.978  22.158  0.00  0.00    +0.210 HD
ENDBRANCH  30  35
BRANCH  27  37
ATOM     37  C   UNL     1       9.107   6.457  23.301  0.00  0.00    +0.190 C 
BRANCH  37  38
ATOM     38  O   UNL     1      10.049   5.388  23.311  0.00  0.00    -0.392 OA
ATOM     39  H   UNL     1       9.779   4.748  22.630  0.00  0.00    +0.210 HD
ENDBRANCH  37  38
ENDBRANCH  27  37
ENDBRANCH  24  25
ENDBRANCH   6  24
BRANCH   1  40
ATOM     40  O   UNL     1       9.136  -3.674  23.996  0.00  0.00    -0.461 OA
BRANCH  40  44
ATOM     41  C   UNL     1       6.577  -5.752  21.215  0.00  0.00    +0.041 C 
ATOM     42  C   UNL     1       6.195  -4.480  21.972  0.00  0.00    +0.150 C 
ATOM     43  O   UNL     1       7.348  -3.799  22.461  0.00  0.00    -0.334 OA
ATOM     44  C   UNL     1       8.040  -4.465  23.524  0.00  0.00    +0.339 C 
ATOM     45  C   UNL     1       7.105  -4.705  24.734  0.00  0.00    +0.214 C 
ATOM     46  C   UNL     1       5.834  -5.433  24.275  0.00  0.00    +0.180 C 
ATOM     47  C   UNL     1       5.182  -4.692  23.104  0.00  0.00    +0.174 C 
BRANCH  47  48
ATOM     48  O   UNL     1       4.035  -5.429  22.672  0.00  0.00    -0.387 OA
ATOM     49  H   UNL     1       3.890  -5.212  21.733  0.00  0.00    +0.210 HD
ENDBRANCH  47  48
BRANCH  46  50
ATOM     50  O   UNL     1       4.891  -5.543  25.349  0.00  0.00    -0.386 OA
ATOM     51  H   UNL     1       5.258  -6.221  25.951  0.00  0.00    +0.210 HD
ENDBRANCH  46  50
BRANCH  45  52
ATOM     52  O   UNL     1       7.791  -5.445  25.760  0.00  0.00    -0.383 OA
ATOM     53  H   UNL     1       8.108  -6.282  25.386  0.00  0.00    +0.210 HD
ENDBRANCH  45  52
ENDBRANCH  40  44
ENDBRANCH   1  40
TORSDOF 16
ENDMDL
MODEL 3
REMARK VINA RESULT:      -7.0      1.632      2.572
REMARK  Name = 
REMARK  17 active torsions:
REMARK  status: ('A' for Active; 'I' for Inactive)
REMARK    1  A    between atoms: C_1  and  C_2
REMARK    2  A    between atoms: C_4  and  O_53
REMARK    3  A    between atoms: C_6  and  O_52
REMARK    4  A    between atoms: C_8  and  O_51
REMARK    5  A    between atoms: C_10  and  O_13
REMARK    6  A    between atoms: O_13  and  C_14
REMARK    7  A    between atoms: C_16  and  O_50
REMARK    8  A    between atoms: C_21  and  C_42
REMARK    9  A    between atoms: C_22  and  O_25
REMARK   10  A    between atoms: O_25  and  C_26
REMARK   11  A    between atoms: C_28  and  O_41
REMARK   12  A    between atoms: C_30  and  O_40
REMARK   13  A    between atoms: C_32  and  O_39
REMARK   14  A    between atoms: C_34  and  C_37
REMARK   15  A    between atoms: C_37  and  O_38
REMARK   16  A    between atoms: C_44  and  O_49
REMARK   17  A    between atoms: C_45  and  O_48
REMARK                            x       y       z     vdW  Elec       q    Type
REMARK                         _______ _______ _______ _____ _____    ______ ____
ROOT
ATOM      1  C   UNL     1       7.500  -2.747  23.523  0.00  0.00    +0.131 A 
ATOM      2  C   UNL     1       7.067  -1.823  24.480  0.00  0.00    +0.093 A 
ATOM      3  C   UNL     1       7.427  -0.477  24.359  0.00  0.00    +0.147 A 
ATOM      4  O   UNL     1       7.012   0.406  25.332  0.00  0.00    -0.451 OA
ATOM      5  C   UNL     1       7.110   1.770  25.058  0.00  0.00    +0.181 A 
ATOM      6  C   UNL     1       7.824   2.297  24.041  0.00  0.00    +0.214 A 
ATOM      7  C   UNL     1       8.691   1.314  23.319  0.00  0.00    +0.238 A 
ATOM      8  O   UNL     1       9.778   1.622  22.854  0.00  0.00    -0.283 OA
ATOM      9  C   UNL     1       8.219  -0.070  23.290  0.00  0.00    +0.109 A 
ATOM     10  C   UNL     1       8.592  -0.976  22.299  0.00  0.00    +0.135 A 
ATOM     11  C   UNL     1       8.234  -2.311  22.417  0.00  0.00    +0.092 A 
ENDROOT
BRANCH   5  12
ATOM     12  C   UNL     1       6.437   2.613  26.064  0.00  0.00    +0.025 A 
ATOM     13  C   UNL     1       7.228   3.341  26.974  0.00  0.00    +0.015 A 
ATOM     14  C   UNL     1       6.641   4.159  27.943  0.00  0.00    +0.050 A 
ATOM     15  C   UNL     1       5.261   4.251  28.002  0.00  0.00    +0.158 A 
ATOM     16  C   UNL     1       4.466   3.532  27.112  0.00  0.00    +0.159 A 
ATOM     17  C   UNL     1       5.041   2.704  26.146  0.00  0.00    +0.060 A 
BRANCH  15  18
ATOM     18  O   UNL     1       4.687   5.054  28.942  0.00  0.00    -0.503 OA
ATOM     19  H   UNL     1       3.782   4.696  29.059  0.00  0.00    +0.292 HD
ENDBRANCH  15  18
BRANCH  16  20
ATOM     20  O   UNL     1       3.111   3.667  27.235  0.00  0.00    -0.503 OA
ATOM     21  H   UNL     1       2.795   4.290  26.558  0.00  0.00    +0.292 HD
ENDBRANCH  16  20
ENDBRANCH   5  12
BRANCH  10  22
ATOM     22  O   UNL     1       9.279  -0.560  21.196  0.00  0.00    -0.506 OA
ATOM     23  H   UNL     1       8.857   0.231  20.820  0.00  0.00    +0.292 HD
ENDBRANCH  10  22
BRANCH   6  24
ATOM     24  O   UNL     1       7.814   3.659  23.726  0.00  0.00    -0.453 OA
BRANCH  24  25
ATOM     25  C   UNL     1       6.958   4.028  22.622  0.00  0.00    +0.340 C 
ATOM     26  O   UNL     1       7.551   5.051  21.809  0.00  0.00    -0.331 OA
ATOM     27  C   UNL     1       7.434   6.416  22.215  0.00  0.00    +0.179 C 
ATOM     28  C   UNL     1       5.994   6.788  22.607  0.00  0.00    +0.177 C 
ATOM     29  C   UNL     1       5.432   5.807  23.643  0.00  0.00    +0.180 C 
ATOM     30  C   UNL     1       5.521   4.373  23.103  0.00  0.00    +0.214 C 
BRANCH  28  31
ATOM     31  O   UNL     1       5.178   6.730  21.417  0.00  0.00    -0.386 OA
ATOM     32  H   UNL     1       5.128   7.631  21.047  0.00  0.00    +0.210 HD
ENDBRANCH  28  31
BRANCH  29  33
ATOM     33  O   UNL     1       6.070   5.968  24.914  0.00  0.00    -0.386 OA
ATOM     34  H   UNL     1       5.382   6.010  25.603  0.00  0.00    +0.210 HD
ENDBRANCH  29  33
BRANCH  30  35
ATOM     35  O   UNL     1       4.568   4.206  22.042  0.00  0.00    -0.383 OA
ATOM     36  H   UNL     1       3.688   4.408  22.422  0.00  0.00    +0.210 HD
ENDBRANCH  30  35
BRANCH  27  37
ATOM     37  C   UNL     1       8.503   6.794  23.248  0.00  0.00    +0.190 C 
BRANCH  37  38
ATOM     38  O   UNL     1       9.721   6.098  23.002  0.00  0.00    -0.392 OA
ATOM     39  H   UNL     1      10.232   6.614  22.354  0.00  0.00    +0.210 HD
ENDBRANCH  37  38
ENDBRANCH  27  37
ENDBRANCH  24  25
ENDBRANCH   6  24
BRANCH   1  40
ATOM     40  O   UNL     1       7.308  -4.098  23.537  0.00  0.00    -0.461 OA
BRANCH  40  44
ATOM     41  C   UNL     1       4.622  -5.240  26.711  0.00  0.00    +0.041 C 
ATOM     42  C   UNL     1       5.393  -6.218  25.825  0.00  0.00    +0.150 C 
ATOM     43  O   UNL     1       6.495  -5.580  25.182  0.00  0.00    -0.334 OA
ATOM     44  C   UNL     1       6.140  -4.629  24.172  0.00  0.00    +0.339 C 
ATOM     45  C   UNL     1       5.285  -5.288  23.062  0.00  0.00    +0.214 C 
ATOM     46  C   UNL     1       4.078  -6.001  23.688  0.00  0.00    +0.180 C 
ATOM     47  C   UNL     1       4.533  -6.958  24.793  0.00  0.00    +0.174 C 
BRANCH  47  48
ATOM     48  O   UNL     1       3.379  -7.561  25.385  0.00  0.00    -0.387 OA
ATOM     49  H   UNL     1       3.150  -8.340  24.845  0.00  0.00    +0.210 HD
ENDBRANCH  47  48
BRANCH  46  50
ATOM     50  O   UNL     1       3.348  -6.735  22.696  0.00  0.00    -0.386 OA
ATOM     51  H   UNL     1       3.326  -7.659  23.017  0.00  0.00    +0.210 HD
ENDBRANCH  46  50
BRANCH  45  52
ATOM     52  O   UNL     1       4.870  -4.304  22.097  0.00  0.00    -0.383 OA
ATOM     53  H   UNL     1       4.073  -3.858  22.426  0.00  0.00    +0.210 HD
ENDBRANCH  45  52
ENDBRANCH  40  44
ENDBRANCH   1  40
TORSDOF 16
ENDMDL
MODEL 4
REMARK VINA RESULT:      -7.0      1.879      2.962
REMARK  Name = 
REMARK  17 active torsions:
REMARK  status: ('A' for Active; 'I' for Inactive)
REMARK    1  A    between atoms: C_1  and  C_2
REMARK    2  A    between atoms: C_4  and  O_53
REMARK    3  A    between atoms: C_6  and  O_52
REMARK    4  A    between atoms: C_8  and  O_51
REMARK    5  A    between atoms: C_10  and  O_13
REMARK    6  A    between atoms: O_13  and  C_14
REMARK    7  A    between atoms: C_16  and  O_50
REMARK    8  A    between atoms: C_21  and  C_42
REMARK    9  A    between atoms: C_22  and  O_25
REMARK   10  A    between atoms: O_25  and  C_26
REMARK   11  A    between atoms: C_28  and  O_41
REMARK   12  A    between atoms: C_30  and  O_40
REMARK   13  A    between atoms: C_32  and  O_39
REMARK   14  A    between atoms: C_34  and  C_37
REMARK   15  A    between atoms: C_37  and  O_38
REMARK   16  A    between atoms: C_44  and  O_49
REMARK   17  A    between atoms: C_45  and  O_48
REMARK                            x       y       z     vdW  Elec       q    Type
REMARK                         _______ _______ _______ _____ _____    ______ ____
ROOT
ATOM      1  C   UNL     1       7.446  -3.284  24.119  0.00  0.00    +0.131 A 
ATOM      2  C   UNL     1       6.829  -2.308  24.911  0.00  0.00    +0.093 A 
ATOM      3  C   UNL     1       7.416  -1.045  25.040  0.00  0.00    +0.147 A 
ATOM      4  O   UNL     1       6.803  -0.115  25.850  0.00  0.00    -0.451 OA
ATOM      5  C   UNL     1       7.213   1.214  25.741  0.00  0.00    +0.181 A 
ATOM      6  C   UNL     1       8.338   1.618  25.113  0.00  0.00    +0.214 A 
ATOM      7  C   UNL     1       9.249   0.506  24.699  0.00  0.00    +0.238 A 
ATOM      8  O   UNL     1      10.465   0.624  24.704  0.00  0.00    -0.283 OA
ATOM      9  C   UNL     1       8.613  -0.772  24.385  0.00  0.00    +0.109 A 
ATOM     10  C   UNL     1       9.191  -1.718  23.541  0.00  0.00    +0.135 A 
ATOM     11  C   UNL     1       8.609  -2.971  23.410  0.00  0.00    +0.092 A 
ENDROOT
BRANCH   5  12
ATOM     12  C   UNL     1       6.346   2.151  26.480  0.00  0.00    +0.025 A 
ATOM     13  C   UNL     1       6.834   2.726  27.671  0.00  0.00    +0.015 A 
ATOM     14  C   UNL     1       6.055   3.623  28.407  0.00  0.00    +0.050 A 
ATOM     15  C   UNL     1       4.790   3.949  27.951  0.00  0.00    +0.158 A 
ATOM     16  C   UNL     1       4.293   3.384  26.778  0.00  0.00    +0.159 A 
ATOM     17  C   UNL     1       5.057   2.478  26.040  0.00  0.00    +0.060 A 
BRANCH  15  18
ATOM     18  O   UNL     1       4.032   4.830  28.663  0.00  0.00    -0.503 OA
ATOM     19  H   UNL     1       3.556   5.356  27.987  0.00  0.00    +0.292 HD
ENDBRANCH  15  18
BRANCH  16  20
ATOM     20  O   UNL     1       3.032   3.747  26.394  0.00  0.00    -0.503 OA
ATOM     21  H   UNL     1       2.529   2.945  26.171  0.00  0.00    +0.292 HD
ENDBRANCH  16  20
ENDBRANCH   5  12
BRANCH  10  22
ATOM     22  O   UNL     1      10.306  -1.417  22.816  0.00  0.00    -0.506 OA
ATOM     23  H   UNL     1      10.853  -2.212  22.702  0.00  0.00    +0.292 HD
ENDBRANCH  10  22
BRANCH   6  24
ATOM     24  O   UNL     1       8.666   2.965  24.925  0.00  0.00    -0.453 OA
BRANCH  24  25
ATOM     25  C   UNL     1       8.586   3.432  23.560  0.00  0.00    +0.340 C 
ATOM     26  O   UNL     1       9.598   4.407  23.273  0.00  0.00    -0.331 OA
ATOM     27  C   UNL     1       9.373   5.770  23.638  0.00  0.00    +0.179 C 
ATOM     28  C   UNL     1       7.985   6.270  23.204  0.00  0.00    +0.177 C 
ATOM     29  C   UNL     1       6.880   5.330  23.698  0.00  0.00    +0.180 C 
ATOM     30  C   UNL     1       7.149   3.903  23.201  0.00  0.00    +0.214 C 
BRANCH  28  31
ATOM     31  O   UNL     1       7.956   6.310  21.761  0.00  0.00    -0.386 OA
ATOM     32  H   UNL     1       8.735   6.814  21.462  0.00  0.00    +0.210 HD
ENDBRANCH  28  31
BRANCH  29  33
ATOM     33  O   UNL     1       6.724   5.409  25.118  0.00  0.00    -0.386 OA
ATOM     34  H   UNL     1       5.771   5.405  25.326  0.00  0.00    +0.210 HD
ENDBRANCH  29  33
BRANCH  30  35
ATOM     35  O   UNL     1       6.927   3.845  21.783  0.00  0.00    -0.383 OA
ATOM     36  H   UNL     1       6.640   4.740  21.508  0.00  0.00    +0.210 HD
ENDBRANCH  30  35
BRANCH  27  37
ATOM     37  C   UNL     1       9.722   6.027  25.109  0.00  0.00    +0.190 C 
BRANCH  37  38
ATOM     38  O   UNL     1       8.958   7.108  25.635  0.00  0.00    -0.392 OA
ATOM     39  H   UNL     1       9.510   7.573  26.287  0.00  0.00    +0.210 HD
ENDBRANCH  37  38
ENDBRANCH  27  37
ENDBRANCH  24  25
ENDBRANCH   6  24
BRANCH   1  40
ATOM     40  O   UNL     1       7.053  -4.580  23.954  0.00  0.00    -0.461 OA
BRANCH  40  44
ATOM     41  C   UNL     1       4.219  -5.402  27.099  0.00  0.00    +0.041 C 
ATOM     42  C   UNL     1       4.989  -6.466  26.316  0.00  0.00    +0.150 C 
ATOM     43  O   UNL     1       6.134  -5.911  25.671  0.00  0.00    -0.334 OA
ATOM     44  C   UNL     1       5.846  -5.027  24.581  0.00  0.00    +0.339 C 
ATOM     45  C   UNL     1       5.010  -5.740  23.490  0.00  0.00    +0.214 C 
ATOM     46  C   UNL     1       3.759  -6.369  24.120  0.00  0.00    +0.180 C 
ATOM     47  C   UNL     1       4.142  -7.255  25.309  0.00  0.00    +0.174 C 
BRANCH  47  48
ATOM     48  O   UNL     1       2.949  -7.777  25.899  0.00  0.00    -0.387 OA
ATOM     49  H   UNL     1       2.196  -7.421  25.391  0.00  0.00    +0.210 HD
ENDBRANCH  47  48
BRANCH  46  50
ATOM     50  O   UNL     1       3.041  -7.152  23.158  0.00  0.00    -0.386 OA
ATOM     51  H   UNL     1       2.544  -6.508  22.615  0.00  0.00    +0.210 HD
ENDBRANCH  46  50
BRANCH  45  52
ATOM     52  O   UNL     1       4.662  -4.818  22.442  0.00  0.00    -0.383 OA
ATOM     53  H   UNL     1       5.140  -5.065  21.634  0.00  0.00    +0.210 HD
ENDBRANCH  45  52
ENDBRANCH  40  44
ENDBRANCH   1  40
TORSDOF 16
ENDMDL
MODEL 5
REMARK VINA RESULT:      -6.8      2.729      9.868
REMARK  Name = 
REMARK  17 active torsions:
REMARK  status: ('A' for Active; 'I' for Inactive)
REMARK    1  A    between atoms: C_1  and  C_2
REMARK    2  A    between atoms: C_4  and  O_53
REMARK    3  A    between atoms: C_6  and  O_52
REMARK    4  A    between atoms: C_8  and  O_51
REMARK    5  A    between atoms: C_10  and  O_13
REMARK    6  A    between atoms: O_13  and  C_14
REMARK    7  A    between atoms: C_16  and  O_50
REMARK    8  A    between atoms: C_21  and  C_42
REMARK    9  A    between atoms: C_22  and  O_25
REMARK   10  A    between atoms: O_25  and  C_26
REMARK   11  A    between atoms: C_28  and  O_41
REMARK   12  A    between atoms: C_30  and  O_40
REMARK   13  A    between atoms: C_32  and  O_39
REMARK   14  A    between atoms: C_34  and  C_37
REMARK   15  A    between atoms: C_37  and  O_38
REMARK   16  A    between atoms: C_44  and  O_49
REMARK   17  A    between atoms: C_45  and  O_48
REMARK                            x       y       z     vdW  Elec       q    Type
REMARK                         _______ _______ _______ _____ _____    ______ ____
ROOT
ATOM      1  C   UNL     1       8.381   0.526  23.875  0.00  0.00    +0.131 A 
ATOM      2  C   UNL     1       7.560  -0.520  23.437  0.00  0.00    +0.093 A 
ATOM      3  C   UNL     1       7.345  -1.627  24.264  0.00  0.00    +0.147 A 
ATOM      4  O   UNL     1       6.556  -2.655  23.795  0.00  0.00    -0.451 OA
ATOM      5  C   UNL     1       6.102  -3.599  24.716  0.00  0.00    +0.181 A 
ATOM      6  C   UNL     1       6.590  -3.744  25.967  0.00  0.00    +0.214 A 
ATOM      7  C   UNL     1       7.818  -2.938  26.249  0.00  0.00    +0.238 A 
ATOM      8  O   UNL     1       8.706  -3.340  26.985  0.00  0.00    -0.283 OA
ATOM      9  C   UNL     1       7.955  -1.682  25.513  0.00  0.00    +0.109 A 
ATOM     10  C   UNL     1       8.715  -0.611  25.979  0.00  0.00    +0.135 A 
ATOM     11  C   UNL     1       8.929   0.489  25.161  0.00  0.00    +0.092 A 
ENDROOT
BRANCH   5  12
ATOM     12  C   UNL     1       5.093  -4.516  24.155  0.00  0.00    +0.025 A 
ATOM     13  C   UNL     1       5.505  -5.796  23.733  0.00  0.00    +0.015 A 
ATOM     14  C   UNL     1       4.588  -6.706  23.199  0.00  0.00    +0.050 A 
ATOM     15  C   UNL     1       3.258  -6.338  23.090  0.00  0.00    +0.158 A 
ATOM     16  C   UNL     1       2.839  -5.074  23.499  0.00  0.00    +0.159 A 
ATOM     17  C   UNL     1       3.747  -4.153  24.024  0.00  0.00    +0.060 A 
BRANCH  15  18
ATOM     18  O   UNL     1       2.361  -7.227  22.577  0.00  0.00    -0.503 OA
ATOM     19  H   UNL     1       2.277  -7.923  23.262  0.00  0.00    +0.292 HD
ENDBRANCH  15  18
BRANCH  16  20
ATOM     20  O   UNL     1       1.511  -4.779  23.353  0.00  0.00    -0.503 OA
ATOM     21  H   UNL     1       1.393  -4.264  22.536  0.00  0.00    +0.292 HD
ENDBRANCH  16  20
ENDBRANCH   5  12
BRANCH  10  22
ATOM     22  O   UNL     1       9.227  -0.616  27.243  0.00  0.00    -0.506 OA
ATOM     23  H   UNL     1       8.506  -0.611  27.894  0.00  0.00    +0.292 HD
ENDBRANCH  10  22
BRANCH   6  24
ATOM     24  O   UNL     1       6.041  -4.625  26.903  0.00  0.00    -0.453 OA
BRANCH  24  25
ATOM     25  C   UNL     1       5.398  -3.996  28.035  0.00  0.00    +0.340 C 
ATOM     26  O   UNL     1       5.619  -4.733  29.246  0.00  0.00    -0.331 OA
ATOM     27  C   UNL     1       4.788  -5.858  29.537  0.00  0.00    +0.179 C 
ATOM     28  C   UNL     1       3.294  -5.546  29.345  0.00  0.00    +0.177 C 
ATOM     29  C   UNL     1       3.028  -4.951  27.957  0.00  0.00    +0.180 C 
ATOM     30  C   UNL     1       3.899  -3.704  27.751  0.00  0.00    +0.214 C 
BRANCH  28  31
ATOM     31  O   UNL     1       2.905  -4.586  30.349  0.00  0.00    -0.386 OA
ATOM     32  H   UNL     1       1.931  -4.563  30.378  0.00  0.00    +0.210 HD
ENDBRANCH  28  31
BRANCH  29  33
ATOM     33  O   UNL     1       3.198  -5.930  26.928  0.00  0.00    -0.386 OA
ATOM     34  H   UNL     1       4.062  -5.784  26.501  0.00  0.00    +0.210 HD
ENDBRANCH  29  33
BRANCH  30  35
ATOM     35  O   UNL     1       3.413  -2.643  28.588  0.00  0.00    -0.383 OA
ATOM     36  H   UNL     1       2.437  -2.651  28.513  0.00  0.00    +0.210 HD
ENDBRANCH  30  35
BRANCH  27  37
ATOM     37  C   UNL     1       5.280  -7.125  28.827  0.00  0.00    +0.190 C 
BRANCH  37  38
ATOM     38  O   UNL     1       6.595  -7.470  29.251  0.00  0.00    -0.392 OA
ATOM     39  H   UNL     1       6.758  -7.031  30.104  0.00  0.00    +0.210 HD
ENDBRANCH  37  38
ENDBRANCH  27  37
ENDBRANCH  24  25
ENDBRANCH   6  24
BRANCH   1  40
ATOM     40  O   UNL     1       8.757   1.630  23.167  0.00  0.00    -0.461 OA
BRANCH  40  44
ATOM     41  C   UNL     1       7.528   4.900  25.695  0.00  0.00    +0.041 C 
ATOM     42  C   UNL     1       7.586   4.950  24.167  0.00  0.00    +0.150 C 
ATOM     43  O   UNL     1       7.602   3.639  23.605  0.00  0.00    -0.334 OA
ATOM     44  C   UNL     1       8.807   2.898  23.828  0.00  0.00    +0.339 C 
ATOM     45  C   UNL     1      10.037   3.651  23.264  0.00  0.00    +0.214 C 
ATOM     46  C   UNL     1      10.078   5.078  23.828  0.00  0.00    +0.180 C 
ATOM     47  C   UNL     1       8.739   5.786  23.600  0.00  0.00    +0.174 C 
BRANCH  47  48
ATOM     48  O   UNL     1       8.801   7.089  24.184  0.00  0.00    -0.387 OA
ATOM     49  H   UNL     1       8.296   7.690  23.605  0.00  0.00    +0.210 HD
ENDBRANCH  47  48
BRANCH  46  50
ATOM     50  O   UNL     1      11.126   5.839  23.215  0.00  0.00    -0.386 OA
ATOM     51  H   UNL     1      11.359   5.354  22.398  0.00  0.00    +0.210 HD
ENDBRANCH  46  50
BRANCH  45  52
ATOM     52  O   UNL     1      11.247   2.933  23.567  0.00  0.00    -0.383 OA
ATOM     53  H   UNL     1      12.005   3.442  23.238  0.00  0.00    +0.210 HD
ENDBRANCH  45  52
ENDBRANCH  40  44
ENDBRANCH   1  40
TORSDOF 16
ENDMDL
MODEL 6
REMARK VINA RESULT:      -6.7      3.100      9.764
REMARK  Name = 
REMARK  17 active torsions:
REMARK  status: ('A' for Active; 'I' for Inactive)
REMARK    1  A    between atoms: C_1  and  C_2
REMARK    2  A    between atoms: C_4  and  O_53
REMARK    3  A    between atoms: C_6  and  O_52
REMARK    4  A    between atoms: C_8  and  O_51
REMARK    5  A    between atoms: C_10  and  O_13
REMARK    6  A    between atoms: O_13  and  C_14
REMARK    7  A    between atoms: C_16  and  O_50
REMARK    8  A    between atoms: C_21  and  C_42
REMARK    9  A    between atoms: C_22  and  O_25
REMARK   10  A    between atoms: O_25  and  C_26
REMARK   11  A    between atoms: C_28  and  O_41
REMARK   12  A    between atoms: C_30  and  O_40
REMARK   13  A    between atoms: C_32  and  O_39
REMARK   14  A    between atoms: C_34  and  C_37
REMARK   15  A    between atoms: C_37  and  O_38
REMARK   16  A    between atoms: C_44  and  O_49
REMARK   17  A    between atoms: C_45  and  O_48
REMARK                            x       y       z     vdW  Elec       q    Type
REMARK                         _______ _______ _______ _____ _____    ______ ____
ROOT
ATOM      1  C   UNL     1       9.449   0.112  23.607  0.00  0.00    +0.131 A 
ATOM      2  C   UNL     1       8.543  -0.869  23.190  0.00  0.00    +0.093 A 
ATOM      3  C   UNL     1       7.949  -1.712  24.135  0.00  0.00    +0.147 A 
ATOM      4  O   UNL     1       7.083  -2.689  23.694  0.00  0.00    -0.451 OA
ATOM      5  C   UNL     1       6.274  -3.317  24.641  0.00  0.00    +0.181 A 
ATOM      6  C   UNL     1       6.461  -3.244  25.976  0.00  0.00    +0.214 A 
ATOM      7  C   UNL     1       7.742  -2.590  26.387  0.00  0.00    +0.238 A 
ATOM      8  O   UNL     1       8.365  -2.943  27.377  0.00  0.00    -0.283 OA
ATOM      9  C   UNL     1       8.271  -1.571  25.482  0.00  0.00    +0.109 A 
ATOM     10  C   UNL     1       9.119  -0.549  25.905  0.00  0.00    +0.135 A 
ATOM     11  C   UNL     1       9.708   0.289  24.969  0.00  0.00    +0.092 A 
ENDROOT
BRANCH   5  12
ATOM     12  C   UNL     1       5.237  -4.175  24.038  0.00  0.00    +0.025 A 
ATOM     13  C   UNL     1       5.642  -5.277  23.258  0.00  0.00    +0.015 A 
ATOM     14  C   UNL     1       4.700  -6.125  22.669  0.00  0.00    +0.050 A 
ATOM     15  C   UNL     1       3.353  -5.874  22.862  0.00  0.00    +0.158 A 
ATOM     16  C   UNL     1       2.939  -4.785  23.627  0.00  0.00    +0.159 A 
ATOM     17  C   UNL     1       3.870  -3.925  24.212  0.00  0.00    +0.060 A 
BRANCH  15  18
ATOM     18  O   UNL     1       2.432  -6.704  22.295  0.00  0.00    -0.503 OA
ATOM     19  H   UNL     1       1.774  -6.870  23.002  0.00  0.00    +0.292 HD
ENDBRANCH  15  18
BRANCH  16  20
ATOM     20  O   UNL     1       1.591  -4.596  23.767  0.00  0.00    -0.503 OA
ATOM     21  H   UNL     1       1.375  -3.682  23.514  0.00  0.00    +0.292 HD
ENDBRANCH  16  20
ENDBRANCH   5  12
BRANCH  10  22
ATOM     22  O   UNL     1       9.354  -0.343  27.232  0.00  0.00    -0.506 OA
ATOM     23  H   UNL     1       9.070  -1.118  27.745  0.00  0.00    +0.292 HD
ENDBRANCH  10  22
BRANCH   6  24
ATOM     24  O   UNL     1       5.569  -3.794  26.903  0.00  0.00    -0.453 OA
BRANCH  24  25
ATOM     25  C   UNL     1       5.770  -5.196  27.189  0.00  0.00    +0.340 C 
ATOM     26  O   UNL     1       4.651  -5.989  26.765  0.00  0.00    -0.331 OA
ATOM     27  C   UNL     1       3.509  -6.089  27.618  0.00  0.00    +0.179 C 
ATOM     28  C   UNL     1       3.891  -6.407  29.073  0.00  0.00    +0.177 C 
ATOM     29  C   UNL     1       4.940  -5.419  29.596  0.00  0.00    +0.180 C 
ATOM     30  C   UNL     1       6.167  -5.426  28.674  0.00  0.00    +0.214 C 
BRANCH  28  31
ATOM     31  O   UNL     1       4.443  -7.740  29.109  0.00  0.00    -0.386 OA
ATOM     32  H   UNL     1       3.746  -8.342  29.429  0.00  0.00    +0.210 HD
ENDBRANCH  28  31
BRANCH  29  33
ATOM     33  O   UNL     1       4.383  -4.114  29.779  0.00  0.00    -0.386 OA
ATOM     34  H   UNL     1       4.372  -3.659  28.918  0.00  0.00    +0.210 HD
ENDBRANCH  29  33
BRANCH  30  35
ATOM     35  O   UNL     1       6.873  -6.666  28.832  0.00  0.00    -0.383 OA
ATOM     36  H   UNL     1       7.432  -6.774  28.035  0.00  0.00    +0.210 HD
ENDBRANCH  30  35
BRANCH  27  37
ATOM     37  C   UNL     1       2.565  -4.894  27.443  0.00  0.00    +0.190 C 
BRANCH  37  38
ATOM     38  O   UNL     1       1.410  -5.258  26.694  0.00  0.00    -0.392 OA
ATOM     39  H   UNL     1       0.830  -5.778  27.277  0.00  0.00    +0.210 HD
ENDBRANCH  37  38
ENDBRANCH  27  37
ENDBRANCH  24  25
ENDBRANCH   6  24
BRANCH   1  40
ATOM     40  O   UNL     1      10.172   0.955  22.813  0.00  0.00    -0.461 OA
BRANCH  40  44
ATOM     41  C   UNL     1      10.459   5.223  23.360  0.00  0.00    +0.041 C 
ATOM     42  C   UNL     1       9.472   4.312  24.092  0.00  0.00    +0.150 C 
ATOM     43  O   UNL     1       9.887   2.949  24.042  0.00  0.00    -0.334 OA
ATOM     44  C   UNL     1       9.806   2.337  22.749  0.00  0.00    +0.339 C 
ATOM     45  C   UNL     1       8.362   2.394  22.195  0.00  0.00    +0.214 C 
ATOM     46  C   UNL     1       7.848   3.840  22.226  0.00  0.00    +0.180 C 
ATOM     47  C   UNL     1       8.017   4.443  23.624  0.00  0.00    +0.174 C 
BRANCH  47  48
ATOM     48  O   UNL     1       7.578   5.803  23.596  0.00  0.00    -0.387 OA
ATOM     49  H   UNL     1       7.317   6.040  24.505  0.00  0.00    +0.210 HD
ENDBRANCH  47  48
BRANCH  46  50
ATOM     50  O   UNL     1       6.466   3.900  21.849  0.00  0.00    -0.386 OA
ATOM     51  H   UNL     1       6.314   3.115  21.285  0.00  0.00    +0.210 HD
ENDBRANCH  46  50
BRANCH  45  52
ATOM     52  O   UNL     1       8.312   1.848  20.864  0.00  0.00    -0.383 OA
ATOM     53  H   UNL     1       7.398   1.889  20.541  0.00  0.00    +0.210 HD
ENDBRANCH  45  52
ENDBRANCH  40  44
ENDBRANCH   1  40
TORSDOF 16
ENDMDL
MODEL 7
REMARK VINA RESULT:      -6.7      2.549     10.224
REMARK  Name = 
REMARK  17 active torsions:
REMARK  status: ('A' for Active; 'I' for Inactive)
REMARK    1  A    between atoms: C_1  and  C_2
REMARK    2  A    between atoms: C_4  and  O_53
REMARK    3  A    between atoms: C_6  and  O_52
REMARK    4  A    between atoms: C_8  and  O_51
REMARK    5  A    between atoms: C_10  and  O_13
REMARK    6  A    between atoms: O_13  and  C_14
REMARK    7  A    between atoms: C_16  and  O_50
REMARK    8  A    between atoms: C_21  and  C_42
REMARK    9  A    between atoms: C_22  and  O_25
REMARK   10  A    between atoms: O_25  and  C_26
REMARK   11  A    between atoms: C_28  and  O_41
REMARK   12  A    between atoms: C_30  and  O_40
REMARK   13  A    between atoms: C_32  and  O_39
REMARK   14  A    between atoms: C_34  and  C_37
REMARK   15  A    between atoms: C_37  and  O_38
REMARK   16  A    between atoms: C_44  and  O_49
REMARK   17  A    between atoms: C_45  and  O_48
REMARK                            x       y       z     vdW  Elec       q    Type
REMARK                         _______ _______ _______ _____ _____    ______ ____
ROOT
ATOM      1  C   UNL     1       5.100   2.373  25.276  0.00  0.00    +0.131 A 
ATOM      2  C   UNL     1       5.980   1.291  25.160  0.00  0.00    +0.093 A 
ATOM      3  C   UNL     1       5.731   0.113  25.872  0.00  0.00    +0.147 A 
ATOM      4  O   UNL     1       6.631  -0.925  25.763  0.00  0.00    -0.451 OA
ATOM      5  C   UNL     1       6.235  -2.181  26.221  0.00  0.00    +0.181 A 
ATOM      6  C   UNL     1       5.158  -2.404  27.005  0.00  0.00    +0.214 A 
ATOM      7  C   UNL     1       4.508  -1.164  27.532  0.00  0.00    +0.238 A 
ATOM      8  O   UNL     1       3.993  -1.119  28.639  0.00  0.00    -0.283 OA
ATOM      9  C   UNL     1       4.613   0.030  26.695  0.00  0.00    +0.109 A 
ATOM     10  C   UNL     1       3.698   1.080  26.757  0.00  0.00    +0.135 A 
ATOM     11  C   UNL     1       3.943   2.249  26.050  0.00  0.00    +0.092 A 
ENDROOT
BRANCH   5  12
ATOM     12  C   UNL     1       7.176  -3.255  25.854  0.00  0.00    +0.025 A 
ATOM     13  C   UNL     1       8.135  -3.665  26.802  0.00  0.00    +0.015 A 
ATOM     14  C   UNL     1       9.047  -4.682  26.507  0.00  0.00    +0.050 A 
ATOM     15  C   UNL     1       8.999  -5.292  25.266  0.00  0.00    +0.158 A 
ATOM     16  C   UNL     1       8.059  -4.893  24.318  0.00  0.00    +0.159 A 
ATOM     17  C   UNL     1       7.149  -3.871  24.597  0.00  0.00    +0.060 A 
BRANCH  15  18
ATOM     18  O   UNL     1       9.882  -6.290  24.979  0.00  0.00    -0.503 OA
ATOM     19  H   UNL     1       9.844  -6.889  25.754  0.00  0.00    +0.292 HD
ENDBRANCH  15  18
BRANCH  16  20
ATOM     20  O   UNL     1       8.077  -5.536  23.111  0.00  0.00    -0.503 OA
ATOM     21  H   UNL     1       7.876  -4.892  22.410  0.00  0.00    +0.292 HD
ENDBRANCH  16  20
ENDBRANCH   5  12
BRANCH  10  22
ATOM     22  O   UNL     1       2.548   0.961  27.480  0.00  0.00    -0.506 OA
ATOM     23  H   UNL     1       2.599   0.184  28.061  0.00  0.00    +0.292 HD
ENDBRANCH  10  22
BRANCH   6  24
ATOM     24  O   UNL     1       4.724  -3.686  27.358  0.00  0.00    -0.453 OA
BRANCH  24  25
ATOM     25  C   UNL     1       3.548  -4.150  26.657  0.00  0.00    +0.340 C 
ATOM     26  O   UNL     1       2.641  -4.831  27.536  0.00  0.00    -0.331 OA
ATOM     27  C   UNL     1       2.871  -6.208  27.839  0.00  0.00    +0.179 C 
ATOM     28  C   UNL     1       3.154  -7.046  26.580  0.00  0.00    +0.177 C 
ATOM     29  C   UNL     1       4.279  -6.423  25.745  0.00  0.00    +0.180 C 
ATOM     30  C   UNL     1       3.924  -4.972  25.393  0.00  0.00    +0.214 C 
BRANCH  28  31
ATOM     31  O   UNL     1       1.948  -7.084  25.789  0.00  0.00    -0.386 OA
ATOM     32  H   UNL     1       1.711  -6.165  25.563  0.00  0.00    +0.210 HD
ENDBRANCH  28  31
BRANCH  29  33
ATOM     33  O   UNL     1       5.545  -6.548  26.399  0.00  0.00    -0.386 OA
ATOM     34  H   UNL     1       5.491  -6.104  27.265  0.00  0.00    +0.210 HD
ENDBRANCH  29  33
BRANCH  30  35
ATOM     35  O   UNL     1       2.853  -4.965  24.436  0.00  0.00    -0.383 OA
ATOM     36  H   UNL     1       3.248  -5.197  23.571  0.00  0.00    +0.210 HD
ENDBRANCH  30  35
BRANCH  27  37
ATOM     37  C   UNL     1       3.893  -6.376  28.970  0.00  0.00    +0.190 C 
BRANCH  37  38
ATOM     38  O   UNL     1       4.563  -7.629  28.873  0.00  0.00    -0.392 OA
ATOM     39  H   UNL     1       3.957  -8.258  28.446  0.00  0.00    +0.210 HD
ENDBRANCH  37  38
ENDBRANCH  27  37
ENDBRANCH  24  25
ENDBRANCH   6  24
BRANCH   1  40
ATOM     40  O   UNL     1       5.238   3.610  24.719  0.00  0.00    -0.461 OA
BRANCH  40  44
ATOM     41  C   UNL     1       9.482   3.754  23.963  0.00  0.00    +0.041 C 
ATOM     42  C   UNL     1       8.637   4.938  24.435  0.00  0.00    +0.150 C 
ATOM     43  O   UNL     1       7.403   4.503  25.003  0.00  0.00    -0.334 OA
ATOM     44  C   UNL     1       6.469   3.949  24.070  0.00  0.00    +0.339 C 
ATOM     45  C   UNL     1       6.123   4.966  22.955  0.00  0.00    +0.214 C 
ATOM     46  C   UNL     1       7.414   5.481  22.302  0.00  0.00    +0.180 C 
ATOM     47  C   UNL     1       8.383   6.007  23.365  0.00  0.00    +0.174 C 
BRANCH  47  48
ATOM     48  O   UNL     1       9.589   6.426  22.722  0.00  0.00    -0.387 OA
ATOM     49  H   UNL     1       9.356   6.685  21.812  0.00  0.00    +0.210 HD
ENDBRANCH  47  48
BRANCH  46  50
ATOM     50  O   UNL     1       7.129   6.526  21.363  0.00  0.00    -0.386 OA
ATOM     51  H   UNL     1       7.045   6.083  20.495  0.00  0.00    +0.210 HD
ENDBRANCH  46  50
BRANCH  45  52
ATOM     52  O   UNL     1       5.247   4.368  21.983  0.00  0.00    -0.383 OA
ATOM     53  H   UNL     1       5.124   3.431  22.204  0.00  0.00    +0.210 HD
ENDBRANCH  45  52
ENDBRANCH  40  44
ENDBRANCH   1  40
TORSDOF 16
ENDMDL
MODEL 8
REMARK VINA RESULT:      -6.6      2.748      9.074
REMARK  Name = 
REMARK  17 active torsions:
REMARK  status: ('A' for Active; 'I' for Inactive)
REMARK    1  A    between atoms: C_1  and  C_2
REMARK    2  A    between atoms: C_4  and  O_53
REMARK    3  A    between atoms: C_6  and  O_52
REMARK    4  A    between atoms: C_8  and  O_51
REMARK    5  A    between atoms: C_10  and  O_13
REMARK    6  A    between atoms: O_13  and  C_14
REMARK    7  A    between atoms: C_16  and  O_50
REMARK    8  A    between atoms: C_21  and  C_42
REMARK    9  A    between atoms: C_22  and  O_25
REMARK   10  A    between atoms: O_25  and  C_26
REMARK   11  A    between atoms: C_28  and  O_41
REMARK   12  A    between atoms: C_30  and  O_40
REMARK   13  A    between atoms: C_32  and  O_39
REMARK   14  A    between atoms: C_34  and  C_37
REMARK   15  A    between atoms: C_37  and  O_38
REMARK   16  A    between atoms: C_44  and  O_49
REMARK   17  A    between atoms: C_45  and  O_48
REMARK                            x       y       z     vdW  Elec       q    Type
REMARK                         _______ _______ _______ _____ _____    ______ ____
ROOT
ATOM      1  C   UNL     1       9.160   0.157  24.244  0.00  0.00    +0.131 A 
ATOM      2  C   UNL     1       7.867   0.161  24.778  0.00  0.00    +0.093 A 
ATOM      3  C   UNL     1       7.123  -1.022  24.806  0.00  0.00    +0.147 A 
ATOM      4  O   UNL     1       5.841  -0.982  25.310  0.00  0.00    -0.451 OA
ATOM      5  C   UNL     1       5.222  -2.195  25.613  0.00  0.00    +0.181 A 
ATOM      6  C   UNL     1       5.664  -3.403  25.202  0.00  0.00    +0.214 A 
ATOM      7  C   UNL     1       6.780  -3.348  24.207  0.00  0.00    +0.238 A 
ATOM      8  O   UNL     1       6.894  -4.170  23.311  0.00  0.00    -0.283 OA
ATOM      9  C   UNL     1       7.673  -2.194  24.296  0.00  0.00    +0.109 A 
ATOM     10  C   UNL     1       8.986  -2.215  23.829  0.00  0.00    +0.135 A 
ATOM     11  C   UNL     1       9.726  -1.042  23.801  0.00  0.00    +0.092 A 
ENDROOT
BRANCH   5  12
ATOM     12  C   UNL     1       3.955  -2.031  26.349  0.00  0.00    +0.025 A 
ATOM     13  C   UNL     1       3.890  -1.070  27.378  0.00  0.00    +0.015 A 
ATOM     14  C   UNL     1       2.712  -0.870  28.102  0.00  0.00    +0.050 A 
ATOM     15  C   UNL     1       1.596  -1.630  27.798  0.00  0.00    +0.158 A 
ATOM     16  C   UNL     1       1.648  -2.588  26.786  0.00  0.00    +0.159 A 
ATOM     17  C   UNL     1       2.822  -2.803  26.062  0.00  0.00    +0.060 A 
BRANCH  15  18
ATOM     18  O   UNL     1       0.444  -1.432  28.498  0.00  0.00    -0.503 OA
ATOM     19  H   UNL     1      -0.238  -1.940  28.009  0.00  0.00    +0.292 HD
ENDBRANCH  15  18
BRANCH  16  20
ATOM     20  O   UNL     1       0.508  -3.305  26.547  0.00  0.00    -0.503 OA
ATOM     21  H   UNL     1      -0.190  -2.994  27.147  0.00  0.00    +0.292 HD
ENDBRANCH  16  20
ENDBRANCH   5  12
BRANCH  10  22
ATOM     22  O   UNL     1       9.563  -3.383  23.425  0.00  0.00    -0.506 OA
ATOM     23  H   UNL     1       8.877  -4.031  23.194  0.00  0.00    +0.292 HD
ENDBRANCH  10  22
BRANCH   6  24
ATOM     24  O   UNL     1       5.085  -4.608  25.613  0.00  0.00    -0.453 OA
BRANCH  24  25
ATOM     25  C   UNL     1       6.008  -5.579  26.155  0.00  0.00    +0.340 C 
ATOM     26  O   UNL     1       5.376  -6.849  26.368  0.00  0.00    -0.331 OA
ATOM     27  C   UNL     1       4.623  -7.058  27.564  0.00  0.00    +0.179 C 
ATOM     28  C   UNL     1       5.382  -6.601  28.821  0.00  0.00    +0.177 C 
ATOM     29  C   UNL     1       5.877  -5.158  28.673  0.00  0.00    +0.180 C 
ATOM     30  C   UNL     1       6.742  -5.031  27.411  0.00  0.00    +0.214 C 
BRANCH  28  31
ATOM     31  O   UNL     1       6.520  -7.471  28.997  0.00  0.00    -0.386 OA
ATOM     32  H   UNL     1       7.121  -7.049  29.638  0.00  0.00    +0.210 HD
ENDBRANCH  28  31
BRANCH  29  33
ATOM     33  O   UNL     1       4.790  -4.228  28.704  0.00  0.00    -0.386 OA
ATOM     34  H   UNL     1       4.411  -4.165  27.808  0.00  0.00    +0.210 HD
ENDBRANCH  29  33
BRANCH  30  35
ATOM     35  O   UNL     1       7.987  -5.715  27.619  0.00  0.00    -0.383 OA
ATOM     36  H   UNL     1       7.829  -6.657  27.403  0.00  0.00    +0.210 HD
ENDBRANCH  30  35
BRANCH  27  37
ATOM     37  C   UNL     1       3.196  -6.513  27.437  0.00  0.00    +0.190 C 
BRANCH  37  38
ATOM     38  O   UNL     1       2.787  -6.460  26.073  0.00  0.00    -0.392 OA
ATOM     39  H   UNL     1       3.586  -6.351  25.528  0.00  0.00    +0.210 HD
ENDBRANCH  37  38
ENDBRANCH  27  37
ENDBRANCH  24  25
ENDBRANCH   6  24
BRANCH   1  40
ATOM     40  O   UNL     1       9.983   1.231  24.068  0.00  0.00    -0.461 OA
BRANCH  40  44
ATOM     41  C   UNL     1       9.029   5.304  25.118  0.00  0.00    +0.041 C 
ATOM     42  C   UNL     1       8.033   4.144  25.122  0.00  0.00    +0.150 C 
ATOM     43  O   UNL     1       8.701   2.884  25.159  0.00  0.00    -0.334 OA
ATOM     44  C   UNL     1       9.408   2.538  23.963  0.00  0.00    +0.339 C 
ATOM     45  C   UNL     1       8.458   2.514  22.741  0.00  0.00    +0.214 C 
ATOM     46  C   UNL     1       7.699   3.845  22.644  0.00  0.00    +0.180 C 
ATOM     47  C   UNL     1       7.016   4.173  23.975  0.00  0.00    +0.174 C 
BRANCH  47  48
ATOM     48  O   UNL     1       6.366   5.441  23.860  0.00  0.00    -0.387 OA
ATOM     49  H   UNL     1       6.390   5.694  22.919  0.00  0.00    +0.210 HD
ENDBRANCH  47  48
BRANCH  46  50
ATOM     50  O   UNL     1       6.713   3.796  21.605  0.00  0.00    -0.386 OA
ATOM     51  H   UNL     1       6.706   2.869  21.294  0.00  0.00    +0.210 HD
ENDBRANCH  46  50
BRANCH  45  52
ATOM     52  O   UNL     1       9.196   2.243  21.535  0.00  0.00    -0.383 OA
ATOM     53  H   UNL     1      10.075   1.907  21.773  0.00  0.00    +0.210 HD
ENDBRANCH  45  52
ENDBRANCH  40  44
ENDBRANCH   1  40
TORSDOF 16
ENDMDL
MODEL 9
REMARK VINA RESULT:      -6.6      2.530      4.274
REMARK  Name = 
REMARK  17 active torsions:
REMARK  status: ('A' for Active; 'I' for Inactive)
REMARK    1  A    between atoms: C_1  and  C_2
REMARK    2  A    between atoms: C_4  and  O_53
REMARK    3  A    between atoms: C_6  and  O_52
REMARK    4  A    between atoms: C_8  and  O_51
REMARK    5  A    between atoms: C_10  and  O_13
REMARK    6  A    between atoms: O_13  and  C_14
REMARK    7  A    between atoms: C_16  and  O_50
REMARK    8  A    between atoms: C_21  and  C_42
REMARK    9  A    between atoms: C_22  and  O_25
REMARK   10  A    between atoms: O_25  and  C_26
REMARK   11  A    between atoms: C_28  and  O_41
REMARK   12  A    between atoms: C_30  and  O_40
REMARK   13  A    between atoms: C_32  and  O_39
REMARK   14  A    between atoms: C_34  and  C_37
REMARK   15  A    between atoms: C_37  and  O_38
REMARK   16  A    between atoms: C_44  and  O_49
REMARK   17  A    between atoms: C_45  and  O_48
REMARK                            x       y       z     vdW  Elec       q    Type
REMARK                         _______ _______ _______ _____ _____    ______ ____
ROOT
ATOM      1  C   UNL     1       6.155  -2.413  26.197  0.00  0.00    +0.131 A 
ATOM      2  C   UNL     1       5.225  -1.509  25.671  0.00  0.00    +0.093 A 
ATOM      3  C   UNL     1       5.473  -0.135  25.746  0.00  0.00    +0.147 A 
ATOM      4  O   UNL     1       4.526   0.733  25.247  0.00  0.00    -0.451 OA
ATOM      5  C   UNL     1       4.901   2.062  25.050  0.00  0.00    +0.181 A 
ATOM      6  C   UNL     1       6.018   2.625  25.558  0.00  0.00    +0.214 A 
ATOM      7  C   UNL     1       6.753   1.767  26.539  0.00  0.00    +0.238 A 
ATOM      8  O   UNL     1       7.343   2.236  27.500  0.00  0.00    -0.283 OA
ATOM      9  C   UNL     1       6.641   0.321  26.349  0.00  0.00    +0.109 A 
ATOM     10  C   UNL     1       7.600  -0.579  26.810  0.00  0.00    +0.135 A 
ATOM     11  C   UNL     1       7.356  -1.943  26.735  0.00  0.00    +0.092 A 
ENDROOT
BRANCH   5  12
ATOM     12  C   UNL     1       3.894   2.844  24.310  0.00  0.00    +0.025 A 
ATOM     13  C   UNL     1       2.790   3.364  25.015  0.00  0.00    +0.015 A 
ATOM     14  C   UNL     1       1.810   4.116  24.363  0.00  0.00    +0.050 A 
ATOM     15  C   UNL     1       1.933   4.352  23.005  0.00  0.00    +0.158 A 
ATOM     16  C   UNL     1       3.017   3.840  22.294  0.00  0.00    +0.159 A 
ATOM     17  C   UNL     1       3.997   3.079  22.932  0.00  0.00    +0.060 A 
BRANCH  15  18
ATOM     18  O   UNL     1       0.982   5.093  22.368  0.00  0.00    -0.503 OA
ATOM     19  H   UNL     1       0.678   4.528  21.627  0.00  0.00    +0.292 HD
ENDBRANCH  15  18
BRANCH  16  20
ATOM     20  O   UNL     1       3.068   4.108  20.954  0.00  0.00    -0.503 OA
ATOM     21  H   UNL     1       3.941   3.844  20.615  0.00  0.00    +0.292 HD
ENDBRANCH  16  20
ENDBRANCH   5  12
BRANCH  10  22
ATOM     22  O   UNL     1       8.790  -0.136  27.306  0.00  0.00    -0.506 OA
ATOM     23  H   UNL     1       8.649   0.651  27.858  0.00  0.00    +0.292 HD
ENDBRANCH  10  22
BRANCH   6  24
ATOM     24  O   UNL     1       6.423   3.928  25.252  0.00  0.00    -0.453 OA
BRANCH  24  25
ATOM     25  C   UNL     1       7.512   4.027  24.307  0.00  0.00    +0.340 C 
ATOM     26  O   UNL     1       8.740   4.399  24.950  0.00  0.00    -0.331 OA
ATOM     27  C   UNL     1       8.991   5.780  25.220  0.00  0.00    +0.179 C 
ATOM     28  C   UNL     1       8.714   6.674  24.000  0.00  0.00    +0.177 C 
ATOM     29  C   UNL     1       7.309   6.423  23.440  0.00  0.00    +0.180 C 
ATOM     30  C   UNL     1       7.142   4.935  23.102  0.00  0.00    +0.214 C 
BRANCH  28  31
ATOM     31  O   UNL     1       9.688   6.358  22.983  0.00  0.00    -0.386 OA
ATOM     32  H   UNL     1      10.520   6.808  23.219  0.00  0.00    +0.210 HD
ENDBRANCH  28  31
BRANCH  29  33
ATOM     33  O   UNL     1       6.298   6.913  24.326  0.00  0.00    -0.386 OA
ATOM     34  H   UNL     1       5.557   6.280  24.331  0.00  0.00    +0.210 HD
ENDBRANCH  29  33
BRANCH  30  35
ATOM     35  O   UNL     1       7.943   4.617  21.953  0.00  0.00    -0.383 OA
ATOM     36  H   UNL     1       8.275   3.706  22.087  0.00  0.00    +0.210 HD
ENDBRANCH  30  35
BRANCH  27  37
ATOM     37  C   UNL     1       8.320   6.234  26.522  0.00  0.00    +0.190 C 
BRANCH  37  38
ATOM     38  O   UNL     1       7.943   5.116  27.321  0.00  0.00    -0.392 OA
ATOM     39  H   UNL     1       8.345   5.230  28.199  0.00  0.00    +0.210 HD
ENDBRANCH  37  38
ENDBRANCH  27  37
ENDBRANCH  24  25
ENDBRANCH   6  24
BRANCH   1  40
ATOM     40  O   UNL     1       6.030  -3.770  26.278  0.00  0.00    -0.461 OA
BRANCH  40  44
ATOM     41  C   UNL     1       7.568  -4.940  22.423  0.00  0.00    +0.041 C 
ATOM     42  C   UNL     1       6.133  -4.483  22.690  0.00  0.00    +0.150 C 
ATOM     43  O   UNL     1       6.035  -3.767  23.919  0.00  0.00    -0.334 OA
ATOM     44  C   UNL     1       6.218  -4.558  25.098  0.00  0.00    +0.339 C 
ATOM     45  C   UNL     1       5.187  -5.712  25.161  0.00  0.00    +0.214 C 
ATOM     46  C   UNL     1       5.235  -6.525  23.859  0.00  0.00    +0.180 C 
ATOM     47  C   UNL     1       5.088  -5.605  22.644  0.00  0.00    +0.174 C 
BRANCH  47  48
ATOM     48  O   UNL     1       5.192  -6.392  21.454  0.00  0.00    -0.387 OA
ATOM     49  H   UNL     1       6.135  -6.421  21.208  0.00  0.00    +0.210 HD
ENDBRANCH  47  48
BRANCH  46  50
ATOM     50  O   UNL     1       4.196  -7.512  23.835  0.00  0.00    -0.386 OA
ATOM     51  H   UNL     1       4.654  -8.376  23.866  0.00  0.00    +0.210 HD
ENDBRANCH  46  50
BRANCH  45  52
ATOM     52  O   UNL     1       5.433  -6.545  26.308  0.00  0.00    -0.383 OA
ATOM     53  H   UNL     1       4.615  -7.014  26.538  0.00  0.00    +0.210 HD
ENDBRANCH  45  52
ENDBRANCH  40  44
ENDBRANCH   1  40
TORSDOF 16
ENDMDL
