MODEL 1
REMARK VINA RESULT:      -6.8      0.000      0.000
REMARK  Name = 
REMARK  27 active torsions:
REMARK  status: ('A' for Active; 'I' for Inactive)
REMARK    1  A    between atoms: C_1  and  C_2
REMARK    2  A    between atoms: C_3  and  O_74
REMARK    3  A    between atoms: C_5  and  O_73
REMARK    4  A    between atoms: C_6  and  O_47
REMARK    5  A    between atoms: C_8  and  O_11
REMARK    6  A    between atoms: O_11  and  C_12
REMARK    7  A    between atoms: C_13  and  C_39
REMARK    8  A    between atoms: C_17  and  O_24
REMARK    9  A    between atoms: C_19  and  O_23
REMARK   10  A    between atoms: O_24  and  C_25
REMARK   11  A    between atoms: C_27  and  O_38
REMARK   12  A    between atoms: C_28  and  O_37
REMARK   13  A    between atoms: C_29  and  O_36
REMARK   14  A    between atoms: C_31  and  C_34
REMARK   15  A    between atoms: C_34  and  O_35
REMARK   16  A    between atoms: C_41  and  O_46
REMARK   17  A    between atoms: C_42  and  O_45
REMARK   18  A    between atoms: O_47  and  C_48
REMARK   19  A    between atoms: C_50  and  O_72
REMARK   20  A    between atoms: C_52  and  O_71
REMARK   21  A    between atoms: C_53  and  O_70
REMARK   22  A    between atoms: C_55  and  C_57
REMARK   23  A    between atoms: C_57  and  O_58
REMARK   24  A    between atoms: O_58  and  C_59
REMARK   25  A    between atoms: C_59  and  C_61
REMARK   26  A    between atoms: C_62  and  C_63
REMARK   27  A    between atoms: C_66  and  O_69
REMARK                            x       y       z     vdW  Elec       q    Type
REMARK                         _______ _______ _______ _____ _____    ______ ____
ROOT
ATOM      1  O   UNL     1       4.661  -1.679  26.403  0.00  0.00    -0.453 OA
ENDROOT
BRANCH   1   2
ATOM      2  C   UNL     1       4.889  -0.566  25.586  0.00  0.00    +0.214 A 
ATOM      3  C   UNL     1       4.565   0.828  26.070  0.00  0.00    +0.238 A 
ATOM      4  O   UNL     1       3.473   1.074  26.572  0.00  0.00    -0.283 OA
ATOM      5  C   UNL     1       5.609   1.881  25.893  0.00  0.00    +0.109 A 
ATOM      6  C   UNL     1       6.638   1.577  25.010  0.00  0.00    +0.147 A 
ATOM      7  C   UNL     1       7.768   2.425  24.897  0.00  0.00    +0.093 A 
ATOM      8  C   UNL     1       7.859   3.615  25.634  0.00  0.00    +0.131 A 
ATOM      9  C   UNL     1       6.767   3.984  26.421  0.00  0.00    +0.092 A 
ATOM     10  O   UNL     1       6.568   0.480  24.170  0.00  0.00    -0.451 OA
ATOM     11  C   UNL     1       5.669   3.126  26.567  0.00  0.00    +0.135 A 
ATOM     12  C   UNL     1       5.797  -0.626  24.558  0.00  0.00    +0.181 A 
BRANCH  12  13
ATOM     13  C   UNL     1       6.060  -1.863  23.736  0.00  0.00    +0.025 A 
ATOM     14  C   UNL     1       6.868  -1.801  22.590  0.00  0.00    +0.015 A 
ATOM     15  C   UNL     1       7.176  -2.885  21.777  0.00  0.00    +0.050 A 
ATOM     16  C   UNL     1       6.778  -4.135  22.183  0.00  0.00    +0.158 A 
ATOM     17  C   UNL     1       6.044  -4.278  23.355  0.00  0.00    +0.159 A 
ATOM     18  C   UNL     1       5.659  -3.160  24.121  0.00  0.00    +0.060 A 
BRANCH  17  19
ATOM     19  O   UNL     1       5.755  -5.562  23.733  0.00  0.00    -0.503 OA
ATOM     20  H   UNL     1       4.829  -5.607  24.007  0.00  0.00    +0.292 HD
ENDBRANCH  17  19
BRANCH  16  21
ATOM     21  O   UNL     1       7.180  -5.209  21.453  0.00  0.00    -0.503 OA
ATOM     22  H   UNL     1       6.359  -5.588  21.087  0.00  0.00    +0.292 HD
ENDBRANCH  16  21
ENDBRANCH  12  13
BRANCH  11  23
ATOM     23  O   UNL     1       4.654   3.516  27.405  0.00  0.00    -0.506 OA
ATOM     24  H   UNL     1       4.573   2.883  28.144  0.00  0.00    +0.292 HD
ENDBRANCH  11  23
BRANCH   8  25
ATOM     25  O   UNL     1       8.946   4.481  25.660  0.00  0.00    -0.461 OA
BRANCH  25  26
ATOM     26  C   UNL     1       9.228   5.150  24.412  0.00  0.00    +0.339 C 
ATOM     27  O   UNL     1       9.510   4.213  23.372  0.00  0.00    -0.331 OA
ATOM     28  C   UNL     1      10.781   3.551  23.521  0.00  0.00    +0.179 C 
ATOM     29  C   UNL     1      11.918   4.571  23.399  0.00  0.00    +0.177 C 
ATOM     30  C   UNL     1      11.771   5.613  24.508  0.00  0.00    +0.180 C 
ATOM     31  C   UNL     1      10.356   6.217  24.509  0.00  0.00    +0.214 C 
BRANCH  31  32
ATOM     32  O   UNL     1      10.201   7.106  25.621  0.00  0.00    -0.383 OA
ATOM     33  H   UNL     1      10.850   7.826  25.519  0.00  0.00    +0.210 HD
ENDBRANCH  31  32
BRANCH  30  34
ATOM     34  O   UNL     1      12.779   6.621  24.295  0.00  0.00    -0.386 OA
ATOM     35  H   UNL     1      12.978   7.038  25.155  0.00  0.00    +0.210 HD
ENDBRANCH  30  34
BRANCH  29  36
ATOM     36  O   UNL     1      11.868   5.233  22.125  0.00  0.00    -0.386 OA
ATOM     37  H   UNL     1      12.730   5.680  22.018  0.00  0.00    +0.210 HD
ENDBRANCH  29  36
BRANCH  28  38
ATOM     38  C   UNL     1      10.882   2.467  22.441  0.00  0.00    +0.190 C 
BRANCH  38  39
ATOM     39  O   UNL     1       9.660   2.356  21.710  0.00  0.00    -0.392 OA
ATOM     40  H   UNL     1       9.842   2.479  20.762  0.00  0.00    +0.210 HD
ENDBRANCH  38  39
ENDBRANCH  28  38
ENDBRANCH  25  26
ENDBRANCH   8  25
ENDBRANCH   1   2
BRANCH   1  44
ATOM     41  C   UNL     1       2.980  -1.149  30.443  0.00  0.00    +0.041 C 
ATOM     42  C   UNL     1       3.516  -2.461  29.883  0.00  0.00    +0.150 C 
ATOM     43  O   UNL     1       4.383  -2.307  28.738  0.00  0.00    -0.334 OA
ATOM     44  C   UNL     1       3.766  -1.828  27.540  0.00  0.00    +0.340 C 
ATOM     45  C   UNL     1       2.542  -2.782  27.107  0.00  0.00    +0.221 C 
ATOM     46  C   UNL     1       1.626  -3.044  28.313  0.00  0.00    +0.180 C 
ATOM     47  C   UNL     1       2.372  -3.447  29.603  0.00  0.00    +0.174 C 
BRANCH  47  48
ATOM     48  O   UNL     1       2.932  -4.760  29.591  0.00  0.00    -0.387 OA
ATOM     49  H   UNL     1       3.911  -4.674  29.616  0.00  0.00    +0.210 HD
ENDBRANCH  47  48
BRANCH  46  50
ATOM     50  O   UNL     1       0.529  -3.906  28.001  0.00  0.00    -0.386 OA
ATOM     51  H   UNL     1       0.496  -4.032  27.037  0.00  0.00    +0.210 HD
ENDBRANCH  46  50
BRANCH  45  52
ATOM     52  O   UNL     1       2.758  -3.960  26.272  0.00  0.00    -0.337 OA
BRANCH  52  53
ATOM     53  C   UNL     1       1.934  -5.109  26.455  0.00  0.00    +0.282 C 
ATOM     54  O   UNL     1       2.634  -6.088  27.216  0.00  0.00    -0.339 OA
ATOM     55  C   UNL     1       3.820  -6.507  26.509  0.00  0.00    +0.190 C 
ATOM     56  C   UNL     1       3.464  -7.235  25.211  0.00  0.00    +0.178 C 
ATOM     57  C   UNL     1       2.599  -6.298  24.338  0.00  0.00    +0.179 C 
ATOM     58  C   UNL     1       1.422  -5.741  25.139  0.00  0.00    +0.201 C 
BRANCH  58  59
ATOM     59  O   UNL     1       0.492  -6.812  25.423  0.00  0.00    -0.384 OA
ATOM     60  H   UNL     1      -0.400  -6.478  25.176  0.00  0.00    +0.210 HD
ENDBRANCH  58  59
BRANCH  57  61
ATOM     61  O   UNL     1       2.120  -7.023  23.198  0.00  0.00    -0.386 OA
ATOM     62  H   UNL     1       1.321  -7.490  23.517  0.00  0.00    +0.210 HD
ENDBRANCH  57  61
BRANCH  56  63
ATOM     63  O   UNL     1       2.710  -8.428  25.467  0.00  0.00    -0.386 OA
ATOM     64  H   UNL     1       3.307  -8.990  25.998  0.00  0.00    +0.210 HD
ENDBRANCH  56  63
BRANCH  55  65
ATOM     65  C   UNL     1       4.785  -7.155  27.504  0.00  0.00    +0.266 C 
BRANCH  65  66
ATOM     66  O   UNL     1       6.124  -6.685  27.526  0.00  0.00    -0.459 OA
BRANCH  66  67
ATOM     67  C   UNL     1       6.257  -5.520  28.193  0.00  0.00    +0.332 C 
ATOM     68  O   UNL     1       5.870  -5.288  29.330  0.00  0.00    -0.246 OA
BRANCH  67  69
ATOM     69  C   UNL     1       6.955  -4.511  27.410  0.00  0.00    +0.092 C 
ATOM     70  C   UNL     1       7.988  -4.717  26.582  0.00  0.00    +0.015 C 
BRANCH  70  71
ATOM     71  C   UNL     1       8.634  -3.583  25.905  0.00  0.00    -0.025 A 
ATOM     72  C   UNL     1       9.408  -3.794  24.754  0.00  0.00    +0.011 A 
ATOM     73  C   UNL     1       9.981  -2.730  24.066  0.00  0.00    +0.046 A 
ATOM     74  C   UNL     1       9.816  -1.438  24.549  0.00  0.00    +0.117 A 
ATOM     75  C   UNL     1       9.094  -1.204  25.714  0.00  0.00    +0.046 A 
ATOM     76  C   UNL     1       8.503  -2.278  26.400  0.00  0.00    +0.011 A 
BRANCH  74  77
ATOM     77  O   UNL     1      10.380  -0.429  23.835  0.00  0.00    -0.507 OA
ATOM     78  H   UNL     1       9.844  -0.268  23.044  0.00  0.00    +0.292 HD
ENDBRANCH  74  77
ENDBRANCH  70  71
ENDBRANCH  67  69
ENDBRANCH  66  67
ENDBRANCH  65  66
ENDBRANCH  55  65
ENDBRANCH  52  53
ENDBRANCH  45  52
ENDBRANCH   1  44
TORSDOF 26
ENDMDL
MODEL 2
REMARK VINA RESULT:      -6.2      2.747     10.031
REMARK  Name = 
REMARK  27 active torsions:
REMARK  status: ('A' for Active; 'I' for Inactive)
REMARK    1  A    between atoms: C_1  and  C_2
REMARK    2  A    between atoms: C_3  and  O_74
REMARK    3  A    between atoms: C_5  and  O_73
REMARK    4  A    between atoms: C_6  and  O_47
REMARK    5  A    between atoms: C_8  and  O_11
REMARK    6  A    between atoms: O_11  and  C_12
REMARK    7  A    between atoms: C_13  and  C_39
REMARK    8  A    between atoms: C_17  and  O_24
REMARK    9  A    between atoms: C_19  and  O_23
REMARK   10  A    between atoms: O_24  and  C_25
REMARK   11  A    between atoms: C_27  and  O_38
REMARK   12  A    between atoms: C_28  and  O_37
REMARK   13  A    between atoms: C_29  and  O_36
REMARK   14  A    between atoms: C_31  and  C_34
REMARK   15  A    between atoms: C_34  and  O_35
REMARK   16  A    between atoms: C_41  and  O_46
REMARK   17  A    between atoms: C_42  and  O_45
REMARK   18  A    between atoms: O_47  and  C_48
REMARK   19  A    between atoms: C_50  and  O_72
REMARK   20  A    between atoms: C_52  and  O_71
REMARK   21  A    between atoms: C_53  and  O_70
REMARK   22  A    between atoms: C_55  and  C_57
REMARK   23  A    between atoms: C_57  and  O_58
REMARK   24  A    between atoms: O_58  and  C_59
REMARK   25  A    between atoms: C_59  and  C_61
REMARK   26  A    between atoms: C_62  and  C_63
REMARK   27  A    between atoms: C_66  and  O_69
REMARK                            x       y       z     vdW  Elec       q    Type
REMARK                         _______ _______ _______ _____ _____    ______ ____
ROOT
ATOM      1  O   UNL     1       4.273   3.413  25.461  0.00  0.00    -0.453 OA
ENDROOT
BRANCH   1   2
ATOM      2  C   UNL     1       3.804   2.796  26.625  0.00  0.00    +0.214 A 
ATOM      3  C   UNL     1       2.730   1.736  26.559  0.00  0.00    +0.238 A 
ATOM      4  O   UNL     1       1.704   1.928  25.916  0.00  0.00    -0.283 OA
ATOM      5  C   UNL     1       2.962   0.470  27.317  0.00  0.00    +0.109 A 
ATOM      6  C   UNL     1       3.969   0.508  28.275  0.00  0.00    +0.147 A 
ATOM      7  C   UNL     1       4.391  -0.676  28.928  0.00  0.00    +0.093 A 
ATOM      8  C   UNL     1       3.776  -1.910  28.665  0.00  0.00    +0.131 A 
ATOM      9  C   UNL     1       2.679  -1.924  27.802  0.00  0.00    +0.092 A 
ATOM     10  O   UNL     1       4.547   1.703  28.667  0.00  0.00    -0.451 OA
ATOM     11  C   UNL     1       2.289  -0.762  27.122  0.00  0.00    +0.135 A 
ATOM     12  C   UNL     1       4.568   2.777  27.765  0.00  0.00    +0.181 A 
BRANCH  12  13
ATOM     13  C   UNL     1       5.498   3.891  28.176  0.00  0.00    +0.025 A 
ATOM     14  C   UNL     1       6.199   3.825  29.391  0.00  0.00    +0.015 A 
ATOM     15  C   UNL     1       7.084   4.794  29.850  0.00  0.00    +0.050 A 
ATOM     16  C   UNL     1       7.406   5.830  29.008  0.00  0.00    +0.158 A 
ATOM     17  C   UNL     1       6.810   5.911  27.754  0.00  0.00    +0.159 A 
ATOM     18  C   UNL     1       5.845   4.972  27.338  0.00  0.00    +0.060 A 
BRANCH  17  19
ATOM     19  O   UNL     1       7.243   6.927  26.945  0.00  0.00    -0.503 OA
ATOM     20  H   UNL     1       7.639   7.618  27.493  0.00  0.00    +0.292 HD
ENDBRANCH  17  19
BRANCH  16  21
ATOM     21  O   UNL     1       8.359   6.713  29.406  0.00  0.00    -0.503 OA
ATOM     22  H   UNL     1       9.193   6.206  29.401  0.00  0.00    +0.292 HD
ENDBRANCH  16  21
ENDBRANCH  12  13
BRANCH  11  23
ATOM     23  O   UNL     1       1.243  -0.854  26.238  0.00  0.00    -0.506 OA
ATOM     24  H   UNL     1       1.583  -0.858  25.323  0.00  0.00    +0.292 HD
ENDBRANCH  11  23
BRANCH   8  25
ATOM     25  O   UNL     1       4.153  -3.141  29.187  0.00  0.00    -0.461 OA
BRANCH  25  26
ATOM     26  C   UNL     1       4.106  -4.242  28.254  0.00  0.00    +0.339 C 
ATOM     27  O   UNL     1       3.467  -5.383  28.828  0.00  0.00    -0.331 OA
ATOM     28  C   UNL     1       4.251  -6.033  29.846  0.00  0.00    +0.179 C 
ATOM     29  C   UNL     1       5.528  -6.614  29.229  0.00  0.00    +0.177 C 
ATOM     30  C   UNL     1       6.349  -5.476  28.625  0.00  0.00    +0.180 C 
ATOM     31  C   UNL     1       5.493  -4.630  27.666  0.00  0.00    +0.214 C 
BRANCH  31  32
ATOM     32  O   UNL     1       6.245  -3.505  27.196  0.00  0.00    -0.383 OA
ATOM     33  H   UNL     1       6.829  -3.214  27.920  0.00  0.00    +0.210 HD
ENDBRANCH  31  32
BRANCH  30  34
ATOM     34  O   UNL     1       7.479  -6.064  27.950  0.00  0.00    -0.386 OA
ATOM     35  H   UNL     1       8.002  -6.560  28.608  0.00  0.00    +0.210 HD
ENDBRANCH  30  34
BRANCH  29  36
ATOM     36  O   UNL     1       5.204  -7.558  28.196  0.00  0.00    -0.386 OA
ATOM     37  H   UNL     1       5.710  -8.368  28.401  0.00  0.00    +0.210 HD
ENDBRANCH  29  36
BRANCH  28  38
ATOM     38  C   UNL     1       3.388  -7.128  30.484  0.00  0.00    +0.190 C 
BRANCH  38  39
ATOM     39  O   UNL     1       2.731  -7.911  29.486  0.00  0.00    -0.392 OA
ATOM     40  H   UNL     1       3.398  -8.306  28.899  0.00  0.00    +0.210 HD
ENDBRANCH  38  39
ENDBRANCH  28  38
ENDBRANCH  25  26
ENDBRANCH   8  25
ENDBRANCH   1   2
BRANCH   1  44
ATOM     41  C   UNL     1       1.397   6.485  24.147  0.00  0.00    +0.041 C 
ATOM     42  C   UNL     1       1.849   5.293  23.310  0.00  0.00    +0.150 C 
ATOM     43  O   UNL     1       2.441   4.222  24.077  0.00  0.00    -0.334 OA
ATOM     44  C   UNL     1       3.699   4.507  24.693  0.00  0.00    +0.340 C 
ATOM     45  C   UNL     1       4.778   4.984  23.595  0.00  0.00    +0.221 C 
ATOM     46  C   UNL     1       4.171   6.075  22.698  0.00  0.00    +0.180 C 
ATOM     47  C   UNL     1       2.762   5.744  22.161  0.00  0.00    +0.174 C 
BRANCH  47  48
ATOM     48  O   UNL     1       2.721   4.729  21.159  0.00  0.00    -0.387 OA
ATOM     49  H   UNL     1       2.226   5.083  20.386  0.00  0.00    +0.210 HD
ENDBRANCH  47  48
BRANCH  46  50
ATOM     50  O   UNL     1       5.072   6.526  21.684  0.00  0.00    -0.386 OA
ATOM     51  H   UNL     1       4.661   7.268  21.209  0.00  0.00    +0.210 HD
ENDBRANCH  46  50
BRANCH  45  52
ATOM     52  O   UNL     1       5.595   4.019  22.867  0.00  0.00    -0.337 OA
BRANCH  52  53
ATOM     53  C   UNL     1       6.875   4.411  22.377  0.00  0.00    +0.282 C 
ATOM     54  O   UNL     1       7.599   3.265  21.944  0.00  0.00    -0.339 OA
ATOM     55  C   UNL     1       7.812   2.368  23.055  0.00  0.00    +0.190 C 
ATOM     56  C   UNL     1       8.719   3.000  24.113  0.00  0.00    +0.178 C 
ATOM     57  C   UNL     1       8.083   4.326  24.585  0.00  0.00    +0.179 C 
ATOM     58  C   UNL     1       7.726   5.213  23.391  0.00  0.00    +0.201 C 
BRANCH  58  59
ATOM     59  O   UNL     1       8.944   5.682  22.767  0.00  0.00    -0.384 OA
ATOM     60  H   UNL     1       9.585   5.841  23.496  0.00  0.00    +0.210 HD
ENDBRANCH  58  59
BRANCH  57  61
ATOM     61  O   UNL     1       9.000   5.009  25.449  0.00  0.00    -0.386 OA
ATOM     62  H   UNL     1       9.787   5.179  24.893  0.00  0.00    +0.210 HD
ENDBRANCH  57  61
BRANCH  56  63
ATOM     63  O   UNL     1      10.020   3.293  23.583  0.00  0.00    -0.386 OA
ATOM     64  H   UNL     1       9.930   3.164  22.618  0.00  0.00    +0.210 HD
ENDBRANCH  56  63
BRANCH  55  65
ATOM     65  C   UNL     1       8.135   0.976  22.510  0.00  0.00    +0.266 C 
BRANCH  65  66
ATOM     66  O   UNL     1       9.028   0.165  23.258  0.00  0.00    -0.459 OA
BRANCH  66  67
ATOM     67  C   UNL     1       9.345  -0.983  22.626  0.00  0.00    +0.332 C 
ATOM     68  O   UNL     1      10.427  -1.263  22.130  0.00  0.00    -0.246 OA
BRANCH  67  69
ATOM     69  C   UNL     1       8.234  -1.923  22.598  0.00  0.00    +0.092 C 
ATOM     70  C   UNL     1       8.147  -3.077  23.275  0.00  0.00    +0.015 C 
BRANCH  70  71
ATOM     71  C   UNL     1       6.984  -3.957  23.094  0.00  0.00    -0.025 A 
ATOM     72  C   UNL     1       5.739  -3.606  23.639  0.00  0.00    +0.011 A 
ATOM     73  C   UNL     1       4.614  -4.395  23.434  0.00  0.00    +0.046 A 
ATOM     74  C   UNL     1       4.731  -5.574  22.707  0.00  0.00    +0.117 A 
ATOM     75  C   UNL     1       5.962  -5.971  22.197  0.00  0.00    +0.046 A 
ATOM     76  C   UNL     1       7.095  -5.166  22.392  0.00  0.00    +0.011 A 
BRANCH  74  77
ATOM     77  O   UNL     1       3.602  -6.304  22.518  0.00  0.00    -0.507 OA
ATOM     78  H   UNL     1       3.829  -7.246  22.556  0.00  0.00    +0.292 HD
ENDBRANCH  74  77
ENDBRANCH  70  71
ENDBRANCH  67  69
ENDBRANCH  66  67
ENDBRANCH  65  66
ENDBRANCH  55  65
ENDBRANCH  52  53
ENDBRANCH  45  52
ENDBRANCH   1  44
TORSDOF 26
ENDMDL
MODEL 3
REMARK VINA RESULT:      -6.2      2.567     10.383
REMARK  Name = 
REMARK  27 active torsions:
REMARK  status: ('A' for Active; 'I' for Inactive)
REMARK    1  A    between atoms: C_1  and  C_2
REMARK    2  A    between atoms: C_3  and  O_74
REMARK    3  A    between atoms: C_5  and  O_73
REMARK    4  A    between atoms: C_6  and  O_47
REMARK    5  A    between atoms: C_8  and  O_11
REMARK    6  A    between atoms: O_11  and  C_12
REMARK    7  A    between atoms: C_13  and  C_39
REMARK    8  A    between atoms: C_17  and  O_24
REMARK    9  A    between atoms: C_19  and  O_23
REMARK   10  A    between atoms: O_24  and  C_25
REMARK   11  A    between atoms: C_27  and  O_38
REMARK   12  A    between atoms: C_28  and  O_37
REMARK   13  A    between atoms: C_29  and  O_36
REMARK   14  A    between atoms: C_31  and  C_34
REMARK   15  A    between atoms: C_34  and  O_35
REMARK   16  A    between atoms: C_41  and  O_46
REMARK   17  A    between atoms: C_42  and  O_45
REMARK   18  A    between atoms: O_47  and  C_48
REMARK   19  A    between atoms: C_50  and  O_72
REMARK   20  A    between atoms: C_52  and  O_71
REMARK   21  A    between atoms: C_53  and  O_70
REMARK   22  A    between atoms: C_55  and  C_57
REMARK   23  A    between atoms: C_57  and  O_58
REMARK   24  A    between atoms: O_58  and  C_59
REMARK   25  A    between atoms: C_59  and  C_61
REMARK   26  A    between atoms: C_62  and  C_63
REMARK   27  A    between atoms: C_66  and  O_69
REMARK                            x       y       z     vdW  Elec       q    Type
REMARK                         _______ _______ _______ _____ _____    ______ ____
ROOT
ATOM      1  O   UNL     1       4.657   2.222  25.365  0.00  0.00    -0.453 OA
ENDROOT
BRANCH   1   2
ATOM      2  C   UNL     1       4.551   1.257  26.372  0.00  0.00    +0.214 A 
ATOM      3  C   UNL     1       3.234   1.006  27.068  0.00  0.00    +0.238 A 
ATOM      4  O   UNL     1       2.577   1.942  27.512  0.00  0.00    -0.283 OA
ATOM      5  C   UNL     1       2.785  -0.412  27.206  0.00  0.00    +0.109 A 
ATOM      6  C   UNL     1       3.756  -1.383  26.992  0.00  0.00    +0.147 A 
ATOM      7  C   UNL     1       3.405  -2.754  26.925  0.00  0.00    +0.093 A 
ATOM      8  C   UNL     1       2.081  -3.176  27.122  0.00  0.00    +0.131 A 
ATOM      9  C   UNL     1       1.132  -2.213  27.467  0.00  0.00    +0.092 A 
ATOM     10  O   UNL     1       5.097  -1.054  26.899  0.00  0.00    -0.451 OA
ATOM     11  C   UNL     1       1.468  -0.853  27.489  0.00  0.00    +0.135 A 
ATOM     12  C   UNL     1       5.455   0.226  26.453  0.00  0.00    +0.181 A 
BRANCH  12  13
ATOM     13  C   UNL     1       6.912   0.351  26.085  0.00  0.00    +0.025 A 
ATOM     14  C   UNL     1       7.709  -0.793  25.924  0.00  0.00    +0.015 A 
ATOM     15  C   UNL     1       9.055  -0.780  25.576  0.00  0.00    +0.050 A 
ATOM     16  C   UNL     1       9.626   0.421  25.235  0.00  0.00    +0.158 A 
ATOM     17  C   UNL     1       8.868   1.586  25.292  0.00  0.00    +0.159 A 
ATOM     18  C   UNL     1       7.531   1.570  25.735  0.00  0.00    +0.060 A 
BRANCH  17  19
ATOM     19  O   UNL     1       9.485   2.729  24.860  0.00  0.00    -0.503 OA
ATOM     20  H   UNL     1      10.405   2.525  24.640  0.00  0.00    +0.292 HD
ENDBRANCH  17  19
BRANCH  16  21
ATOM     21  O   UNL     1      10.906   0.421  24.780  0.00  0.00    -0.503 OA
ATOM     22  H   UNL     1      10.994   1.246  24.267  0.00  0.00    +0.292 HD
ENDBRANCH  16  21
ENDBRANCH  12  13
BRANCH  11  23
ATOM     23  O   UNL     1       0.475   0.052  27.773  0.00  0.00    -0.506 OA
ATOM     24  H   UNL     1       0.867   0.873  28.126  0.00  0.00    +0.292 HD
ENDBRANCH  11  23
BRANCH   8  25
ATOM     25  O   UNL     1       1.610  -4.478  27.007  0.00  0.00    -0.461 OA
BRANCH  25  26
ATOM     26  C   UNL     1       2.633  -5.495  26.927  0.00  0.00    +0.339 C 
ATOM     27  O   UNL     1       3.074  -5.685  25.583  0.00  0.00    -0.331 OA
ATOM     28  C   UNL     1       2.101  -6.332  24.741  0.00  0.00    +0.179 C 
ATOM     29  C   UNL     1       1.848  -7.760  25.238  0.00  0.00    +0.177 C 
ATOM     30  C   UNL     1       1.306  -7.700  26.666  0.00  0.00    +0.180 C 
ATOM     31  C   UNL     1       2.222  -6.852  27.566  0.00  0.00    +0.214 C 
BRANCH  31  32
ATOM     32  O   UNL     1       1.641  -6.714  28.868  0.00  0.00    -0.383 OA
ATOM     33  H   UNL     1       0.691  -6.918  28.794  0.00  0.00    +0.210 HD
ENDBRANCH  31  32
BRANCH  30  34
ATOM     34  O   UNL     1       1.193  -9.054  27.146  0.00  0.00    -0.386 OA
ATOM     35  H   UNL     1       1.457  -9.656  26.425  0.00  0.00    +0.210 HD
ENDBRANCH  30  34
BRANCH  29  36
ATOM     36  O   UNL     1       3.068  -8.518  25.233  0.00  0.00    -0.386 OA
ATOM     37  H   UNL     1       3.351  -8.569  24.299  0.00  0.00    +0.210 HD
ENDBRANCH  29  36
BRANCH  28  38
ATOM     38  C   UNL     1       2.634  -6.325  23.304  0.00  0.00    +0.190 C 
BRANCH  38  39
ATOM     39  O   UNL     1       2.277  -7.526  22.618  0.00  0.00    -0.392 OA
ATOM     40  H   UNL     1       2.268  -7.357  21.660  0.00  0.00    +0.210 HD
ENDBRANCH  38  39
ENDBRANCH  28  38
ENDBRANCH  25  26
ENDBRANCH   8  25
ENDBRANCH   1   2
BRANCH   1  44
ATOM     41  C   UNL     1       1.115   2.851  22.817  0.00  0.00    +0.041 C 
ATOM     42  C   UNL     1       2.531   3.295  22.473  0.00  0.00    +0.150 C 
ATOM     43  O   UNL     1       3.564   2.623  23.228  0.00  0.00    -0.334 OA
ATOM     44  C   UNL     1       3.611   2.912  24.627  0.00  0.00    +0.340 C 
ATOM     45  C   UNL     1       3.767   4.496  24.878  0.00  0.00    +0.221 C 
ATOM     46  C   UNL     1       2.738   5.267  24.035  0.00  0.00    +0.180 C 
ATOM     47  C   UNL     1       2.665   4.822  22.559  0.00  0.00    +0.174 C 
BRANCH  47  48
ATOM     48  O   UNL     1       3.784   5.200  21.757  0.00  0.00    -0.387 OA
ATOM     49  H   UNL     1       3.722   6.166  21.584  0.00  0.00    +0.210 HD
ENDBRANCH  47  48
BRANCH  46  50
ATOM     50  O   UNL     1       2.840   6.684  24.194  0.00  0.00    -0.386 OA
ATOM     51  H   UNL     1       2.081   6.995  24.717  0.00  0.00    +0.210 HD
ENDBRANCH  46  50
BRANCH  45  52
ATOM     52  O   UNL     1       5.080   5.131  24.919  0.00  0.00    -0.337 OA
BRANCH  52  53
ATOM     53  C   UNL     1       5.366   6.086  25.938  0.00  0.00    +0.282 C 
ATOM     54  O   UNL     1       6.382   6.978  25.493  0.00  0.00    -0.339 OA
ATOM     55  C   UNL     1       7.598   6.247  25.226  0.00  0.00    +0.190 C 
ATOM     56  C   UNL     1       8.173   5.642  26.508  0.00  0.00    +0.178 C 
ATOM     57  C   UNL     1       7.106   4.728  27.149  0.00  0.00    +0.179 C 
ATOM     58  C   UNL     1       5.774   5.466  27.295  0.00  0.00    +0.201 C 
BRANCH  58  59
ATOM     59  O   UNL     1       5.912   6.499  28.300  0.00  0.00    -0.384 OA
ATOM     60  H   UNL     1       6.525   7.170  27.925  0.00  0.00    +0.210 HD
ENDBRANCH  58  59
BRANCH  57  61
ATOM     61  O   UNL     1       7.568   4.288  28.433  0.00  0.00    -0.386 OA
ATOM     62  H   UNL     1       6.954   4.699  29.074  0.00  0.00    +0.210 HD
ENDBRANCH  57  61
BRANCH  56  63
ATOM     63  O   UNL     1       8.520   6.658  27.460  0.00  0.00    -0.386 OA
ATOM     64  H   UNL     1       9.497   6.689  27.444  0.00  0.00    +0.210 HD
ENDBRANCH  56  63
BRANCH  55  65
ATOM     65  C   UNL     1       8.491   7.091  24.316  0.00  0.00    +0.266 C 
BRANCH  65  66
ATOM     66  O   UNL     1       8.692   6.638  22.985  0.00  0.00    -0.459 OA
BRANCH  66  67
ATOM     67  C   UNL     1       7.641   5.940  22.508  0.00  0.00    +0.332 C 
ATOM     68  O   UNL     1       6.539   6.390  22.227  0.00  0.00    -0.246 OA
BRANCH  67  69
ATOM     69  C   UNL     1       7.951   4.529  22.327  0.00  0.00    +0.092 C 
ATOM     70  C   UNL     1       7.070   3.530  22.188  0.00  0.00    +0.015 C 
BRANCH  70  71
ATOM     71  C   UNL     1       7.535   2.139  22.078  0.00  0.00    -0.025 A 
ATOM     72  C   UNL     1       8.806   1.858  21.554  0.00  0.00    +0.011 A 
ATOM     73  C   UNL     1       9.288   0.556  21.493  0.00  0.00    +0.046 A 
ATOM     74  C   UNL     1       8.481  -0.490  21.924  0.00  0.00    +0.117 A 
ATOM     75  C   UNL     1       7.199  -0.245  22.402  0.00  0.00    +0.046 A 
ATOM     76  C   UNL     1       6.719   1.072  22.477  0.00  0.00    +0.011 A 
BRANCH  74  77
ATOM     77  O   UNL     1       9.000  -1.744  21.860  0.00  0.00    -0.507 OA
ATOM     78  H   UNL     1       9.015  -2.030  20.933  0.00  0.00    +0.292 HD
ENDBRANCH  74  77
ENDBRANCH  70  71
ENDBRANCH  67  69
ENDBRANCH  66  67
ENDBRANCH  65  66
ENDBRANCH  55  65
ENDBRANCH  52  53
ENDBRANCH  45  52
ENDBRANCH   1  44
TORSDOF 26
ENDMDL
MODEL 4
REMARK VINA RESULT:      -6.0      2.666      9.522
REMARK  Name = 
REMARK  27 active torsions:
REMARK  status: ('A' for Active; 'I' for Inactive)
REMARK    1  A    between atoms: C_1  and  C_2
REMARK    2  A    between atoms: C_3  and  O_74
REMARK    3  A    between atoms: C_5  and  O_73
REMARK    4  A    between atoms: C_6  and  O_47
REMARK    5  A    between atoms: C_8  and  O_11
REMARK    6  A    between atoms: O_11  and  C_12
REMARK    7  A    between atoms: C_13  and  C_39
REMARK    8  A    between atoms: C_17  and  O_24
REMARK    9  A    between atoms: C_19  and  O_23
REMARK   10  A    between atoms: O_24  and  C_25
REMARK   11  A    between atoms: C_27  and  O_38
REMARK   12  A    between atoms: C_28  and  O_37
REMARK   13  A    between atoms: C_29  and  O_36
REMARK   14  A    between atoms: C_31  and  C_34
REMARK   15  A    between atoms: C_34  and  O_35
REMARK   16  A    between atoms: C_41  and  O_46
REMARK   17  A    between atoms: C_42  and  O_45
REMARK   18  A    between atoms: O_47  and  C_48
REMARK   19  A    between atoms: C_50  and  O_72
REMARK   20  A    between atoms: C_52  and  O_71
REMARK   21  A    between atoms: C_53  and  O_70
REMARK   22  A    between atoms: C_55  and  C_57
REMARK   23  A    between atoms: C_57  and  O_58
REMARK   24  A    between atoms: O_58  and  C_59
REMARK   25  A    between atoms: C_59  and  C_61
REMARK   26  A    between atoms: C_62  and  C_63
REMARK   27  A    between atoms: C_66  and  O_69
REMARK                            x       y       z     vdW  Elec       q    Type
REMARK                         _______ _______ _______ _____ _____    ______ ____
ROOT
ATOM      1  O   UNL     1       4.026   2.742  25.708  0.00  0.00    -0.453 OA
ENDROOT
BRANCH   1   2
ATOM      2  C   UNL     1       3.481   2.073  26.809  0.00  0.00    +0.214 A 
ATOM      3  C   UNL     1       2.318   1.125  26.639  0.00  0.00    +0.238 A 
ATOM      4  O   UNL     1       1.325   1.465  26.004  0.00  0.00    -0.283 OA
ATOM      5  C   UNL     1       2.421  -0.217  27.287  0.00  0.00    +0.109 A 
ATOM      6  C   UNL     1       3.409  -0.353  28.255  0.00  0.00    +0.147 A 
ATOM      7  C   UNL     1       3.710  -1.622  28.807  0.00  0.00    +0.093 A 
ATOM      8  C   UNL     1       2.991  -2.767  28.432  0.00  0.00    +0.131 A 
ATOM      9  C   UNL     1       1.914  -2.607  27.559  0.00  0.00    +0.092 A 
ATOM     10  O   UNL     1       4.084   0.746  28.756  0.00  0.00    -0.451 OA
ATOM     11  C   UNL     1       1.643  -1.361  26.979  0.00  0.00    +0.135 A 
ATOM     12  C   UNL     1       4.220   1.887  27.951  0.00  0.00    +0.181 A 
BRANCH  12  13
ATOM     13  C   UNL     1       5.238   2.872  28.467  0.00  0.00    +0.025 A 
ATOM     14  C   UNL     1       4.995   4.253  28.403  0.00  0.00    +0.015 A 
ATOM     15  C   UNL     1       5.865   5.235  28.861  0.00  0.00    +0.050 A 
ATOM     16  C   UNL     1       6.987   4.839  29.546  0.00  0.00    +0.158 A 
ATOM     17  C   UNL     1       7.247   3.483  29.719  0.00  0.00    +0.159 A 
ATOM     18  C   UNL     1       6.405   2.498  29.169  0.00  0.00    +0.060 A 
BRANCH  17  19
ATOM     19  O   UNL     1       8.342   3.172  30.481  0.00  0.00    -0.503 OA
ATOM     20  H   UNL     1       8.043   2.789  31.318  0.00  0.00    +0.292 HD
ENDBRANCH  17  19
BRANCH  16  21
ATOM     21  O   UNL     1       7.778   5.796  30.098  0.00  0.00    -0.503 OA
ATOM     22  H   UNL     1       7.620   5.734  31.059  0.00  0.00    +0.292 HD
ENDBRANCH  16  21
ENDBRANCH  12  13
BRANCH  11  23
ATOM     23  O   UNL     1       0.610  -1.281  26.079  0.00  0.00    -0.506 OA
ATOM     24  H   UNL     1      -0.175  -1.741  26.434  0.00  0.00    +0.292 HD
ENDBRANCH  11  23
BRANCH   8  25
ATOM     25  O   UNL     1       3.246  -4.068  28.849  0.00  0.00    -0.461 OA
BRANCH  25  26
ATOM     26  C   UNL     1       4.612  -4.331  29.239  0.00  0.00    +0.339 C 
ATOM     27  O   UNL     1       5.535  -3.796  28.290  0.00  0.00    -0.331 OA
ATOM     28  C   UNL     1       5.557  -4.511  27.040  0.00  0.00    +0.179 C 
ATOM     29  C   UNL     1       6.064  -5.940  27.264  0.00  0.00    +0.177 C 
ATOM     30  C   UNL     1       5.117  -6.657  28.226  0.00  0.00    +0.180 C 
ATOM     31  C   UNL     1       4.912  -5.833  29.510  0.00  0.00    +0.214 C 
BRANCH  31  32
ATOM     32  O   UNL     1       3.938  -6.464  30.349  0.00  0.00    -0.383 OA
ATOM     33  H   UNL     1       3.762  -5.869  31.101  0.00  0.00    +0.210 HD
ENDBRANCH  31  32
BRANCH  30  34
ATOM     34  O   UNL     1       5.684  -7.952  28.510  0.00  0.00    -0.386 OA
ATOM     35  H   UNL     1       6.649  -7.897  28.379  0.00  0.00    +0.210 HD
ENDBRANCH  30  34
BRANCH  29  36
ATOM     36  O   UNL     1       7.384  -5.923  27.830  0.00  0.00    -0.386 OA
ATOM     37  H   UNL     1       7.741  -5.030  27.659  0.00  0.00    +0.210 HD
ENDBRANCH  29  36
BRANCH  28  38
ATOM     38  C   UNL     1       6.459  -3.742  26.067  0.00  0.00    +0.190 C 
BRANCH  38  39
ATOM     39  O   UNL     1       7.700  -3.394  26.685  0.00  0.00    -0.392 OA
ATOM     40  H   UNL     1       7.545  -2.692  27.340  0.00  0.00    +0.210 HD
ENDBRANCH  38  39
ENDBRANCH  28  38
ENDBRANCH  25  26
ENDBRANCH   8  25
ENDBRANCH   1   2
BRANCH   1  44
ATOM     41  C   UNL     1       1.468   6.172  24.648  0.00  0.00    +0.041 C 
ATOM     42  C   UNL     1       1.775   4.994  23.732  0.00  0.00    +0.150 C 
ATOM     43  O   UNL     1       2.265   3.821  24.420  0.00  0.00    -0.334 OA
ATOM     44  C   UNL     1       3.557   3.935  25.020  0.00  0.00    +0.340 C 
ATOM     45  C   UNL     1       4.660   4.362  23.925  0.00  0.00    +0.221 C 
ATOM     46  C   UNL     1       4.155   5.564  23.110  0.00  0.00    +0.180 C 
ATOM     47  C   UNL     1       2.709   5.416  22.589  0.00  0.00    +0.174 C 
BRANCH  47  48
ATOM     48  O   UNL     1       2.542   4.473  21.530  0.00  0.00    -0.387 OA
ATOM     49  H   UNL     1       3.216   4.667  20.841  0.00  0.00    +0.210 HD
ENDBRANCH  47  48
BRANCH  46  50
ATOM     50  O   UNL     1       5.080   5.979  22.101  0.00  0.00    -0.386 OA
ATOM     51  H   UNL     1       4.580   6.299  21.331  0.00  0.00    +0.210 HD
ENDBRANCH  46  50
BRANCH  45  52
ATOM     52  O   UNL     1       5.356   3.363  23.122  0.00  0.00    -0.337 OA
BRANCH  52  53
ATOM     53  C   UNL     1       6.768   3.463  22.947  0.00  0.00    +0.282 C 
ATOM     54  O   UNL     1       7.344   2.162  22.914  0.00  0.00    -0.339 OA
ATOM     55  C   UNL     1       7.105   1.485  24.167  0.00  0.00    +0.190 C 
ATOM     56  C   UNL     1       7.830   2.181  25.320  0.00  0.00    +0.178 C 
ATOM     57  C   UNL     1       7.362   3.651  25.386  0.00  0.00    +0.179 C 
ATOM     58  C   UNL     1       7.482   4.322  24.017  0.00  0.00    +0.201 C 
BRANCH  58  59
ATOM     59  O   UNL     1       8.882   4.479  23.686  0.00  0.00    -0.384 OA
ATOM     60  H   UNL     1       8.949   4.375  22.710  0.00  0.00    +0.210 HD
ENDBRANCH  58  59
BRANCH  57  61
ATOM     61  O   UNL     1       8.154   4.357  26.351  0.00  0.00    -0.386 OA
ATOM     62  H   UNL     1       8.778   4.891  25.819  0.00  0.00    +0.210 HD
ENDBRANCH  57  61
BRANCH  56  63
ATOM     63  O   UNL     1       9.252   2.174  25.129  0.00  0.00    -0.386 OA
ATOM     64  H   UNL     1       9.484   3.107  24.955  0.00  0.00    +0.210 HD
ENDBRANCH  56  63
BRANCH  55  65
ATOM     65  C   UNL     1       7.280  -0.020  23.956  0.00  0.00    +0.266 C 
BRANCH  65  66
ATOM     66  O   UNL     1       8.560  -0.485  23.557  0.00  0.00    -0.459 OA
BRANCH  66  67
ATOM     67  C   UNL     1       8.506  -1.319  22.499  0.00  0.00    +0.332 C 
ATOM     68  O   UNL     1       9.046  -1.150  21.414  0.00  0.00    -0.246 OA
BRANCH  67  69
ATOM     69  C   UNL     1       7.721  -2.513  22.775  0.00  0.00    +0.092 C 
ATOM     70  C   UNL     1       6.574  -2.870  22.182  0.00  0.00    +0.015 C 
BRANCH  70  71
ATOM     71  C   UNL     1       5.859  -4.079  22.615  0.00  0.00    -0.025 A 
ATOM     72  C   UNL     1       6.507  -5.325  22.609  0.00  0.00    +0.011 A 
ATOM     73  C   UNL     1       5.868  -6.471  23.067  0.00  0.00    +0.046 A 
ATOM     74  C   UNL     1       4.552  -6.389  23.504  0.00  0.00    +0.117 A 
ATOM     75  C   UNL     1       3.870  -5.178  23.476  0.00  0.00    +0.046 A 
ATOM     76  C   UNL     1       4.521  -4.018  23.027  0.00  0.00    +0.011 A 
BRANCH  74  77
ATOM     77  O   UNL     1       3.974  -7.532  23.958  0.00  0.00    -0.507 OA
ATOM     78  H   UNL     1       3.062  -7.337  24.225  0.00  0.00    +0.292 HD
ENDBRANCH  74  77
ENDBRANCH  70  71
ENDBRANCH  67  69
ENDBRANCH  66  67
ENDBRANCH  65  66
ENDBRANCH  55  65
ENDBRANCH  52  53
ENDBRANCH  45  52
ENDBRANCH   1  44
TORSDOF 26
ENDMDL
MODEL 5
REMARK VINA RESULT:      -5.8      2.013      9.621
REMARK  Name = 
REMARK  27 active torsions:
REMARK  status: ('A' for Active; 'I' for Inactive)
REMARK    1  A    between atoms: C_1  and  C_2
REMARK    2  A    between atoms: C_3  and  O_74
REMARK    3  A    between atoms: C_5  and  O_73
REMARK    4  A    between atoms: C_6  and  O_47
REMARK    5  A    between atoms: C_8  and  O_11
REMARK    6  A    between atoms: O_11  and  C_12
REMARK    7  A    between atoms: C_13  and  C_39
REMARK    8  A    between atoms: C_17  and  O_24
REMARK    9  A    between atoms: C_19  and  O_23
REMARK   10  A    between atoms: O_24  and  C_25
REMARK   11  A    between atoms: C_27  and  O_38
REMARK   12  A    between atoms: C_28  and  O_37
REMARK   13  A    between atoms: C_29  and  O_36
REMARK   14  A    between atoms: C_31  and  C_34
REMARK   15  A    between atoms: C_34  and  O_35
REMARK   16  A    between atoms: C_41  and  O_46
REMARK   17  A    between atoms: C_42  and  O_45
REMARK   18  A    between atoms: O_47  and  C_48
REMARK   19  A    between atoms: C_50  and  O_72
REMARK   20  A    between atoms: C_52  and  O_71
REMARK   21  A    between atoms: C_53  and  O_70
REMARK   22  A    between atoms: C_55  and  C_57
REMARK   23  A    between atoms: C_57  and  O_58
REMARK   24  A    between atoms: O_58  and  C_59
REMARK   25  A    between atoms: C_59  and  C_61
REMARK   26  A    between atoms: C_62  and  C_63
REMARK   27  A    between atoms: C_66  and  O_69
REMARK                            x       y       z     vdW  Elec       q    Type
REMARK                         _______ _______ _______ _____ _____    ______ ____
ROOT
ATOM      1  O   UNL     1       7.533   1.371  25.946  0.00  0.00    -0.453 OA
ENDROOT
BRANCH   1   2
ATOM      2  C   UNL     1       6.178   1.136  26.200  0.00  0.00    +0.214 A 
ATOM      3  C   UNL     1       5.434   0.040  25.473  0.00  0.00    +0.238 A 
ATOM      4  O   UNL     1       5.506  -0.057  24.252  0.00  0.00    -0.283 OA
ATOM      5  C   UNL     1       4.602  -0.891  26.293  0.00  0.00    +0.109 A 
ATOM      6  C   UNL     1       4.316  -0.475  27.588  0.00  0.00    +0.147 A 
ATOM      7  C   UNL     1       3.687  -1.351  28.506  0.00  0.00    +0.093 A 
ATOM      8  C   UNL     1       3.290  -2.641  28.125  0.00  0.00    +0.131 A 
ATOM      9  C   UNL     1       3.459  -3.010  26.789  0.00  0.00    +0.092 A 
ATOM     10  O   UNL     1       4.577   0.819  28.003  0.00  0.00    -0.451 OA
ATOM     11  C   UNL     1       4.121  -2.162  25.892  0.00  0.00    +0.135 A 
ATOM     12  C   UNL     1       5.606   1.540  27.380  0.00  0.00    +0.181 A 
BRANCH  12  13
ATOM     13  C   UNL     1       6.005   2.788  28.127  0.00  0.00    +0.025 A 
ATOM     14  C   UNL     1       6.718   2.702  29.334  0.00  0.00    +0.015 A 
ATOM     15  C   UNL     1       7.138   3.792  30.087  0.00  0.00    +0.050 A 
ATOM     16  C   UNL     1       6.967   5.049  29.561  0.00  0.00    +0.158 A 
ATOM     17  C   UNL     1       6.341   5.202  28.328  0.00  0.00    +0.159 A 
ATOM     18  C   UNL     1       5.837   4.094  27.619  0.00  0.00    +0.060 A 
BRANCH  17  19
ATOM     19  O   UNL     1       6.280   6.478  27.837  0.00  0.00    -0.503 OA
ATOM     20  H   UNL     1       5.515   6.927  28.224  0.00  0.00    +0.292 HD
ENDBRANCH  17  19
BRANCH  16  21
ATOM     21  O   UNL     1       7.482   6.108  30.238  0.00  0.00    -0.503 OA
ATOM     22  H   UNL     1       7.469   6.848  29.603  0.00  0.00    +0.292 HD
ENDBRANCH  16  21
ENDBRANCH  12  13
BRANCH  11  23
ATOM     23  O   UNL     1       4.313  -2.608  24.608  0.00  0.00    -0.506 OA
ATOM     24  H   UNL     1       4.118  -1.890  23.976  0.00  0.00    +0.292 HD
ENDBRANCH  11  23
BRANCH   8  25
ATOM     25  O   UNL     1       2.736  -3.607  28.956  0.00  0.00    -0.461 OA
BRANCH  25  26
ATOM     26  C   UNL     1       3.689  -4.389  29.708  0.00  0.00    +0.339 C 
ATOM     27  O   UNL     1       4.975  -4.380  29.088  0.00  0.00    -0.331 OA
ATOM     28  C   UNL     1       5.032  -5.140  27.866  0.00  0.00    +0.179 C 
ATOM     29  C   UNL     1       4.792  -6.624  28.163  0.00  0.00    +0.177 C 
ATOM     30  C   UNL     1       3.404  -6.788  28.782  0.00  0.00    +0.180 C 
ATOM     31  C   UNL     1       3.227  -5.848  29.988  0.00  0.00    +0.214 C 
BRANCH  31  32
ATOM     32  O   UNL     1       1.886  -5.933  30.485  0.00  0.00    -0.383 OA
ATOM     33  H   UNL     1       1.625  -6.872  30.480  0.00  0.00    +0.210 HD
ENDBRANCH  31  32
BRANCH  30  34
ATOM     34  O   UNL     1       3.256  -8.171  29.159  0.00  0.00    -0.386 OA
ATOM     35  H   UNL     1       3.881  -8.700  28.628  0.00  0.00    +0.210 HD
ENDBRANCH  30  34
BRANCH  29  36
ATOM     36  O   UNL     1       5.776  -7.120  29.083  0.00  0.00    -0.386 OA
ATOM     37  H   UNL     1       6.487  -6.450  29.107  0.00  0.00    +0.210 HD
ENDBRANCH  29  36
BRANCH  28  38
ATOM     38  C   UNL     1       6.407  -4.912  27.227  0.00  0.00    +0.190 C 
BRANCH  38  39
ATOM     39  O   UNL     1       6.829  -6.062  26.493  0.00  0.00    -0.392 OA
ATOM     40  H   UNL     1       7.557  -5.813  25.897  0.00  0.00    +0.210 HD
ENDBRANCH  38  39
ENDBRANCH  28  38
ENDBRANCH  25  26
ENDBRANCH   8  25
ENDBRANCH   1   2
BRANCH   1  44
ATOM     41  C   UNL     1       8.821   5.309  24.440  0.00  0.00    +0.041 C 
ATOM     42  C   UNL     1       7.869   4.364  23.717  0.00  0.00    +0.150 C 
ATOM     43  O   UNL     1       7.272   3.360  24.566  0.00  0.00    -0.334 OA
ATOM     44  C   UNL     1       8.158   2.369  25.091  0.00  0.00    +0.340 C 
ATOM     45  C   UNL     1       8.936   1.610  23.901  0.00  0.00    +0.221 C 
ATOM     46  C   UNL     1       9.528   2.635  22.921  0.00  0.00    +0.180 C 
ATOM     47  C   UNL     1       8.543   3.741  22.486  0.00  0.00    +0.174 C 
BRANCH  47  48
ATOM     48  O   UNL     1       7.508   3.314  21.601  0.00  0.00    -0.387 OA
ATOM     49  H   UNL     1       7.907   2.712  20.933  0.00  0.00    +0.210 HD
ENDBRANCH  47  48
BRANCH  46  50
ATOM     50  O   UNL     1      10.213   2.023  21.825  0.00  0.00    -0.386 OA
ATOM     51  H   UNL     1      10.541   1.153  22.108  0.00  0.00    +0.210 HD
ENDBRANCH  46  50
BRANCH  45  52
ATOM     52  O   UNL     1       8.360   0.440  23.245  0.00  0.00    -0.337 OA
BRANCH  52  53
ATOM     53  C   UNL     1       9.198  -0.667  22.923  0.00  0.00    +0.282 C 
ATOM     54  O   UNL     1       8.509  -1.557  22.052  0.00  0.00    -0.339 OA
ATOM     55  C   UNL     1       7.332  -2.076  22.708  0.00  0.00    +0.190 C 
ATOM     56  C   UNL     1       7.706  -2.948  23.908  0.00  0.00    +0.178 C 
ATOM     57  C   UNL     1       8.561  -2.111  24.884  0.00  0.00    +0.179 C 
ATOM     58  C   UNL     1       9.726  -1.444  24.152  0.00  0.00    +0.201 C 
BRANCH  58  59
ATOM     59  O   UNL     1      10.670  -2.460  23.738  0.00  0.00    -0.384 OA
ATOM     60  H   UNL     1      11.359  -1.999  23.208  0.00  0.00    +0.210 HD
ENDBRANCH  58  59
BRANCH  57  61
ATOM     61  O   UNL     1       9.057  -2.960  25.928  0.00  0.00    -0.386 OA
ATOM     62  H   UNL     1       9.319  -3.786  25.474  0.00  0.00    +0.210 HD
ENDBRANCH  57  61
BRANCH  56  63
ATOM     63  O   UNL     1       8.476  -4.092  23.509  0.00  0.00    -0.386 OA
ATOM     64  H   UNL     1       8.332  -4.163  22.545  0.00  0.00    +0.210 HD
ENDBRANCH  56  63
BRANCH  55  65
ATOM     65  C   UNL     1       6.372  -2.614  21.646  0.00  0.00    +0.266 C 
BRANCH  65  66
ATOM     66  O   UNL     1       5.217  -3.309  22.093  0.00  0.00    -0.459 OA
BRANCH  66  67
ATOM     67  C   UNL     1       5.317  -4.644  21.931  0.00  0.00    +0.332 C 
ATOM     68  O   UNL     1       6.140  -5.232  21.243  0.00  0.00    -0.246 OA
BRANCH  67  69
ATOM     69  C   UNL     1       4.319  -5.370  22.703  0.00  0.00    +0.092 C 
ATOM     70  C   UNL     1       4.409  -5.722  23.993  0.00  0.00    +0.015 C 
BRANCH  70  71
ATOM     71  C   UNL     1       3.342  -6.515  24.622  0.00  0.00    -0.025 A 
ATOM     72  C   UNL     1       3.368  -7.916  24.556  0.00  0.00    +0.011 A 
ATOM     73  C   UNL     1       2.400  -8.686  25.190  0.00  0.00    +0.046 A 
ATOM     74  C   UNL     1       1.367  -8.055  25.871  0.00  0.00    +0.117 A 
ATOM     75  C   UNL     1       1.289  -6.667  25.912  0.00  0.00    +0.046 A 
ATOM     76  C   UNL     1       2.275  -5.891  25.283  0.00  0.00    +0.011 A 
BRANCH  74  77
ATOM     77  O   UNL     1       0.453  -8.848  26.490  0.00  0.00    -0.507 OA
ATOM     78  H   UNL     1      -0.436  -8.559  26.234  0.00  0.00    +0.292 HD
ENDBRANCH  74  77
ENDBRANCH  70  71
ENDBRANCH  67  69
ENDBRANCH  66  67
ENDBRANCH  65  66
ENDBRANCH  55  65
ENDBRANCH  52  53
ENDBRANCH  45  52
ENDBRANCH   1  44
TORSDOF 26
ENDMDL
MODEL 6
REMARK VINA RESULT:      -5.4      1.951      5.198
REMARK  Name = 
REMARK  27 active torsions:
REMARK  status: ('A' for Active; 'I' for Inactive)
REMARK    1  A    between atoms: C_1  and  C_2
REMARK    2  A    between atoms: C_3  and  O_74
REMARK    3  A    between atoms: C_5  and  O_73
REMARK    4  A    between atoms: C_6  and  O_47
REMARK    5  A    between atoms: C_8  and  O_11
REMARK    6  A    between atoms: O_11  and  C_12
REMARK    7  A    between atoms: C_13  and  C_39
REMARK    8  A    between atoms: C_17  and  O_24
REMARK    9  A    between atoms: C_19  and  O_23
REMARK   10  A    between atoms: O_24  and  C_25
REMARK   11  A    between atoms: C_27  and  O_38
REMARK   12  A    between atoms: C_28  and  O_37
REMARK   13  A    between atoms: C_29  and  O_36
REMARK   14  A    between atoms: C_31  and  C_34
REMARK   15  A    between atoms: C_34  and  O_35
REMARK   16  A    between atoms: C_41  and  O_46
REMARK   17  A    between atoms: C_42  and  O_45
REMARK   18  A    between atoms: O_47  and  C_48
REMARK   19  A    between atoms: C_50  and  O_72
REMARK   20  A    between atoms: C_52  and  O_71
REMARK   21  A    between atoms: C_53  and  O_70
REMARK   22  A    between atoms: C_55  and  C_57
REMARK   23  A    between atoms: C_57  and  O_58
REMARK   24  A    between atoms: O_58  and  C_59
REMARK   25  A    between atoms: C_59  and  C_61
REMARK   26  A    between atoms: C_62  and  C_63
REMARK   27  A    between atoms: C_66  and  O_69
REMARK                            x       y       z     vdW  Elec       q    Type
REMARK                         _______ _______ _______ _____ _____    ______ ____
ROOT
ATOM      1  O   UNL     1       4.705  -2.413  26.508  0.00  0.00    -0.453 OA
ENDROOT
BRANCH   1   2
ATOM      2  C   UNL     1       5.858  -1.810  27.022  0.00  0.00    +0.214 A 
ATOM      3  C   UNL     1       7.230  -2.286  26.607  0.00  0.00    +0.238 A 
ATOM      4  O   UNL     1       7.509  -3.481  26.633  0.00  0.00    -0.283 OA
ATOM      5  C   UNL     1       8.224  -1.252  26.191  0.00  0.00    +0.109 A 
ATOM      6  C   UNL     1       7.920   0.060  26.537  0.00  0.00    +0.147 A 
ATOM      7  C   UNL     1       8.699   1.136  26.044  0.00  0.00    +0.093 A 
ATOM      8  C   UNL     1       9.823   0.910  25.237  0.00  0.00    +0.131 A 
ATOM      9  C   UNL     1      10.203  -0.412  24.998  0.00  0.00    +0.092 A 
ATOM     10  O   UNL     1       6.894   0.354  27.418  0.00  0.00    -0.451 OA
ATOM     11  C   UNL     1       9.409  -1.476  25.447  0.00  0.00    +0.135 A 
ATOM     12  C   UNL     1       5.815  -0.535  27.528  0.00  0.00    +0.181 A 
BRANCH  12  13
ATOM     13  C   UNL     1       4.628   0.045  28.256  0.00  0.00    +0.025 A 
ATOM     14  C   UNL     1       4.630   0.154  29.655  0.00  0.00    +0.015 A 
ATOM     15  C   UNL     1       3.591   0.682  30.412  0.00  0.00    +0.050 A 
ATOM     16  C   UNL     1       2.537   1.263  29.750  0.00  0.00    +0.158 A 
ATOM     17  C   UNL     1       2.512   1.264  28.360  0.00  0.00    +0.159 A 
ATOM     18  C   UNL     1       3.527   0.643  27.607  0.00  0.00    +0.060 A 
BRANCH  17  19
ATOM     19  O   UNL     1       1.469   1.933  27.776  0.00  0.00    -0.503 OA
ATOM     20  H   UNL     1       1.389   2.807  28.183  0.00  0.00    +0.292 HD
ENDBRANCH  17  19
BRANCH  16  21
ATOM     21  O   UNL     1       1.578   1.886  30.485  0.00  0.00    -0.503 OA
ATOM     22  H   UNL     1       0.736   1.495  30.187  0.00  0.00    +0.292 HD
ENDBRANCH  16  21
ENDBRANCH  12  13
BRANCH  11  23
ATOM     23  O   UNL     1       9.802  -2.752  25.127  0.00  0.00    -0.506 OA
ATOM     24  H   UNL     1       9.017  -3.301  24.938  0.00  0.00    +0.292 HD
ENDBRANCH  11  23
BRANCH   8  25
ATOM     25  O   UNL     1      10.612   1.885  24.639  0.00  0.00    -0.461 OA
BRANCH  25  26
ATOM     26  C   UNL     1       9.930   2.723  23.680  0.00  0.00    +0.339 C 
ATOM     27  O   UNL     1      10.853   3.358  22.795  0.00  0.00    -0.331 OA
ATOM     28  C   UNL     1      11.637   4.390  23.422  0.00  0.00    +0.179 C 
ATOM     29  C   UNL     1      10.727   5.539  23.869  0.00  0.00    +0.177 C 
ATOM     30  C   UNL     1       9.715   5.004  24.882  0.00  0.00    +0.180 C 
ATOM     31  C   UNL     1       8.979   3.772  24.325  0.00  0.00    +0.214 C 
BRANCH  31  32
ATOM     32  O   UNL     1       8.118   3.218  25.327  0.00  0.00    -0.383 OA
ATOM     33  H   UNL     1       7.323   3.779  25.380  0.00  0.00    +0.210 HD
ENDBRANCH  31  32
BRANCH  30  34
ATOM     34  O   UNL     1       8.800   6.074  25.192  0.00  0.00    -0.386 OA
ATOM     35  H   UNL     1       7.947   5.880  24.760  0.00  0.00    +0.210 HD
ENDBRANCH  30  34
BRANCH  29  36
ATOM     36  O   UNL     1      10.019   6.088  22.747  0.00  0.00    -0.386 OA
ATOM     37  H   UNL     1       9.145   5.651  22.738  0.00  0.00    +0.210 HD
ENDBRANCH  29  36
BRANCH  28  38
ATOM     38  C   UNL     1      12.688   4.869  22.413  0.00  0.00    +0.190 C 
BRANCH  38  39
ATOM     39  O   UNL     1      13.959   5.043  23.040  0.00  0.00    -0.392 OA
ATOM     40  H   UNL     1      13.941   5.850  23.582  0.00  0.00    +0.210 HD
ENDBRANCH  38  39
ENDBRANCH  28  38
ENDBRANCH  25  26
ENDBRANCH   8  25
ENDBRANCH   1   2
BRANCH   1  44
ATOM     41  C   UNL     1       1.289  -3.232  29.171  0.00  0.00    +0.041 C 
ATOM     42  C   UNL     1       2.685  -3.824  29.330  0.00  0.00    +0.150 C 
ATOM     43  O   UNL     1       3.718  -3.103  28.623  0.00  0.00    -0.334 OA
ATOM     44  C   UNL     1       3.655  -3.149  27.196  0.00  0.00    +0.340 C 
ATOM     45  C   UNL     1       3.670  -4.672  26.671  0.00  0.00    +0.221 C 
ATOM     46  C   UNL     1       2.637  -5.506  27.447  0.00  0.00    +0.180 C 
ATOM     47  C   UNL     1       2.691  -5.319  28.979  0.00  0.00    +0.174 C 
BRANCH  47  48
ATOM     48  O   UNL     1       3.824  -5.904  29.620  0.00  0.00    -0.387 OA
ATOM     49  H   UNL     1       4.614  -5.731  29.060  0.00  0.00    +0.210 HD
ENDBRANCH  47  48
BRANCH  46  50
ATOM     50  O   UNL     1       2.616  -6.878  27.045  0.00  0.00    -0.386 OA
ATOM     51  H   UNL     1       3.398  -7.324  27.415  0.00  0.00    +0.210 HD
ENDBRANCH  46  50
BRANCH  45  52
ATOM     52  O   UNL     1       4.923  -5.377  26.426  0.00  0.00    -0.337 OA
BRANCH  52  53
ATOM     53  C   UNL     1       5.003  -6.315  25.355  0.00  0.00    +0.282 C 
ATOM     54  O   UNL     1       6.113  -6.002  24.521  0.00  0.00    -0.339 OA
ATOM     55  C   UNL     1       5.942  -4.690  23.943  0.00  0.00    +0.190 C 
ATOM     56  C   UNL     1       4.745  -4.656  22.991  0.00  0.00    +0.178 C 
ATOM     57  C   UNL     1       3.482  -5.090  23.767  0.00  0.00    +0.179 C 
ATOM     58  C   UNL     1       3.719  -6.412  24.498  0.00  0.00    +0.201 C 
BRANCH  58  59
ATOM     59  O   UNL     1       3.841  -7.476  23.526  0.00  0.00    -0.384 OA
ATOM     60  H   UNL     1       4.754  -7.419  23.164  0.00  0.00    +0.210 HD
ENDBRANCH  58  59
BRANCH  57  61
ATOM     61  O   UNL     1       2.387  -5.224  22.851  0.00  0.00    -0.386 OA
ATOM     62  H   UNL     1       1.764  -4.511  23.101  0.00  0.00    +0.210 HD
ENDBRANCH  57  61
BRANCH  56  63
ATOM     63  O   UNL     1       4.922  -5.557  21.889  0.00  0.00    -0.386 OA
ATOM     64  H   UNL     1       4.075  -6.040  21.824  0.00  0.00    +0.210 HD
ENDBRANCH  56  63
BRANCH  55  65
ATOM     65  C   UNL     1       7.304  -4.178  23.471  0.00  0.00    +0.266 C 
BRANCH  65  66
ATOM     66  O   UNL     1       7.364  -3.532  22.208  0.00  0.00    -0.459 OA
BRANCH  66  67
ATOM     67  C   UNL     1       8.068  -2.382  22.243  0.00  0.00    +0.332 C 
ATOM     68  O   UNL     1       9.263  -2.257  22.017  0.00  0.00    -0.246 OA
BRANCH  67  69
ATOM     69  C   UNL     1       7.235  -1.235  22.573  0.00  0.00    +0.092 C 
ATOM     70  C   UNL     1       7.581   0.056  22.475  0.00  0.00    +0.015 C 
BRANCH  70  71
ATOM     71  C   UNL     1       6.650   1.108  22.909  0.00  0.00    -0.025 A 
ATOM     72  C   UNL     1       5.853   0.922  24.049  0.00  0.00    +0.011 A 
ATOM     73  C   UNL     1       5.008   1.925  24.508  0.00  0.00    +0.046 A 
ATOM     74  C   UNL     1       4.923   3.120  23.804  0.00  0.00    +0.117 A 
ATOM     75  C   UNL     1       5.665   3.314  22.644  0.00  0.00    +0.046 A 
ATOM     76  C   UNL     1       6.529   2.306  22.189  0.00  0.00    +0.011 A 
BRANCH  74  77
ATOM     77  O   UNL     1       4.096   4.078  24.300  0.00  0.00    -0.507 OA
ATOM     78  H   UNL     1       4.625   4.853  24.542  0.00  0.00    +0.292 HD
ENDBRANCH  74  77
ENDBRANCH  70  71
ENDBRANCH  67  69
ENDBRANCH  66  67
ENDBRANCH  65  66
ENDBRANCH  55  65
ENDBRANCH  52  53
ENDBRANCH  45  52
ENDBRANCH   1  44
TORSDOF 26
ENDMDL
MODEL 7
REMARK VINA RESULT:      -5.4      2.646      5.506
REMARK  Name = 
REMARK  27 active torsions:
REMARK  status: ('A' for Active; 'I' for Inactive)
REMARK    1  A    between atoms: C_1  and  C_2
REMARK    2  A    between atoms: C_3  and  O_74
REMARK    3  A    between atoms: C_5  and  O_73
REMARK    4  A    between atoms: C_6  and  O_47
REMARK    5  A    between atoms: C_8  and  O_11
REMARK    6  A    between atoms: O_11  and  C_12
REMARK    7  A    between atoms: C_13  and  C_39
REMARK    8  A    between atoms: C_17  and  O_24
REMARK    9  A    between atoms: C_19  and  O_23
REMARK   10  A    between atoms: O_24  and  C_25
REMARK   11  A    between atoms: C_27  and  O_38
REMARK   12  A    between atoms: C_28  and  O_37
REMARK   13  A    between atoms: C_29  and  O_36
REMARK   14  A    between atoms: C_31  and  C_34
REMARK   15  A    between atoms: C_34  and  O_35
REMARK   16  A    between atoms: C_41  and  O_46
REMARK   17  A    between atoms: C_42  and  O_45
REMARK   18  A    between atoms: O_47  and  C_48
REMARK   19  A    between atoms: C_50  and  O_72
REMARK   20  A    between atoms: C_52  and  O_71
REMARK   21  A    between atoms: C_53  and  O_70
REMARK   22  A    between atoms: C_55  and  C_57
REMARK   23  A    between atoms: C_57  and  O_58
REMARK   24  A    between atoms: O_58  and  C_59
REMARK   25  A    between atoms: C_59  and  C_61
REMARK   26  A    between atoms: C_62  and  C_63
REMARK   27  A    between atoms: C_66  and  O_69
REMARK                            x       y       z     vdW  Elec       q    Type
REMARK                         _______ _______ _______ _____ _____    ______ ____
ROOT
ATOM      1  O   UNL     1       3.825  -2.795  27.742  0.00  0.00    -0.453 OA
ENDROOT
BRANCH   1   2
ATOM      2  C   UNL     1       2.683  -1.993  27.836  0.00  0.00    +0.214 A 
ATOM      3  C   UNL     1       2.711  -0.696  28.609  0.00  0.00    +0.238 A 
ATOM      4  O   UNL     1       3.169  -0.658  29.746  0.00  0.00    -0.283 OA
ATOM      5  C   UNL     1       2.145   0.516  27.943  0.00  0.00    +0.109 A 
ATOM      6  C   UNL     1       1.349   0.285  26.828  0.00  0.00    +0.147 A 
ATOM      7  C   UNL     1       0.906   1.361  26.020  0.00  0.00    +0.093 A 
ATOM      8  C   UNL     1       1.214   2.690  26.347  0.00  0.00    +0.131 A 
ATOM      9  C   UNL     1       1.901   2.929  27.537  0.00  0.00    +0.092 A 
ATOM     10  O   UNL     1       0.912  -0.988  26.505  0.00  0.00    -0.451 OA
ATOM     11  C   UNL     1       2.378   1.864  28.314  0.00  0.00    +0.135 A 
ATOM     12  C   UNL     1       1.678  -2.093  26.906  0.00  0.00    +0.181 A 
BRANCH  12  13
ATOM     13  C   UNL     1       1.284  -3.379  26.224  0.00  0.00    +0.025 A 
ATOM     14  C   UNL     1       1.386  -3.510  24.830  0.00  0.00    +0.015 A 
ATOM     15  C   UNL     1       1.058  -4.655  24.114  0.00  0.00    +0.050 A 
ATOM     16  C   UNL     1       0.734  -5.789  24.817  0.00  0.00    +0.158 A 
ATOM     17  C   UNL     1       0.695  -5.752  26.207  0.00  0.00    +0.159 A 
ATOM     18  C   UNL     1       0.940  -4.560  26.916  0.00  0.00    +0.060 A 
BRANCH  17  19
ATOM     19  O   UNL     1       0.443  -6.942  26.835  0.00  0.00    -0.503 OA
ATOM     20  H   UNL     1       1.248  -7.479  26.825  0.00  0.00    +0.292 HD
ENDBRANCH  17  19
BRANCH  16  21
ATOM     21  O   UNL     1       0.530  -6.941  24.126  0.00  0.00    -0.503 OA
ATOM     22  H   UNL     1       1.347  -7.459  24.245  0.00  0.00    +0.292 HD
ENDBRANCH  16  21
ENDBRANCH  12  13
BRANCH  11  23
ATOM     23  O   UNL     1       3.103   2.163  29.441  0.00  0.00    -0.506 OA
ATOM     24  H   UNL     1       3.534   1.356  29.781  0.00  0.00    +0.292 HD
ENDBRANCH  11  23
BRANCH   8  25
ATOM     25  O   UNL     1       0.899   3.813  25.592  0.00  0.00    -0.461 OA
BRANCH  25  26
ATOM     26  C   UNL     1       1.391   3.798  24.234  0.00  0.00    +0.339 C 
ATOM     27  O   UNL     1       2.597   3.042  24.127  0.00  0.00    -0.331 OA
ATOM     28  C   UNL     1       3.737   3.683  24.732  0.00  0.00    +0.179 C 
ATOM     29  C   UNL     1       4.063   4.981  23.985  0.00  0.00    +0.177 C 
ATOM     30  C   UNL     1       2.861   5.921  24.076  0.00  0.00    +0.180 C 
ATOM     31  C   UNL     1       1.574   5.213  23.615  0.00  0.00    +0.214 C 
BRANCH  31  32
ATOM     32  O   UNL     1       0.443   6.070  23.812  0.00  0.00    -0.383 OA
ATOM     33  H   UNL     1       0.602   6.591  24.620  0.00  0.00    +0.210 HD
ENDBRANCH  31  32
BRANCH  30  34
ATOM     34  O   UNL     1       3.150   7.078  23.266  0.00  0.00    -0.386 OA
ATOM     35  H   UNL     1       3.864   6.843  22.644  0.00  0.00    +0.210 HD
ENDBRANCH  30  34
BRANCH  29  36
ATOM     36  O   UNL     1       4.342   4.711  22.602  0.00  0.00    -0.386 OA
ATOM     37  H   UNL     1       5.119   4.118  22.594  0.00  0.00    +0.210 HD
ENDBRANCH  29  36
BRANCH  28  38
ATOM     38  C   UNL     1       4.913   2.701  24.689  0.00  0.00    +0.190 C 
BRANCH  38  39
ATOM     39  O   UNL     1       4.818   1.834  23.558  0.00  0.00    -0.392 OA
ATOM     40  H   UNL     1       3.928   1.440  23.531  0.00  0.00    +0.210 HD
ENDBRANCH  38  39
ENDBRANCH  28  38
ENDBRANCH  25  26
ENDBRANCH   8  25
ENDBRANCH   1   2
BRANCH   1  44
ATOM     41  C   UNL     1       4.257  -6.219  30.485  0.00  0.00    +0.041 C 
ATOM     42  C   UNL     1       5.363  -5.667  29.592  0.00  0.00    +0.150 C 
ATOM     43  O   UNL     1       5.127  -4.323  29.120  0.00  0.00    -0.334 OA
ATOM     44  C   UNL     1       4.044  -4.158  28.201  0.00  0.00    +0.340 C 
ATOM     45  C   UNL     1       4.237  -5.108  26.914  0.00  0.00    +0.221 C 
ATOM     46  C   UNL     1       4.568  -6.541  27.361  0.00  0.00    +0.180 C 
ATOM     47  C   UNL     1       5.670  -6.631  28.438  0.00  0.00    +0.174 C 
BRANCH  47  48
ATOM     48  O   UNL     1       6.990  -6.341  27.978  0.00  0.00    -0.387 OA
ATOM     49  H   UNL     1       6.917  -5.754  27.193  0.00  0.00    +0.210 HD
ENDBRANCH  47  48
BRANCH  46  50
ATOM     50  O   UNL     1       4.776  -7.431  26.261  0.00  0.00    -0.386 OA
ATOM     51  H   UNL     1       5.521  -7.103  25.730  0.00  0.00    +0.210 HD
ENDBRANCH  46  50
BRANCH  45  52
ATOM     52  O   UNL     1       5.006  -4.665  25.755  0.00  0.00    -0.337 OA
BRANCH  52  53
ATOM     53  C   UNL     1       5.048  -5.483  24.587  0.00  0.00    +0.282 C 
ATOM     54  O   UNL     1       6.349  -6.038  24.433  0.00  0.00    -0.339 OA
ATOM     55  C   UNL     1       7.319  -4.982  24.262  0.00  0.00    +0.190 C 
ATOM     56  C   UNL     1       7.085  -4.220  22.957  0.00  0.00    +0.178 C 
ATOM     57  C   UNL     1       5.646  -3.657  22.961  0.00  0.00    +0.179 C 
ATOM     58  C   UNL     1       4.633  -4.755  23.287  0.00  0.00    +0.201 C 
BRANCH  58  59
ATOM     59  O   UNL     1       4.575  -5.690  22.184  0.00  0.00    -0.384 OA
ATOM     60  H   UNL     1       4.782  -6.575  22.559  0.00  0.00    +0.210 HD
ENDBRANCH  58  59
BRANCH  57  61
ATOM     61  O   UNL     1       5.357  -3.086  21.678  0.00  0.00    -0.386 OA
ATOM     62  H   UNL     1       6.159  -2.575  21.446  0.00  0.00    +0.210 HD
ENDBRANCH  57  61
BRANCH  56  63
ATOM     63  O   UNL     1       7.225  -5.077  21.814  0.00  0.00    -0.386 OA
ATOM     64  H   UNL     1       7.418  -4.471  21.072  0.00  0.00    +0.210 HD
ENDBRANCH  56  63
BRANCH  55  65
ATOM     65  C   UNL     1       8.709  -5.532  24.583  0.00  0.00    +0.266 C 
BRANCH  65  66
ATOM     66  O   UNL     1       9.453  -4.889  25.608  0.00  0.00    -0.459 OA
BRANCH  66  67
ATOM     67  C   UNL     1       8.797  -3.844  26.150  0.00  0.00    +0.332 C 
ATOM     68  O   UNL     1       8.029  -3.884  27.101  0.00  0.00    -0.246 OA
BRANCH  67  69
ATOM     69  C   UNL     1       9.110  -2.588  25.484  0.00  0.00    +0.092 C 
ATOM     70  C   UNL     1       8.653  -1.373  25.814  0.00  0.00    +0.015 C 
BRANCH  70  71
ATOM     71  C   UNL     1       9.009  -0.200  25.003  0.00  0.00    -0.025 A 
ATOM     72  C   UNL     1      10.335   0.258  24.965  0.00  0.00    +0.011 A 
ATOM     73  C   UNL     1      10.703   1.331  24.162  0.00  0.00    +0.046 A 
ATOM     74  C   UNL     1       9.735   1.985  23.411  0.00  0.00    +0.117 A 
ATOM     75  C   UNL     1       8.405   1.583  23.466  0.00  0.00    +0.046 A 
ATOM     76  C   UNL     1       8.036   0.491  24.267  0.00  0.00    +0.011 A 
BRANCH  74  77
ATOM     77  O   UNL     1      10.145   3.017  22.629  0.00  0.00    -0.507 OA
ATOM     78  H   UNL     1      10.713   2.669  21.924  0.00  0.00    +0.292 HD
ENDBRANCH  74  77
ENDBRANCH  70  71
ENDBRANCH  67  69
ENDBRANCH  66  67
ENDBRANCH  65  66
ENDBRANCH  55  65
ENDBRANCH  52  53
ENDBRANCH  45  52
ENDBRANCH   1  44
TORSDOF 26
ENDMDL
MODEL 8
REMARK VINA RESULT:      -5.0      2.509      9.468
REMARK  Name = 
REMARK  27 active torsions:
REMARK  status: ('A' for Active; 'I' for Inactive)
REMARK    1  A    between atoms: C_1  and  C_2
REMARK    2  A    between atoms: C_3  and  O_74
REMARK    3  A    between atoms: C_5  and  O_73
REMARK    4  A    between atoms: C_6  and  O_47
REMARK    5  A    between atoms: C_8  and  O_11
REMARK    6  A    between atoms: O_11  and  C_12
REMARK    7  A    between atoms: C_13  and  C_39
REMARK    8  A    between atoms: C_17  and  O_24
REMARK    9  A    between atoms: C_19  and  O_23
REMARK   10  A    between atoms: O_24  and  C_25
REMARK   11  A    between atoms: C_27  and  O_38
REMARK   12  A    between atoms: C_28  and  O_37
REMARK   13  A    between atoms: C_29  and  O_36
REMARK   14  A    between atoms: C_31  and  C_34
REMARK   15  A    between atoms: C_34  and  O_35
REMARK   16  A    between atoms: C_41  and  O_46
REMARK   17  A    between atoms: C_42  and  O_45
REMARK   18  A    between atoms: O_47  and  C_48
REMARK   19  A    between atoms: C_50  and  O_72
REMARK   20  A    between atoms: C_52  and  O_71
REMARK   21  A    between atoms: C_53  and  O_70
REMARK   22  A    between atoms: C_55  and  C_57
REMARK   23  A    between atoms: C_57  and  O_58
REMARK   24  A    between atoms: O_58  and  C_59
REMARK   25  A    between atoms: C_59  and  C_61
REMARK   26  A    between atoms: C_62  and  C_63
REMARK   27  A    between atoms: C_66  and  O_69
REMARK                            x       y       z     vdW  Elec       q    Type
REMARK                         _______ _______ _______ _____ _____    ______ ____
ROOT
ATOM      1  O   UNL     1       5.159   2.064  26.041  0.00  0.00    -0.453 OA
ENDROOT
BRANCH   1   2
ATOM      2  C   UNL     1       4.310   1.546  27.025  0.00  0.00    +0.214 A 
ATOM      3  C   UNL     1       3.245   0.534  26.672  0.00  0.00    +0.238 A 
ATOM      4  O   UNL     1       2.487   0.731  25.728  0.00  0.00    -0.283 OA
ATOM      5  C   UNL     1       3.146  -0.689  27.524  0.00  0.00    +0.109 A 
ATOM      6  C   UNL     1       3.802  -0.635  28.748  0.00  0.00    +0.147 A 
ATOM      7  C   UNL     1       3.921  -1.792  29.557  0.00  0.00    +0.093 A 
ATOM      8  C   UNL     1       3.341  -3.010  29.171  0.00  0.00    +0.131 A 
ATOM      9  C   UNL     1       2.572  -3.030  28.007  0.00  0.00    +0.092 A 
ATOM     10  O   UNL     1       4.303   0.556  29.246  0.00  0.00    -0.451 OA
ATOM     11  C   UNL     1       2.490  -1.899  27.184  0.00  0.00    +0.135 A 
ATOM     12  C   UNL     1       4.675   1.566  28.348  0.00  0.00    +0.181 A 
BRANCH  12  13
ATOM     13  C   UNL     1       5.499   2.660  28.979  0.00  0.00    +0.025 A 
ATOM     14  C   UNL     1       6.867   2.471  29.230  0.00  0.00    +0.015 A 
ATOM     15  C   UNL     1       7.709   3.421  29.796  0.00  0.00    +0.050 A 
ATOM     16  C   UNL     1       7.212   4.684  30.011  0.00  0.00    +0.158 A 
ATOM     17  C   UNL     1       5.884   4.963  29.706  0.00  0.00    +0.159 A 
ATOM     18  C   UNL     1       5.017   3.965  29.219  0.00  0.00    +0.060 A 
BRANCH  17  19
ATOM     19  O   UNL     1       5.488   6.263  29.873  0.00  0.00    -0.503 OA
ATOM     20  H   UNL     1       4.521   6.300  29.867  0.00  0.00    +0.292 HD
ENDBRANCH  17  19
BRANCH  16  21
ATOM     21  O   UNL     1       8.063   5.646  30.453  0.00  0.00    -0.503 OA
ATOM     22  H   UNL     1       7.811   6.452  29.965  0.00  0.00    +0.292 HD
ENDBRANCH  16  21
ENDBRANCH  12  13
BRANCH  11  23
ATOM     23  O   UNL     1       1.771  -2.000  26.020  0.00  0.00    -0.506 OA
ATOM     24  H   UNL     1       2.195  -2.647  25.424  0.00  0.00    +0.292 HD
ENDBRANCH  11  23
BRANCH   8  25
ATOM     25  O   UNL     1       3.456  -4.221  29.843  0.00  0.00    -0.461 OA
BRANCH  25  26
ATOM     26  C   UNL     1       4.806  -4.703  30.013  0.00  0.00    +0.339 C 
ATOM     27  O   UNL     1       5.724  -3.976  29.197  0.00  0.00    -0.331 OA
ATOM     28  C   UNL     1       5.599  -4.263  27.790  0.00  0.00    +0.179 C 
ATOM     29  C   UNL     1       5.966  -5.726  27.522  0.00  0.00    +0.177 C 
ATOM     30  C   UNL     1       5.006  -6.628  28.298  0.00  0.00    +0.180 C 
ATOM     31  C   UNL     1       4.963  -6.233  29.784  0.00  0.00    +0.214 C 
BRANCH  31  32
ATOM     32  O   UNL     1       3.978  -7.014  30.473  0.00  0.00    -0.383 OA
ATOM     33  H   UNL     1       3.949  -7.893  30.054  0.00  0.00    +0.210 HD
ENDBRANCH  31  32
BRANCH  30  34
ATOM     34  O   UNL     1       5.450  -7.989  28.121  0.00  0.00    -0.386 OA
ATOM     35  H   UNL     1       4.993  -8.545  28.781  0.00  0.00    +0.210 HD
ENDBRANCH  30  34
BRANCH  29  36
ATOM     36  O   UNL     1       7.310  -5.995  27.948  0.00  0.00    -0.386 OA
ATOM     37  H   UNL     1       7.884  -5.401  27.426  0.00  0.00    +0.210 HD
ENDBRANCH  29  36
BRANCH  28  38
ATOM     38  C   UNL     1       6.519  -3.304  27.025  0.00  0.00    +0.190 C 
BRANCH  38  39
ATOM     39  O   UNL     1       7.024  -3.917  25.838  0.00  0.00    -0.392 OA
ATOM     40  H   UNL     1       7.751  -3.376  25.483  0.00  0.00    +0.210 HD
ENDBRANCH  38  39
ENDBRANCH  28  38
ENDBRANCH  25  26
ENDBRANCH   8  25
ENDBRANCH   1   2
BRANCH   1  44
ATOM     41  C   UNL     1       4.030   6.227  25.131  0.00  0.00    +0.041 C 
ATOM     42  C   UNL     1       3.793   5.034  24.212  0.00  0.00    +0.150 C 
ATOM     43  O   UNL     1       3.849   3.753  24.877  0.00  0.00    -0.334 OA
ATOM     44  C   UNL     1       5.130   3.356  25.374  0.00  0.00    +0.340 C 
ATOM     45  C   UNL     1       6.224   3.347  24.191  0.00  0.00    +0.221 C 
ATOM     46  C   UNL     1       6.155   4.663  23.399  0.00  0.00    +0.180 C 
ATOM     47  C   UNL     1       4.726   5.086  22.994  0.00  0.00    +0.174 C 
BRANCH  47  48
ATOM     48  O   UNL     1       4.131   4.295  21.965  0.00  0.00    -0.387 OA
ATOM     49  H   UNL     1       3.928   3.409  22.341  0.00  0.00    +0.210 HD
ENDBRANCH  47  48
BRANCH  46  50
ATOM     50  O   UNL     1       7.088   4.709  22.317  0.00  0.00    -0.386 OA
ATOM     51  H   UNL     1       7.633   5.509  22.409  0.00  0.00    +0.210 HD
ENDBRANCH  46  50
BRANCH  45  52
ATOM     52  O   UNL     1       6.423   2.171  23.351  0.00  0.00    -0.337 OA
BRANCH  52  53
ATOM     53  C   UNL     1       7.736   1.643  23.182  0.00  0.00    +0.282 C 
ATOM     54  O   UNL     1       7.664   0.342  22.610  0.00  0.00    -0.339 OA
ATOM     55  C   UNL     1       6.947  -0.546  23.495  0.00  0.00    +0.190 C 
ATOM     56  C   UNL     1       7.709  -0.760  24.804  0.00  0.00    +0.178 C 
ATOM     57  C   UNL     1       7.947   0.614  25.470  0.00  0.00    +0.179 C 
ATOM     58  C   UNL     1       8.575   1.596  24.481  0.00  0.00    +0.201 C 
BRANCH  58  59
ATOM     59  O   UNL     1       9.930   1.177  24.191  0.00  0.00    -0.384 OA
ATOM     60  H   UNL     1      10.335   1.898  23.657  0.00  0.00    +0.210 HD
ENDBRANCH  58  59
BRANCH  57  61
ATOM     61  O   UNL     1       8.803   0.446  26.608  0.00  0.00    -0.386 OA
ATOM     62  H   UNL     1       8.387  -0.270  27.129  0.00  0.00    +0.210 HD
ENDBRANCH  57  61
BRANCH  56  63
ATOM     63  O   UNL     1       8.987  -1.371  24.576  0.00  0.00    -0.386 OA
ATOM     64  H   UNL     1       9.613  -0.623  24.516  0.00  0.00    +0.210 HD
ENDBRANCH  56  63
BRANCH  55  65
ATOM     65  C   UNL     1       6.460  -1.754  22.692  0.00  0.00    +0.266 C 
BRANCH  65  66
ATOM     66  O   UNL     1       5.514  -2.616  23.307  0.00  0.00    -0.459 OA
BRANCH  66  67
ATOM     67  C   UNL     1       5.205  -3.682  22.541  0.00  0.00    +0.332 C 
ATOM     68  O   UNL     1       5.672  -3.945  21.442  0.00  0.00    -0.246 OA
BRANCH  67  69
ATOM     69  C   UNL     1       4.228  -4.554  23.176  0.00  0.00    +0.092 C 
ATOM     70  C   UNL     1       4.293  -5.055  24.417  0.00  0.00    +0.015 C 
BRANCH  70  71
ATOM     71  C   UNL     1       3.257  -5.979  24.900  0.00  0.00    -0.025 A 
ATOM     72  C   UNL     1       3.489  -7.363  24.905  0.00  0.00    +0.011 A 
ATOM     73  C   UNL     1       2.545  -8.250  25.408  0.00  0.00    +0.046 A 
ATOM     74  C   UNL     1       1.334  -7.761  25.881  0.00  0.00    +0.117 A 
ATOM     75  C   UNL     1       1.057  -6.399  25.843  0.00  0.00    +0.046 A 
ATOM     76  C   UNL     1       2.017  -5.503  25.348  0.00  0.00    +0.011 A 
BRANCH  74  77
ATOM     77  O   UNL     1       0.448  -8.663  26.378  0.00  0.00    -0.507 OA
ATOM     78  H   UNL     1       0.320  -9.369  25.725  0.00  0.00    +0.292 HD
ENDBRANCH  74  77
ENDBRANCH  70  71
ENDBRANCH  67  69
ENDBRANCH  66  67
ENDBRANCH  65  66
ENDBRANCH  55  65
ENDBRANCH  52  53
ENDBRANCH  45  52
ENDBRANCH   1  44
TORSDOF 26
ENDMDL
MODEL 9
REMARK VINA RESULT:      -5.0      1.128      2.033
REMARK  Name = 
REMARK  27 active torsions:
REMARK  status: ('A' for Active; 'I' for Inactive)
REMARK    1  A    between atoms: C_1  and  C_2
REMARK    2  A    between atoms: C_3  and  O_74
REMARK    3  A    between atoms: C_5  and  O_73
REMARK    4  A    between atoms: C_6  and  O_47
REMARK    5  A    between atoms: C_8  and  O_11
REMARK    6  A    between atoms: O_11  and  C_12
REMARK    7  A    between atoms: C_13  and  C_39
REMARK    8  A    between atoms: C_17  and  O_24
REMARK    9  A    between atoms: C_19  and  O_23
REMARK   10  A    between atoms: O_24  and  C_25
REMARK   11  A    between atoms: C_27  and  O_38
REMARK   12  A    between atoms: C_28  and  O_37
REMARK   13  A    between atoms: C_29  and  O_36
REMARK   14  A    between atoms: C_31  and  C_34
REMARK   15  A    between atoms: C_34  and  O_35
REMARK   16  A    between atoms: C_41  and  O_46
REMARK   17  A    between atoms: C_42  and  O_45
REMARK   18  A    between atoms: O_47  and  C_48
REMARK   19  A    between atoms: C_50  and  O_72
REMARK   20  A    between atoms: C_52  and  O_71
REMARK   21  A    between atoms: C_53  and  O_70
REMARK   22  A    between atoms: C_55  and  C_57
REMARK   23  A    between atoms: C_57  and  O_58
REMARK   24  A    between atoms: O_58  and  C_59
REMARK   25  A    between atoms: C_59  and  C_61
REMARK   26  A    between atoms: C_62  and  C_63
REMARK   27  A    between atoms: C_66  and  O_69
REMARK                            x       y       z     vdW  Elec       q    Type
REMARK                         _______ _______ _______ _____ _____    ______ ____
ROOT
ATOM      1  O   UNL     1       4.445  -1.851  26.333  0.00  0.00    -0.453 OA
ENDROOT
BRANCH   1   2
ATOM      2  C   UNL     1       4.691  -0.719  25.548  0.00  0.00    +0.214 A 
ATOM      3  C   UNL     1       4.335   0.661  26.049  0.00  0.00    +0.238 A 
ATOM      4  O   UNL     1       3.224   0.886  26.518  0.00  0.00    -0.283 OA
ATOM      5  C   UNL     1       5.374   1.727  25.930  0.00  0.00    +0.109 A 
ATOM      6  C   UNL     1       6.437   1.452  25.077  0.00  0.00    +0.147 A 
ATOM      7  C   UNL     1       7.560   2.313  25.021  0.00  0.00    +0.093 A 
ATOM      8  C   UNL     1       7.614   3.488  25.785  0.00  0.00    +0.131 A 
ATOM      9  C   UNL     1       6.492   3.830  26.541  0.00  0.00    +0.092 A 
ATOM     10  O   UNL     1       6.406   0.372  24.212  0.00  0.00    -0.451 OA
ATOM     11  C   UNL     1       5.398   2.959  26.631  0.00  0.00    +0.135 A 
ATOM     12  C   UNL     1       5.633  -0.749  24.551  0.00  0.00    +0.181 A 
BRANCH  12  13
ATOM     13  C   UNL     1       5.938  -1.966  23.713  0.00  0.00    +0.025 A 
ATOM     14  C   UNL     1       6.869  -1.898  22.665  0.00  0.00    +0.015 A 
ATOM     15  C   UNL     1       7.223  -2.964  21.847  0.00  0.00    +0.050 A 
ATOM     16  C   UNL     1       6.734  -4.210  22.157  0.00  0.00    +0.158 A 
ATOM     17  C   UNL     1       5.870  -4.363  23.235  0.00  0.00    +0.159 A 
ATOM     18  C   UNL     1       5.447  -3.258  23.999  0.00  0.00    +0.060 A 
BRANCH  17  19
ATOM     19  O   UNL     1       5.491  -5.646  23.527  0.00  0.00    -0.503 OA
ATOM     20  H   UNL     1       4.525  -5.700  23.507  0.00  0.00    +0.292 HD
ENDBRANCH  17  19
BRANCH  16  21
ATOM     21  O   UNL     1       7.171  -5.273  21.432  0.00  0.00    -0.503 OA
ATOM     22  H   UNL     1       6.922  -6.057  21.956  0.00  0.00    +0.292 HD
ENDBRANCH  16  21
ENDBRANCH  12  13
BRANCH  11  23
ATOM     23  O   UNL     1       4.351   3.322  27.441  0.00  0.00    -0.506 OA
ATOM     24  H   UNL     1       4.690   3.613  28.309  0.00  0.00    +0.292 HD
ENDBRANCH  11  23
BRANCH   8  25
ATOM     25  O   UNL     1       8.690   4.363  25.867  0.00  0.00    -0.461 OA
BRANCH  25  26
ATOM     26  C   UNL     1       8.974   5.102  24.658  0.00  0.00    +0.339 C 
ATOM     27  O   UNL     1       7.870   5.924  24.280  0.00  0.00    -0.331 OA
ATOM     28  C   UNL     1       6.740   5.181  23.784  0.00  0.00    +0.179 C 
ATOM     29  C   UNL     1       7.116   4.467  22.481  0.00  0.00    +0.177 C 
ATOM     30  C   UNL     1       8.262   3.496  22.760  0.00  0.00    +0.180 C 
ATOM     31  C   UNL     1       9.427   4.210  23.467  0.00  0.00    +0.214 C 
BRANCH  31  32
ATOM     32  O   UNL     1      10.443   3.264  23.820  0.00  0.00    -0.383 OA
ATOM     33  H   UNL     1      11.282   3.566  23.426  0.00  0.00    +0.210 HD
ENDBRANCH  31  32
BRANCH  30  34
ATOM     34  O   UNL     1       8.672   2.931  21.498  0.00  0.00    -0.386 OA
ATOM     35  H   UNL     1       7.874   2.797  20.951  0.00  0.00    +0.210 HD
ENDBRANCH  30  34
BRANCH  29  36
ATOM     36  O   UNL     1       7.538   5.417  21.489  0.00  0.00    -0.386 OA
ATOM     37  H   UNL     1       6.735   5.660  20.988  0.00  0.00    +0.210 HD
ENDBRANCH  29  36
BRANCH  28  38
ATOM     38  C   UNL     1       5.581   6.162  23.572  0.00  0.00    +0.190 C 
BRANCH  38  39
ATOM     39  O   UNL     1       4.323   5.486  23.613  0.00  0.00    -0.392 OA
ATOM     40  H   UNL     1       3.743   5.847  22.920  0.00  0.00    +0.210 HD
ENDBRANCH  38  39
ENDBRANCH  28  38
ENDBRANCH  25  26
ENDBRANCH   8  25
ENDBRANCH   1   2
BRANCH   1  44
ATOM     41  C   UNL     1       3.070  -1.280  30.482  0.00  0.00    +0.041 C 
ATOM     42  C   UNL     1       3.568  -2.597  29.898  0.00  0.00    +0.150 C 
ATOM     43  O   UNL     1       4.347  -2.452  28.689  0.00  0.00    -0.334 OA
ATOM     44  C   UNL     1       3.640  -1.990  27.536  0.00  0.00    +0.340 C 
ATOM     45  C   UNL     1       2.390  -2.954  27.207  0.00  0.00    +0.221 C 
ATOM     46  C   UNL     1       1.568  -3.204  28.481  0.00  0.00    +0.180 C 
ATOM     47  C   UNL     1       2.411  -3.590  29.716  0.00  0.00    +0.174 C 
BRANCH  47  48
ATOM     48  O   UNL     1       2.975  -4.901  29.677  0.00  0.00    -0.387 OA
ATOM     49  H   UNL     1       3.567  -4.955  28.894  0.00  0.00    +0.210 HD
ENDBRANCH  47  48
BRANCH  46  50
ATOM     50  O   UNL     1       0.455  -4.074  28.262  0.00  0.00    -0.386 OA
ATOM     51  H   UNL     1      -0.292  -3.768  28.805  0.00  0.00    +0.210 HD
ENDBRANCH  46  50
BRANCH  45  52
ATOM     52  O   UNL     1       2.548  -4.140  26.372  0.00  0.00    -0.337 OA
BRANCH  52  53
ATOM     53  C   UNL     1       1.906  -5.355  26.752  0.00  0.00    +0.282 C 
ATOM     54  O   UNL     1       2.854  -6.237  27.342  0.00  0.00    -0.339 OA
ATOM     55  C   UNL     1       3.884  -6.567  26.386  0.00  0.00    +0.190 C 
ATOM     56  C   UNL     1       3.315  -7.367  25.213  0.00  0.00    +0.178 C 
ATOM     57  C   UNL     1       2.186  -6.547  24.552  0.00  0.00    +0.179 C 
ATOM     58  C   UNL     1       1.173  -6.076  25.596  0.00  0.00    +0.201 C 
BRANCH  58  59
ATOM     59  O   UNL     1       0.443  -7.220  26.098  0.00  0.00    -0.384 OA
ATOM     60  H   UNL     1       1.100  -7.945  26.200  0.00  0.00    +0.210 HD
ENDBRANCH  58  59
BRANCH  57  61
ATOM     61  O   UNL     1       1.534  -7.351  23.560  0.00  0.00    -0.386 OA
ATOM     62  H   UNL     1       1.407  -8.221  23.989  0.00  0.00    +0.210 HD
ENDBRANCH  57  61
BRANCH  56  63
ATOM     63  O   UNL     1       2.761  -8.618  25.648  0.00  0.00    -0.386 OA
ATOM     64  H   UNL     1       1.871  -8.391  25.981  0.00  0.00    +0.210 HD
ENDBRANCH  56  63
BRANCH  55  65
ATOM     65  C   UNL     1       5.109  -7.088  27.140  0.00  0.00    +0.266 C 
BRANCH  65  66
ATOM     66  O   UNL     1       6.336  -6.396  26.961  0.00  0.00    -0.459 OA
BRANCH  66  67
ATOM     67  C   UNL     1       6.450  -5.320  27.766  0.00  0.00    +0.332 C 
ATOM     68  O   UNL     1       6.074  -5.240  28.927  0.00  0.00    -0.246 OA
BRANCH  67  69
ATOM     69  C   UNL     1       7.113  -4.205  27.107  0.00  0.00    +0.092 C 
ATOM     70  C   UNL     1       8.150  -4.279  26.262  0.00  0.00    +0.015 C 
BRANCH  70  71
ATOM     71  C   UNL     1       8.758  -3.053  25.723  0.00  0.00    -0.025 A 
ATOM     72  C   UNL     1       8.626  -1.837  26.410  0.00  0.00    +0.011 A 
ATOM     73  C   UNL     1       9.238  -0.678  25.947  0.00  0.00    +0.046 A 
ATOM     74  C   UNL     1       9.964  -0.717  24.763  0.00  0.00    +0.117 A 
ATOM     75  C   UNL     1      10.071  -1.898  24.036  0.00  0.00    +0.046 A 
ATOM     76  C   UNL     1       9.464  -3.070  24.512  0.00  0.00    +0.011 A 
BRANCH  74  77
ATOM     77  O   UNL     1      10.558   0.435  24.358  0.00  0.00    -0.507 OA
ATOM     78  H   UNL     1      10.127   0.741  23.545  0.00  0.00    +0.292 HD
ENDBRANCH  74  77
ENDBRANCH  70  71
ENDBRANCH  67  69
ENDBRANCH  66  67
ENDBRANCH  65  66
ENDBRANCH  55  65
ENDBRANCH  52  53
ENDBRANCH  45  52
ENDBRANCH   1  44
TORSDOF 26
ENDMDL
