MODEL 1
REMARK VINA RESULT:      -7.4      0.000      0.000
REMARK  Name = 
REMARK  9 active torsions:
REMARK  status: ('A' for Active; 'I' for Inactive)
REMARK    1  A    between atoms: C_3  and  O_30
REMARK    2  A    between atoms: C_4  and  O_29
REMARK    3  A    between atoms: C_6  and  C_7
REMARK    4  A    between atoms: C_8  and  O_24
REMARK    5  A    between atoms: C_12  and  O_23
REMARK    6  A    between atoms: C_14  and  O_18
REMARK    7  A    between atoms: O_18  and  S_19
REMARK    8  A    between atoms: O_24  and  S_25
REMARK    9  A    between atoms: O_30  and  S_31
REMARK                            x       y       z     vdW  Elec       q    Type
REMARK                         _______ _______ _______ _____ _____    ______ ____
ROOT
ATOM      1  C   UNL     1       7.185  -2.170  23.093  0.00  0.00    +0.184 A 
ATOM      2  O   UNL     1       6.690  -0.911  22.713  0.00  0.00    -0.451 OA
ATOM      3  C   UNL     1       7.496   0.194  22.770  0.00  0.00    +0.147 A 
ATOM      4  C   UNL     1       8.831   0.113  23.113  0.00  0.00    +0.109 A 
ATOM      5  C   UNL     1       9.621   1.271  23.153  0.00  0.00    +0.135 A 
ATOM      6  C   UNL     1       9.070   2.515  22.847  0.00  0.00    +0.095 A 
ATOM      7  C   UNL     1       7.728   2.603  22.474  0.00  0.00    +0.162 A 
ATOM      8  C   UNL     1       9.382  -1.201  23.430  0.00  0.00    +0.241 A 
ATOM      9  O   UNL     1      10.588  -1.286  23.671  0.00  0.00    -0.283 OA
ATOM     10  C   UNL     1       6.940   1.440  22.454  0.00  0.00    +0.095 A 
ATOM     11  C   UNL     1       8.471  -2.384  23.466  0.00  0.00    +0.244 A 
ENDROOT
BRANCH   1  13
ATOM     12  C   UNL     1       5.024  -3.089  23.912  0.00  0.00    +0.015 A 
ATOM     13  C   UNL     1       6.081  -3.151  22.986  0.00  0.00    +0.025 A 
ATOM     14  C   UNL     1       6.154  -4.255  22.128  0.00  0.00    +0.061 A 
ATOM     15  C   UNL     1       5.210  -5.280  22.237  0.00  0.00    +0.162 A 
ATOM     16  C   UNL     1       4.199  -5.247  23.206  0.00  0.00    +0.196 A 
ATOM     17  C   UNL     1       4.086  -4.126  24.019  0.00  0.00    +0.053 A 
BRANCH  15  18
ATOM     18  O   UNL     1       5.305  -6.352  21.384  0.00  0.00    -0.503 OA
ATOM     19  H   UNL     1       4.535  -6.258  20.791  0.00  0.00    +0.292 HD
ENDBRANCH  15  18
BRANCH  16  20
ATOM     20  O   UNL     1       3.346  -6.324  23.252  0.00  0.00    -0.357 OA
BRANCH  20  21
ATOM     21  S   UNL     1       3.189  -7.261  24.592  0.00  0.00    +0.043 S 
ATOM     22  O   UNL     1       4.576  -7.451  25.027  0.00  0.00    -0.259 OA
ATOM     23  O   UNL     1       2.556  -8.495  24.129  0.00  0.00    -0.336 OA
ATOM     24  O   UNL     1       2.391  -6.479  25.532  0.00  0.00    -0.336 OA
ENDBRANCH  20  21
ENDBRANCH  16  20
ENDBRANCH   1  13
BRANCH   5  25
ATOM     25  O   UNL     1      10.951   1.248  23.489  0.00  0.00    -0.506 OA
ATOM     26  H   UNL     1      11.406   0.698  22.809  0.00  0.00    +0.292 HD
ENDBRANCH   5  25
BRANCH   7  27
ATOM     27  O   UNL     1       7.085   3.768  22.131  0.00  0.00    -0.360 OA
BRANCH  27  28
ATOM     28  S   UNL     1       6.895   5.038  23.154  0.00  0.00    +0.042 S 
ATOM     29  O   UNL     1       5.656   5.667  22.692  0.00  0.00    -0.259 OA
ATOM     30  O   UNL     1       8.078   5.877  22.973  0.00  0.00    -0.336 OA
ATOM     31  O   UNL     1       6.783   4.431  24.481  0.00  0.00    -0.336 OA
ENDBRANCH  27  28
ENDBRANCH   7  27
BRANCH  11  32
ATOM     32  O   UNL     1       9.137  -3.501  23.901  0.00  0.00    -0.353 OA
BRANCH  32  33
ATOM     33  S   UNL     1       8.966  -4.386  25.239  0.00  0.00    +0.043 S 
ATOM     34  O   UNL     1      10.231  -5.122  25.312  0.00  0.00    -0.259 OA
ATOM     35  O   UNL     1       7.816  -5.249  24.985  0.00  0.00    -0.336 OA
ATOM     36  O   UNL     1       8.812  -3.402  26.306  0.00  0.00    -0.336 OA
ENDBRANCH  32  33
ENDBRANCH  11  32
TORSDOF 9
ENDMDL
MODEL 2
REMARK VINA RESULT:      -7.3      2.790      3.657
REMARK  Name = 
REMARK  9 active torsions:
REMARK  status: ('A' for Active; 'I' for Inactive)
REMARK    1  A    between atoms: C_3  and  O_30
REMARK    2  A    between atoms: C_4  and  O_29
REMARK    3  A    between atoms: C_6  and  C_7
REMARK    4  A    between atoms: C_8  and  O_24
REMARK    5  A    between atoms: C_12  and  O_23
REMARK    6  A    between atoms: C_14  and  O_18
REMARK    7  A    between atoms: O_18  and  S_19
REMARK    8  A    between atoms: O_24  and  S_25
REMARK    9  A    between atoms: O_30  and  S_31
REMARK                            x       y       z     vdW  Elec       q    Type
REMARK                         _______ _______ _______ _____ _____    ______ ____
ROOT
ATOM      1  C   UNL     1       7.373  -2.344  24.644  0.00  0.00    +0.184 A 
ATOM      2  O   UNL     1       7.479  -1.057  25.196  0.00  0.00    -0.451 OA
ATOM      3  C   UNL     1       8.040  -0.040  24.474  0.00  0.00    +0.147 A 
ATOM      4  C   UNL     1       8.440  -0.203  23.162  0.00  0.00    +0.109 A 
ATOM      5  C   UNL     1       9.005   0.870  22.457  0.00  0.00    +0.135 A 
ATOM      6  C   UNL     1       9.168   2.112  23.070  0.00  0.00    +0.095 A 
ATOM      7  C   UNL     1       8.742   2.294  24.386  0.00  0.00    +0.162 A 
ATOM      8  C   UNL     1       8.259  -1.514  22.546  0.00  0.00    +0.241 A 
ATOM      9  O   UNL     1       8.554  -1.645  21.355  0.00  0.00    -0.283 OA
ATOM     10  C   UNL     1       8.194   1.208  25.091  0.00  0.00    +0.095 A 
ATOM     11  C   UNL     1       7.743  -2.644  23.374  0.00  0.00    +0.244 A 
ENDROOT
BRANCH   1  13
ATOM     12  C   UNL     1       5.573  -2.877  26.275  0.00  0.00    +0.015 A 
ATOM     13  C   UNL     1       6.789  -3.240  25.668  0.00  0.00    +0.025 A 
ATOM     14  C   UNL     1       7.501  -4.324  26.195  0.00  0.00    +0.061 A 
ATOM     15  C   UNL     1       7.016  -4.989  27.325  0.00  0.00    +0.162 A 
ATOM     16  C   UNL     1       5.840  -4.582  27.967  0.00  0.00    +0.196 A 
ATOM     17  C   UNL     1       5.098  -3.546  27.413  0.00  0.00    +0.053 A 
BRANCH  15  18
ATOM     18  O   UNL     1       7.736  -6.049  27.821  0.00  0.00    -0.503 OA
ATOM     19  H   UNL     1       8.591  -6.001  27.351  0.00  0.00    +0.292 HD
ENDBRANCH  15  18
BRANCH  16  20
ATOM     20  O   UNL     1       5.473  -5.281  29.092  0.00  0.00    -0.357 OA
BRANCH  20  21
ATOM     21  S   UNL     1       4.670  -6.712  29.011  0.00  0.00    +0.043 S 
ATOM     22  O   UNL     1       4.186  -6.897  30.382  0.00  0.00    -0.259 OA
ATOM     23  O   UNL     1       5.676  -7.697  28.617  0.00  0.00    -0.336 OA
ATOM     24  O   UNL     1       3.597  -6.511  28.042  0.00  0.00    -0.336 OA
ENDBRANCH  20  21
ENDBRANCH  16  20
ENDBRANCH   1  13
BRANCH   5  25
ATOM     25  O   UNL     1       9.421   0.762  21.155  0.00  0.00    -0.506 OA
ATOM     26  H   UNL     1      10.172   0.123  21.148  0.00  0.00    +0.292 HD
ENDBRANCH   5  25
BRANCH   7  27
ATOM     27  O   UNL     1       8.832   3.475  25.083  0.00  0.00    -0.360 OA
BRANCH  27  28
ATOM     28  S   UNL     1       7.961   4.818  24.716  0.00  0.00    +0.042 S 
ATOM     29  O   UNL     1       7.885   5.536  25.989  0.00  0.00    -0.259 OA
ATOM     30  O   UNL     1       6.666   4.335  24.240  0.00  0.00    -0.336 OA
ATOM     31  O   UNL     1       8.757   5.510  23.701  0.00  0.00    -0.336 OA
ENDBRANCH  27  28
ENDBRANCH   7  27
BRANCH  11  32
ATOM     32  O   UNL     1       7.759  -3.817  22.664  0.00  0.00    -0.353 OA
BRANCH  32  33
ATOM     33  S   UNL     1       6.559  -4.702  22.046  0.00  0.00    +0.043 S 
ATOM     34  O   UNL     1       7.266  -5.693  21.231  0.00  0.00    -0.259 OA
ATOM     35  O   UNL     1       5.764  -3.769  21.251  0.00  0.00    -0.336 OA
ATOM     36  O   UNL     1       5.900  -5.281  23.212  0.00  0.00    -0.336 OA
ENDBRANCH  32  33
ENDBRANCH  11  32
TORSDOF 9
ENDMDL
MODEL 3
REMARK VINA RESULT:      -7.2      1.622      8.582
REMARK  Name = 
REMARK  9 active torsions:
REMARK  status: ('A' for Active; 'I' for Inactive)
REMARK    1  A    between atoms: C_3  and  O_30
REMARK    2  A    between atoms: C_4  and  O_29
REMARK    3  A    between atoms: C_6  and  C_7
REMARK    4  A    between atoms: C_8  and  O_24
REMARK    5  A    between atoms: C_12  and  O_23
REMARK    6  A    between atoms: C_14  and  O_18
REMARK    7  A    between atoms: O_18  and  S_19
REMARK    8  A    between atoms: O_24  and  S_25
REMARK    9  A    between atoms: O_30  and  S_31
REMARK                            x       y       z     vdW  Elec       q    Type
REMARK                         _______ _______ _______ _____ _____    ______ ____
ROOT
ATOM      1  C   UNL     1       7.385  -0.602  23.058  0.00  0.00    +0.184 A 
ATOM      2  O   UNL     1       6.273  -1.437  22.862  0.00  0.00    -0.451 OA
ATOM      3  C   UNL     1       6.405  -2.797  22.952  0.00  0.00    +0.147 A 
ATOM      4  C   UNL     1       7.594  -3.397  23.318  0.00  0.00    +0.109 A 
ATOM      5  C   UNL     1       7.682  -4.795  23.403  0.00  0.00    +0.135 A 
ATOM      6  C   UNL     1       6.574  -5.592  23.120  0.00  0.00    +0.095 A 
ATOM      7  C   UNL     1       5.362  -4.993  22.777  0.00  0.00    +0.162 A 
ATOM      8  C   UNL     1       8.739  -2.538  23.606  0.00  0.00    +0.241 A 
ATOM      9  O   UNL     1       9.781  -3.067  23.997  0.00  0.00    -0.283 OA
ATOM     10  C   UNL     1       5.287  -3.594  22.676  0.00  0.00    +0.095 A 
ATOM     11  C   UNL     1       8.613  -1.063  23.404  0.00  0.00    +0.244 A 
ENDROOT
BRANCH   1  13
ATOM     12  C   UNL     1       7.574   1.548  21.823  0.00  0.00    +0.015 A 
ATOM     13  C   UNL     1       6.955   0.797  22.840  0.00  0.00    +0.025 A 
ATOM     14  C   UNL     1       6.104   1.457  23.734  0.00  0.00    +0.061 A 
ATOM     15  C   UNL     1       5.923   2.839  23.626  0.00  0.00    +0.162 A 
ATOM     16  C   UNL     1       6.594   3.594  22.655  0.00  0.00    +0.196 A 
ATOM     17  C   UNL     1       7.391   2.936  21.727  0.00  0.00    +0.053 A 
BRANCH  15  18
ATOM     18  O   UNL     1       5.083   3.462  24.518  0.00  0.00    -0.503 OA
ATOM     19  H   UNL     1       4.644   4.157  23.991  0.00  0.00    +0.292 HD
ENDBRANCH  15  18
BRANCH  16  20
ATOM     20  O   UNL     1       6.373   4.951  22.661  0.00  0.00    -0.357 OA
BRANCH  20  21
ATOM     21  S   UNL     1       7.295   5.985  23.544  0.00  0.00    +0.043 S 
ATOM     22  O   UNL     1       8.305   6.431  22.579  0.00  0.00    -0.259 OA
ATOM     23  O   UNL     1       7.851   5.178  24.628  0.00  0.00    -0.336 OA
ATOM     24  O   UNL     1       6.395   7.052  23.973  0.00  0.00    -0.336 OA
ENDBRANCH  20  21
ENDBRANCH  16  20
ENDBRANCH   1  13
BRANCH   5  25
ATOM     25  O   UNL     1       8.838  -5.442  23.759  0.00  0.00    -0.506 OA
ATOM     26  H   UNL     1       8.981  -5.262  24.717  0.00  0.00    +0.292 HD
ENDBRANCH   5  25
BRANCH   7  27
ATOM     27  O   UNL     1       4.202  -5.676  22.500  0.00  0.00    -0.360 OA
BRANCH  27  28
ATOM     28  S   UNL     1       3.206  -6.286  23.654  0.00  0.00    +0.042 S 
ATOM     29  O   UNL     1       1.980  -6.602  22.918  0.00  0.00    -0.259 OA
ATOM     30  O   UNL     1       3.036  -5.219  24.638  0.00  0.00    -0.336 OA
ATOM     31  O   UNL     1       3.905  -7.468  24.160  0.00  0.00    -0.336 OA
ENDBRANCH  27  28
ENDBRANCH   7  27
BRANCH  11  32
ATOM     32  O   UNL     1       9.817  -0.439  23.602  0.00  0.00    -0.353 OA
BRANCH  32  33
ATOM     33  S   UNL     1      10.326   0.539  24.781  0.00  0.00    +0.043 S 
ATOM     34  O   UNL     1       9.806  -0.104  25.990  0.00  0.00    -0.259 OA
ATOM     35  O   UNL     1       9.701   1.830  24.507  0.00  0.00    -0.336 OA
ATOM     36  O   UNL     1      11.782   0.493  24.686  0.00  0.00    -0.336 OA
ENDBRANCH  32  33
ENDBRANCH  11  32
TORSDOF 9
ENDMDL
MODEL 4
REMARK VINA RESULT:      -6.9      2.978      8.776
REMARK  Name = 
REMARK  9 active torsions:
REMARK  status: ('A' for Active; 'I' for Inactive)
REMARK    1  A    between atoms: C_3  and  O_30
REMARK    2  A    between atoms: C_4  and  O_29
REMARK    3  A    between atoms: C_6  and  C_7
REMARK    4  A    between atoms: C_8  and  O_24
REMARK    5  A    between atoms: C_12  and  O_23
REMARK    6  A    between atoms: C_14  and  O_18
REMARK    7  A    between atoms: O_18  and  S_19
REMARK    8  A    between atoms: O_24  and  S_25
REMARK    9  A    between atoms: O_30  and  S_31
REMARK                            x       y       z     vdW  Elec       q    Type
REMARK                         _______ _______ _______ _____ _____    ______ ____
ROOT
ATOM      1  C   UNL     1       7.956  -0.496  25.176  0.00  0.00    +0.184 A 
ATOM      2  O   UNL     1       7.366  -1.362  26.112  0.00  0.00    -0.451 OA
ATOM      3  C   UNL     1       7.731  -2.680  26.159  0.00  0.00    +0.147 A 
ATOM      4  C   UNL     1       8.738  -3.193  25.365  0.00  0.00    +0.109 A 
ATOM      5  C   UNL     1       9.083  -4.550  25.450  0.00  0.00    +0.135 A 
ATOM      6  C   UNL     1       8.416  -5.395  26.336  0.00  0.00    +0.095 A 
ATOM      7  C   UNL     1       7.416  -4.881  27.161  0.00  0.00    +0.162 A 
ATOM      8  C   UNL     1       9.419  -2.287  24.445  0.00  0.00    +0.241 A 
ATOM      9  O   UNL     1      10.362  -2.725  23.784  0.00  0.00    -0.283 OA
ATOM     10  C   UNL     1       7.064  -3.524  27.056  0.00  0.00    +0.095 A 
ATOM     11  C   UNL     1       8.943  -0.875  24.327  0.00  0.00    +0.244 A 
ENDROOT
BRANCH   1  13
ATOM     12  C   UNL     1       5.950   0.969  25.059  0.00  0.00    +0.015 A 
ATOM     13  C   UNL     1       7.326   0.836  25.319  0.00  0.00    +0.025 A 
ATOM     14  C   UNL     1       8.086   1.997  25.507  0.00  0.00    +0.061 A 
ATOM     15  C   UNL     1       7.476   3.249  25.390  0.00  0.00    +0.162 A 
ATOM     16  C   UNL     1       6.120   3.379  25.063  0.00  0.00    +0.196 A 
ATOM     17  C   UNL     1       5.349   2.230  24.937  0.00  0.00    +0.053 A 
BRANCH  15  18
ATOM     18  O   UNL     1       8.246   4.372  25.577  0.00  0.00    -0.503 OA
ATOM     19  H   UNL     1       8.264   4.801  24.700  0.00  0.00    +0.292 HD
ENDBRANCH  15  18
BRANCH  16  20
ATOM     20  O   UNL     1       5.631   4.657  24.936  0.00  0.00    -0.357 OA
BRANCH  20  21
ATOM     21  S   UNL     1       5.738   5.501  23.531  0.00  0.00    +0.043 S 
ATOM     22  O   UNL     1       6.857   6.415  23.779  0.00  0.00    -0.259 OA
ATOM     23  O   UNL     1       4.454   6.186  23.392  0.00  0.00    -0.336 OA
ATOM     24  O   UNL     1       6.020   4.512  22.495  0.00  0.00    -0.336 OA
ENDBRANCH  20  21
ENDBRANCH  16  20
ENDBRANCH   1  13
BRANCH   5  25
ATOM     25  O   UNL     1      10.073  -5.111  24.684  0.00  0.00    -0.506 OA
ATOM     26  H   UNL     1      10.026  -4.680  23.799  0.00  0.00    +0.292 HD
ENDBRANCH   5  25
BRANCH   7  27
ATOM     27  O   UNL     1       6.708  -5.612  28.084  0.00  0.00    -0.360 OA
BRANCH  27  28
ATOM     28  S   UNL     1       5.314  -6.409  27.741  0.00  0.00    +0.042 S 
ATOM     29  O   UNL     1       5.350  -7.565  28.637  0.00  0.00    -0.259 OA
ATOM     30  O   UNL     1       5.398  -6.765  26.325  0.00  0.00    -0.336 OA
ATOM     31  O   UNL     1       4.253  -5.453  28.060  0.00  0.00    -0.336 OA
ENDBRANCH  27  28
ENDBRANCH   7  27
BRANCH  11  32
ATOM     32  O   UNL     1       9.616  -0.215  23.332  0.00  0.00    -0.353 OA
BRANCH  32  33
ATOM     33  S   UNL     1       9.115   0.356  21.908  0.00  0.00    +0.043 S 
ATOM     34  O   UNL     1       9.380  -0.758  20.995  0.00  0.00    -0.259 OA
ATOM     35  O   UNL     1       9.953   1.523  21.645  0.00  0.00    -0.336 OA
ATOM     36  O   UNL     1       7.692   0.613  22.103  0.00  0.00    -0.336 OA
ENDBRANCH  32  33
ENDBRANCH  11  32
TORSDOF 9
ENDMDL
MODEL 5
REMARK VINA RESULT:      -6.8      1.905      8.466
REMARK  Name = 
REMARK  9 active torsions:
REMARK  status: ('A' for Active; 'I' for Inactive)
REMARK    1  A    between atoms: C_3  and  O_30
REMARK    2  A    between atoms: C_4  and  O_29
REMARK    3  A    between atoms: C_6  and  C_7
REMARK    4  A    between atoms: C_8  and  O_24
REMARK    5  A    between atoms: C_12  and  O_23
REMARK    6  A    between atoms: C_14  and  O_18
REMARK    7  A    between atoms: O_18  and  S_19
REMARK    8  A    between atoms: O_24  and  S_25
REMARK    9  A    between atoms: O_30  and  S_31
REMARK                            x       y       z     vdW  Elec       q    Type
REMARK                         _______ _______ _______ _____ _____    ______ ____
ROOT
ATOM      1  C   UNL     1       7.050  -0.396  23.971  0.00  0.00    +0.184 A 
ATOM      2  O   UNL     1       6.030  -1.281  23.585  0.00  0.00    -0.451 OA
ATOM      3  C   UNL     1       6.273  -2.625  23.510  0.00  0.00    +0.147 A 
ATOM      4  C   UNL     1       7.483  -3.175  23.885  0.00  0.00    +0.109 A 
ATOM      5  C   UNL     1       7.687  -4.561  23.796  0.00  0.00    +0.135 A 
ATOM      6  C   UNL     1       6.673  -5.396  23.329  0.00  0.00    +0.095 A 
ATOM      7  C   UNL     1       5.439  -4.852  22.973  0.00  0.00    +0.162 A 
ATOM      8  C   UNL     1       8.528  -2.277  24.368  0.00  0.00    +0.241 A 
ATOM      9  O   UNL     1       9.584  -2.771  24.766  0.00  0.00    -0.283 OA
ATOM     10  C   UNL     1       5.249  -3.462  23.048  0.00  0.00    +0.095 A 
ATOM     11  C   UNL     1       8.288  -0.803  24.348  0.00  0.00    +0.244 A 
ENDROOT
BRANCH   1  13
ATOM     12  C   UNL     1       5.563   1.392  24.854  0.00  0.00    +0.015 A 
ATOM     13  C   UNL     1       6.516   0.983  23.903  0.00  0.00    +0.025 A 
ATOM     14  C   UNL     1       6.773   1.822  22.812  0.00  0.00    +0.061 A 
ATOM     15  C   UNL     1       6.055   3.014  22.670  0.00  0.00    +0.162 A 
ATOM     16  C   UNL     1       5.059   3.384  23.583  0.00  0.00    +0.196 A 
ATOM     17  C   UNL     1       4.844   2.586  24.700  0.00  0.00    +0.053 A 
BRANCH  15  18
ATOM     18  O   UNL     1       6.326   3.817  21.589  0.00  0.00    -0.503 OA
ATOM     19  H   UNL     1       7.169   4.253  21.818  0.00  0.00    +0.292 HD
ENDBRANCH  15  18
BRANCH  16  20
ATOM     20  O   UNL     1       4.388   4.556  23.329  0.00  0.00    -0.357 OA
BRANCH  20  21
ATOM     21  S   UNL     1       4.977   6.019  23.789  0.00  0.00    +0.043 S 
ATOM     22  O   UNL     1       5.571   6.540  22.554  0.00  0.00    -0.259 OA
ATOM     23  O   UNL     1       5.967   5.729  24.826  0.00  0.00    -0.336 OA
ATOM     24  O   UNL     1       3.822   6.787  24.244  0.00  0.00    -0.336 OA
ENDBRANCH  20  21
ENDBRANCH  16  20
ENDBRANCH   1  13
BRANCH   5  25
ATOM     25  O   UNL     1       8.869  -5.158  24.153  0.00  0.00    -0.506 OA
ATOM     26  H   UNL     1       9.086  -4.839  25.060  0.00  0.00    +0.292 HD
ENDBRANCH   5  25
BRANCH   7  27
ATOM     27  O   UNL     1       4.363  -5.580  22.523  0.00  0.00    -0.360 OA
BRANCH  27  28
ATOM     28  S   UNL     1       3.299  -6.342  23.514  0.00  0.00    +0.042 S 
ATOM     29  O   UNL     1       2.938  -5.311  24.488  0.00  0.00    -0.259 OA
ATOM     30  O   UNL     1       4.033  -7.464  24.098  0.00  0.00    -0.336 OA
ATOM     31  O   UNL     1       2.193  -6.734  22.639  0.00  0.00    -0.336 OA
ENDBRANCH  27  28
ENDBRANCH   7  27
BRANCH  11  32
ATOM     32  O   UNL     1       9.417  -0.119  24.717  0.00  0.00    -0.353 OA
BRANCH  32  33
ATOM     33  S   UNL     1      10.309   0.967  23.924  0.00  0.00    +0.043 S 
ATOM     34  O   UNL     1      11.661   0.715  24.428  0.00  0.00    -0.259 OA
ATOM     35  O   UNL     1       9.781   2.267  24.326  0.00  0.00    -0.336 OA
ATOM     36  O   UNL     1      10.145   0.610  22.517  0.00  0.00    -0.336 OA
ENDBRANCH  32  33
ENDBRANCH  11  32
TORSDOF 9
ENDMDL
MODEL 6
REMARK VINA RESULT:      -6.7      2.935      8.095
REMARK  Name = 
REMARK  9 active torsions:
REMARK  status: ('A' for Active; 'I' for Inactive)
REMARK    1  A    between atoms: C_3  and  O_30
REMARK    2  A    between atoms: C_4  and  O_29
REMARK    3  A    between atoms: C_6  and  C_7
REMARK    4  A    between atoms: C_8  and  O_24
REMARK    5  A    between atoms: C_12  and  O_23
REMARK    6  A    between atoms: C_14  and  O_18
REMARK    7  A    between atoms: O_18  and  S_19
REMARK    8  A    between atoms: O_24  and  S_25
REMARK    9  A    between atoms: O_30  and  S_31
REMARK                            x       y       z     vdW  Elec       q    Type
REMARK                         _______ _______ _______ _____ _____    ______ ____
ROOT
ATOM      1  C   UNL     1       7.104  -0.369  24.371  0.00  0.00    +0.184 A 
ATOM      2  O   UNL     1       6.301  -1.331  25.005  0.00  0.00    -0.451 OA
ATOM      3  C   UNL     1       6.762  -2.608  25.180  0.00  0.00    +0.147 A 
ATOM      4  C   UNL     1       8.044  -2.982  24.828  0.00  0.00    +0.109 A 
ATOM      5  C   UNL     1       8.476  -4.301  25.031  0.00  0.00    +0.135 A 
ATOM      6  C   UNL     1       7.618  -5.248  25.589  0.00  0.00    +0.095 A 
ATOM      7  C   UNL     1       6.330  -4.873  25.973  0.00  0.00    +0.162 A 
ATOM      8  C   UNL     1       8.920  -1.971  24.243  0.00  0.00    +0.241 A 
ATOM      9  O   UNL     1      10.085  -2.283  23.990  0.00  0.00    -0.283 OA
ATOM     10  C   UNL     1       5.900  -3.554  25.749  0.00  0.00    +0.095 A 
ATOM     11  C   UNL     1       8.374  -0.609  23.961  0.00  0.00    +0.244 A 
ENDROOT
BRANCH   1  13
ATOM     12  C   UNL     1       5.339   1.156  25.235  0.00  0.00    +0.015 A 
ATOM     13  C   UNL     1       6.326   0.887  24.270  0.00  0.00    +0.025 A 
ATOM     14  C   UNL     1       6.399   1.713  23.142  0.00  0.00    +0.061 A 
ATOM     15  C   UNL     1       5.473   2.749  22.980  0.00  0.00    +0.162 A 
ATOM     16  C   UNL     1       4.450   2.970  23.910  0.00  0.00    +0.196 A 
ATOM     17  C   UNL     1       4.411   2.192  25.061  0.00  0.00    +0.053 A 
BRANCH  15  18
ATOM     18  O   UNL     1       5.567   3.543  21.863  0.00  0.00    -0.503 OA
ATOM     19  H   UNL     1       5.181   4.396  22.141  0.00  0.00    +0.292 HD
ENDBRANCH  15  18
BRANCH  16  20
ATOM     20  O   UNL     1       3.571   3.990  23.636  0.00  0.00    -0.357 OA
BRANCH  20  21
ATOM     21  S   UNL     1       2.187   3.750  22.784  0.00  0.00    +0.043 S 
ATOM     22  O   UNL     1       1.453   5.003  22.986  0.00  0.00    -0.259 OA
ATOM     23  O   UNL     1       1.543   2.597  23.412  0.00  0.00    -0.336 OA
ATOM     24  O   UNL     1       2.603   3.541  21.401  0.00  0.00    -0.336 OA
ENDBRANCH  20  21
ENDBRANCH  16  20
ENDBRANCH   1  13
BRANCH   5  25
ATOM     25  O   UNL     1       9.737  -4.726  24.697  0.00  0.00    -0.506 OA
ATOM     26  H   UNL     1      10.312  -4.547  25.478  0.00  0.00    +0.292 HD
ENDBRANCH   5  25
BRANCH   7  27
ATOM     27  O   UNL     1       5.409  -5.713  26.551  0.00  0.00    -0.360 OA
BRANCH  27  28
ATOM     28  S   UNL     1       5.351  -6.032  28.160  0.00  0.00    +0.042 S 
ATOM     29  O   UNL     1       3.970  -5.708  28.524  0.00  0.00    -0.259 OA
ATOM     30  O   UNL     1       6.339  -5.148  28.777  0.00  0.00    -0.336 OA
ATOM     31  O   UNL     1       5.666  -7.457  28.268  0.00  0.00    -0.336 OA
ENDBRANCH  27  28
ENDBRANCH   7  27
BRANCH  11  32
ATOM     32  O   UNL     1       9.298   0.160  23.302  0.00  0.00    -0.353 OA
BRANCH  32  33
ATOM     33  S   UNL     1      10.217   1.386  23.810  0.00  0.00    +0.043 S 
ATOM     34  O   UNL     1       9.375   2.033  24.820  0.00  0.00    -0.259 OA
ATOM     35  O   UNL     1      10.435   2.218  22.630  0.00  0.00    -0.336 OA
ATOM     36  O   UNL     1      11.399   0.743  24.375  0.00  0.00    -0.336 OA
ENDBRANCH  32  33
ENDBRANCH  11  32
TORSDOF 9
ENDMDL
MODEL 7
REMARK VINA RESULT:      -6.6      2.698      8.045
REMARK  Name = 
REMARK  9 active torsions:
REMARK  status: ('A' for Active; 'I' for Inactive)
REMARK    1  A    between atoms: C_3  and  O_30
REMARK    2  A    between atoms: C_4  and  O_29
REMARK    3  A    between atoms: C_6  and  C_7
REMARK    4  A    between atoms: C_8  and  O_24
REMARK    5  A    between atoms: C_12  and  O_23
REMARK    6  A    between atoms: C_14  and  O_18
REMARK    7  A    between atoms: O_18  and  S_19
REMARK    8  A    between atoms: O_24  and  S_25
REMARK    9  A    between atoms: O_30  and  S_31
REMARK                            x       y       z     vdW  Elec       q    Type
REMARK                         _______ _______ _______ _____ _____    ______ ____
ROOT
ATOM      1  C   UNL     1       6.933   0.453  24.148  0.00  0.00    +0.184 A 
ATOM      2  O   UNL     1       6.158  -0.714  24.043  0.00  0.00    -0.451 OA
ATOM      3  C   UNL     1       6.762  -1.941  23.980  0.00  0.00    +0.147 A 
ATOM      4  C   UNL     1       8.129  -2.095  24.102  0.00  0.00    +0.109 A 
ATOM      5  C   UNL     1       8.704  -3.373  24.036  0.00  0.00    +0.135 A 
ATOM      6  C   UNL     1       7.905  -4.500  23.849  0.00  0.00    +0.095 A 
ATOM      7  C   UNL     1       6.520  -4.356  23.752  0.00  0.00    +0.162 A 
ATOM      8  C   UNL     1       8.942  -0.898  24.295  0.00  0.00    +0.241 A 
ATOM      9  O   UNL     1      10.154  -1.038  24.471  0.00  0.00    -0.283 OA
ATOM     10  C   UNL     1       5.954  -3.071  23.799  0.00  0.00    +0.095 A 
ATOM     11  C   UNL     1       8.285   0.443  24.258  0.00  0.00    +0.244 A 
ENDROOT
BRANCH   1  13
ATOM     12  C   UNL     1       5.155   1.816  25.225  0.00  0.00    +0.015 A 
ATOM     13  C   UNL     1       6.019   1.617  24.133  0.00  0.00    +0.025 A 
ATOM     14  C   UNL     1       5.845   2.406  22.990  0.00  0.00    +0.061 A 
ATOM     15  C   UNL     1       4.800   3.334  22.942  0.00  0.00    +0.162 A 
ATOM     16  C   UNL     1       3.899   3.481  24.004  0.00  0.00    +0.196 A 
ATOM     17  C   UNL     1       4.105   2.745  25.164  0.00  0.00    +0.053 A 
BRANCH  15  18
ATOM     18  O   UNL     1       4.650   4.093  21.806  0.00  0.00    -0.503 OA
ATOM     19  H   UNL     1       3.859   4.638  21.983  0.00  0.00    +0.292 HD
ENDBRANCH  15  18
BRANCH  16  20
ATOM     20  O   UNL     1       2.886   4.395  23.837  0.00  0.00    -0.357 OA
BRANCH  20  21
ATOM     21  S   UNL     1       1.483   4.018  23.070  0.00  0.00    +0.043 S 
ATOM     22  O   UNL     1       1.365   2.573  23.289  0.00  0.00    -0.259 OA
ATOM     23  O   UNL     1       1.702   4.373  21.669  0.00  0.00    -0.336 OA
ATOM     24  O   UNL     1       0.443   4.791  23.742  0.00  0.00    -0.336 OA
ENDBRANCH  20  21
ENDBRANCH  16  20
ENDBRANCH   1  13
BRANCH   5  25
ATOM     25  O   UNL     1      10.055  -3.582  24.150  0.00  0.00    -0.506 OA
ATOM     26  H   UNL     1      10.194  -4.100  24.976  0.00  0.00    +0.292 HD
ENDBRANCH   5  25
BRANCH   7  27
ATOM     27  O   UNL     1       5.635  -5.395  23.588  0.00  0.00    -0.360 OA
BRANCH  27  28
ATOM     28  S   UNL     1       4.828  -6.107  24.828  0.00  0.00    +0.042 S 
ATOM     29  O   UNL     1       3.656  -5.250  25.012  0.00  0.00    -0.259 OA
ATOM     30  O   UNL     1       5.747  -6.090  25.964  0.00  0.00    -0.336 OA
ATOM     31  O   UNL     1       4.501  -7.447  24.336  0.00  0.00    -0.336 OA
ENDBRANCH  27  28
ENDBRANCH   7  27
BRANCH  11  32
ATOM     32  O   UNL     1       9.218   1.445  24.332  0.00  0.00    -0.353 OA
BRANCH  32  33
ATOM     33  S   UNL     1       9.834   2.410  23.194  0.00  0.00    +0.043 S 
ATOM     34  O   UNL     1       8.980   3.597  23.270  0.00  0.00    -0.259 OA
ATOM     35  O   UNL     1       9.681   1.674  21.942  0.00  0.00    -0.336 OA
ATOM     36  O   UNL     1      11.204   2.658  23.634  0.00  0.00    -0.336 OA
ENDBRANCH  32  33
ENDBRANCH  11  32
TORSDOF 9
ENDMDL
MODEL 8
REMARK VINA RESULT:      -6.6      3.281      4.987
REMARK  Name = 
REMARK  9 active torsions:
REMARK  status: ('A' for Active; 'I' for Inactive)
REMARK    1  A    between atoms: C_3  and  O_30
REMARK    2  A    between atoms: C_4  and  O_29
REMARK    3  A    between atoms: C_6  and  C_7
REMARK    4  A    between atoms: C_8  and  O_24
REMARK    5  A    between atoms: C_12  and  O_23
REMARK    6  A    between atoms: C_14  and  O_18
REMARK    7  A    between atoms: O_18  and  S_19
REMARK    8  A    between atoms: O_24  and  S_25
REMARK    9  A    between atoms: O_30  and  S_31
REMARK                            x       y       z     vdW  Elec       q    Type
REMARK                         _______ _______ _______ _____ _____    ______ ____
ROOT
ATOM      1  C   UNL     1       7.915   0.507  24.820  0.00  0.00    +0.184 A 
ATOM      2  O   UNL     1       8.815   1.343  24.139  0.00  0.00    -0.451 OA
ATOM      3  C   UNL     1       8.900   2.671  24.458  0.00  0.00    +0.147 A 
ATOM      4  C   UNL     1       8.184   3.225  25.500  0.00  0.00    +0.109 A 
ATOM      5  C   UNL     1       8.306   4.591  25.795  0.00  0.00    +0.135 A 
ATOM      6  C   UNL     1       9.151   5.404  25.041  0.00  0.00    +0.095 A 
ATOM      7  C   UNL     1       9.900   4.848  24.003  0.00  0.00    +0.162 A 
ATOM      8  C   UNL     1       7.305   2.351  26.272  0.00  0.00    +0.241 A 
ATOM      9  O   UNL     1       6.715   2.827  27.244  0.00  0.00    -0.283 OA
ATOM     10  C   UNL     1       9.757   3.483  23.703  0.00  0.00    +0.095 A 
ATOM     11  C   UNL     1       7.140   0.927  25.851  0.00  0.00    +0.244 A 
ENDROOT
BRANCH   1  13
ATOM     12  C   UNL     1       8.117  -0.968  22.828  0.00  0.00    +0.015 A 
ATOM     13  C   UNL     1       8.000  -0.846  24.224  0.00  0.00    +0.025 A 
ATOM     14  C   UNL     1       7.768  -2.002  24.979  0.00  0.00    +0.061 A 
ATOM     15  C   UNL     1       7.616  -3.232  24.332  0.00  0.00    +0.162 A 
ATOM     16  C   UNL     1       7.664  -3.339  22.937  0.00  0.00    +0.196 A 
ATOM     17  C   UNL     1       7.956  -2.206  22.188  0.00  0.00    +0.053 A 
BRANCH  15  18
ATOM     18  O   UNL     1       7.387  -4.350  25.097  0.00  0.00    -0.503 OA
ATOM     19  H   UNL     1       8.280  -4.693  25.297  0.00  0.00    +0.292 HD
ENDBRANCH  15  18
BRANCH  16  20
ATOM     20  O   UNL     1       7.465  -4.589  22.402  0.00  0.00    -0.357 OA
BRANCH  20  21
ATOM     21  S   UNL     1       5.965  -5.169  22.066  0.00  0.00    +0.043 S 
ATOM     22  O   UNL     1       5.150  -3.953  21.993  0.00  0.00    -0.259 OA
ATOM     23  O   UNL     1       5.620  -6.027  23.199  0.00  0.00    -0.336 OA
ATOM     24  O   UNL     1       6.084  -5.862  20.787  0.00  0.00    -0.336 OA
ENDBRANCH  20  21
ENDBRANCH  16  20
ENDBRANCH   1  13
BRANCH   5  25
ATOM     25  O   UNL     1       7.616   5.191  26.818  0.00  0.00    -0.506 OA
ATOM     26  H   UNL     1       6.769   5.519  26.435  0.00  0.00    +0.292 HD
ENDBRANCH   5  25
BRANCH   7  27
ATOM     27  O   UNL     1      10.779   5.547  23.210  0.00  0.00    -0.360 OA
BRANCH  27  28
ATOM     28  S   UNL     1      12.408   5.512  23.407  0.00  0.00    +0.042 S 
ATOM     29  O   UNL     1      12.708   4.085  23.540  0.00  0.00    -0.259 OA
ATOM     30  O   UNL     1      12.679   6.280  24.621  0.00  0.00    -0.336 OA
ATOM     31  O   UNL     1      12.942   6.110  22.183  0.00  0.00    -0.336 OA
ENDBRANCH  27  28
ENDBRANCH   7  27
BRANCH  11  32
ATOM     32  O   UNL     1       6.188   0.300  26.612  0.00  0.00    -0.353 OA
BRANCH  32  33
ATOM     33  S   UNL     1       4.606   0.087  26.372  0.00  0.00    +0.043 S 
ATOM     34  O   UNL     1       4.552  -1.181  25.640  0.00  0.00    -0.259 OA
ATOM     35  O   UNL     1       4.181   1.230  25.568  0.00  0.00    -0.336 OA
ATOM     36  O   UNL     1       4.045  -0.001  27.717  0.00  0.00    -0.336 OA
ENDBRANCH  32  33
ENDBRANCH  11  32
TORSDOF 9
ENDMDL
MODEL 9
REMARK VINA RESULT:      -6.4      2.822      3.913
REMARK  Name = 
REMARK  9 active torsions:
REMARK  status: ('A' for Active; 'I' for Inactive)
REMARK    1  A    between atoms: C_3  and  O_30
REMARK    2  A    between atoms: C_4  and  O_29
REMARK    3  A    between atoms: C_6  and  C_7
REMARK    4  A    between atoms: C_8  and  O_24
REMARK    5  A    between atoms: C_12  and  O_23
REMARK    6  A    between atoms: C_14  and  O_18
REMARK    7  A    between atoms: O_18  and  S_19
REMARK    8  A    between atoms: O_24  and  S_25
REMARK    9  A    between atoms: O_30  and  S_31
REMARK                            x       y       z     vdW  Elec       q    Type
REMARK                         _______ _______ _______ _____ _____    ______ ____
ROOT
ATOM      1  C   UNL     1       6.919  -0.698  24.753  0.00  0.00    +0.184 A 
ATOM      2  O   UNL     1       5.799   0.150  24.774  0.00  0.00    -0.451 OA
ATOM      3  C   UNL     1       5.863   1.392  24.205  0.00  0.00    +0.147 A 
ATOM      4  C   UNL     1       6.979   1.831  23.519  0.00  0.00    +0.109 A 
ATOM      5  C   UNL     1       6.998   3.111  22.946  0.00  0.00    +0.135 A 
ATOM      6  C   UNL     1       5.894   3.954  23.061  0.00  0.00    +0.095 A 
ATOM      7  C   UNL     1       4.752   3.510  23.728  0.00  0.00    +0.162 A 
ATOM      8  C   UNL     1       8.122   0.928  23.416  0.00  0.00    +0.241 A 
ATOM      9  O   UNL     1       9.093   1.290  22.748  0.00  0.00    -0.283 OA
ATOM     10  C   UNL     1       4.748   2.233  24.315  0.00  0.00    +0.095 A 
ATOM     11  C   UNL     1       8.081  -0.384  24.129  0.00  0.00    +0.244 A 
ENDROOT
BRANCH   1  13
ATOM     12  C   UNL     1       5.267  -2.091  25.984  0.00  0.00    +0.015 A 
ATOM     13  C   UNL     1       6.575  -1.935  25.490  0.00  0.00    +0.025 A 
ATOM     14  C   UNL     1       7.552  -2.857  25.883  0.00  0.00    +0.061 A 
ATOM     15  C   UNL     1       7.222  -3.875  26.783  0.00  0.00    +0.162 A 
ATOM     16  C   UNL     1       5.936  -3.987  27.326  0.00  0.00    +0.196 A 
ATOM     17  C   UNL     1       4.947  -3.112  26.891  0.00  0.00    +0.053 A 
BRANCH  15  18
ATOM     18  O   UNL     1       8.201  -4.765  27.153  0.00  0.00    -0.503 OA
ATOM     19  H   UNL     1       8.628  -4.346  27.925  0.00  0.00    +0.292 HD
ENDBRANCH  15  18
BRANCH  16  20
ATOM     20  O   UNL     1       5.728  -5.002  28.229  0.00  0.00    -0.357 OA
BRANCH  20  21
ATOM     21  S   UNL     1       5.141  -6.468  27.779  0.00  0.00    +0.043 S 
ATOM     22  O   UNL     1       5.643  -6.618  26.409  0.00  0.00    -0.259 OA
ATOM     23  O   UNL     1       3.686  -6.340  27.848  0.00  0.00    -0.336 OA
ATOM     24  O   UNL     1       5.717  -7.431  28.713  0.00  0.00    -0.336 OA
ENDBRANCH  20  21
ENDBRANCH  16  20
ENDBRANCH   1  13
BRANCH   5  25
ATOM     25  O   UNL     1       8.081   3.596  22.257  0.00  0.00    -0.506 OA
ATOM     26  H   UNL     1       8.107   4.568  22.417  0.00  0.00    +0.292 HD
ENDBRANCH   5  25
BRANCH   7  27
ATOM     27  O   UNL     1       3.600   4.244  23.884  0.00  0.00    -0.360 OA
BRANCH  27  28
ATOM     28  S   UNL     1       2.254   4.032  22.968  0.00  0.00    +0.042 S 
ATOM     29  O   UNL     1       2.786   3.618  21.668  0.00  0.00    -0.259 OA
ATOM     30  O   UNL     1       1.585   5.331  22.937  0.00  0.00    -0.336 OA
ATOM     31  O   UNL     1       1.501   2.981  23.653  0.00  0.00    -0.336 OA
ENDBRANCH  27  28
ENDBRANCH   7  27
BRANCH  11  32
ATOM     32  O   UNL     1       9.283  -1.035  24.021  0.00  0.00    -0.353 OA
BRANCH  32  33
ATOM     33  S   UNL     1       9.760  -2.230  23.047  0.00  0.00    +0.043 S 
ATOM     34  O   UNL     1      10.221  -3.256  23.985  0.00  0.00    -0.259 OA
ATOM     35  O   UNL     1      10.839  -1.663  22.243  0.00  0.00    -0.336 OA
ATOM     36  O   UNL     1       8.550  -2.613  22.325  0.00  0.00    -0.336 OA
ENDBRANCH  32  33
ENDBRANCH  11  32
TORSDOF 9
ENDMDL
