MODEL 1
REMARK VINA RESULT:      -7.8      0.000      0.000
REMARK  Name = 
REMARK  17 active torsions:
REMARK  status: ('A' for Active; 'I' for Inactive)
REMARK    1  A    between atoms: C_1  and  C_2
REMARK    2  A    between atoms: C_4  and  O_53
REMARK    3  A    between atoms: C_6  and  O_52
REMARK    4  A    between atoms: C_8  and  O_51
REMARK    5  A    between atoms: C_10  and  O_13
REMARK    6  A    between atoms: O_13  and  C_14
REMARK    7  A    between atoms: C_15  and  O_50
REMARK    8  A    between atoms: C_17  and  C_20
REMARK    9  A    between atoms: C_21  and  O_33
REMARK   10  A    between atoms: C_25  and  O_32
REMARK   11  A    between atoms: C_27  and  O_31
REMARK   12  A    between atoms: O_33  and  C_34
REMARK   13  A    between atoms: C_36  and  O_49
REMARK   14  A    between atoms: C_38  and  O_48
REMARK   15  A    between atoms: C_40  and  O_47
REMARK   16  A    between atoms: C_42  and  C_45
REMARK   17  A    between atoms: C_45  and  O_46
REMARK                            x       y       z     vdW  Elec       q    Type
REMARK                         _______ _______ _______ _____ _____    ______ ____
ROOT
ATOM      1  C   UNL     1       9.034   1.877  23.367  0.00  0.00    +0.181 A 
ATOM      2  O   UNL     1      10.298   2.285  22.953  0.00  0.00    -0.451 OA
ATOM      3  C   UNL     1      10.765   3.503  23.353  0.00  0.00    +0.147 A 
ATOM      4  C   UNL     1       9.927   4.455  23.922  0.00  0.00    +0.109 A 
ATOM      5  C   UNL     1      10.436   5.720  24.223  0.00  0.00    +0.135 A 
ATOM      6  C   UNL     1      11.779   6.028  23.987  0.00  0.00    +0.091 A 
ATOM      7  C   UNL     1      12.612   5.053  23.448  0.00  0.00    +0.124 A 
ATOM      8  C   UNL     1       8.534   4.091  24.172  0.00  0.00    +0.238 A 
ATOM      9  O   UNL     1       7.752   4.991  24.448  0.00  0.00    -0.283 OA
ATOM     10  C   UNL     1      12.116   3.790  23.132  0.00  0.00    +0.092 A 
ATOM     11  C   UNL     1       8.156   2.642  24.051  0.00  0.00    +0.214 A 
ENDROOT
BRANCH   1  15
ATOM     12  C   UNL     1       8.413  -2.279  23.388  0.00  0.00    +0.165 A 
ATOM     13  C   UNL     1       7.337  -1.421  23.151  0.00  0.00    +0.050 A 
ATOM     14  C   UNL     1       7.545  -0.051  22.994  0.00  0.00    +0.015 A 
ATOM     15  C   UNL     1       8.843   0.461  22.981  0.00  0.00    +0.025 A 
ATOM     16  C   UNL     1       9.927  -0.434  22.946  0.00  0.00    +0.060 A 
ATOM     17  C   UNL     1       9.699  -1.799  23.149  0.00  0.00    +0.159 A 
BRANCH  17  18
ATOM     18  O   UNL     1      10.775  -2.641  23.189  0.00  0.00    -0.503 OA
ATOM     19  H   UNL     1      11.240  -2.524  22.337  0.00  0.00    +0.292 HD
ENDBRANCH  17  18
BRANCH  12  20
ATOM     20  O   UNL     1       8.292  -3.536  23.957  0.00  0.00    -0.457 OA
BRANCH  20  24
ATOM     21  C   UNL     1       4.287  -2.987  25.169  0.00  0.00    +0.041 C 
ATOM     22  C   UNL     1       5.019  -4.294  25.457  0.00  0.00    +0.150 C 
ATOM     23  O   UNL     1       6.436  -4.141  25.335  0.00  0.00    -0.334 OA
ATOM     24  C   UNL     1       6.921  -4.002  23.988  0.00  0.00    +0.339 C 
ATOM     25  C   UNL     1       6.700  -5.348  23.271  0.00  0.00    +0.214 C 
ATOM     26  C   UNL     1       5.178  -5.640  23.258  0.00  0.00    +0.180 C 
ATOM     27  C   UNL     1       4.533  -5.513  24.653  0.00  0.00    +0.174 C 
BRANCH  27  28
ATOM     28  O   UNL     1       4.861  -6.697  25.399  0.00  0.00    -0.387 OA
ATOM     29  H   UNL     1       4.562  -6.573  26.320  0.00  0.00    +0.210 HD
ENDBRANCH  27  28
BRANCH  26  30
ATOM     30  O   UNL     1       4.540  -4.799  22.277  0.00  0.00    -0.386 OA
ATOM     31  H   UNL     1       5.133  -4.624  21.530  0.00  0.00    +0.210 HD
ENDBRANCH  26  30
BRANCH  25  32
ATOM     32  O   UNL     1       7.186  -5.323  21.923  0.00  0.00    -0.383 OA
ATOM     33  H   UNL     1       7.142  -4.393  21.623  0.00  0.00    +0.210 HD
ENDBRANCH  25  32
ENDBRANCH  20  24
ENDBRANCH  12  20
ENDBRANCH   1  15
BRANCH   5  34
ATOM     34  O   UNL     1       9.672   6.723  24.758  0.00  0.00    -0.506 OA
ATOM     35  H   UNL     1       9.232   6.367  25.564  0.00  0.00    +0.292 HD
ENDBRANCH   5  34
BRANCH   7  36
ATOM     36  O   UNL     1      13.929   5.306  23.203  0.00  0.00    -0.507 OA
ATOM     37  H   UNL     1      14.462   4.951  23.935  0.00  0.00    +0.292 HD
ENDBRANCH   7  36
BRANCH  11  38
ATOM     38  O   UNL     1       7.006   2.095  24.606  0.00  0.00    -0.453 OA
BRANCH  38  39
ATOM     39  C   UNL     1       6.581   2.452  25.934  0.00  0.00    +0.340 C 
ATOM     40  O   UNL     1       7.334   1.869  27.008  0.00  0.00    -0.331 OA
ATOM     41  C   UNL     1       7.122   0.500  27.375  0.00  0.00    +0.179 C 
ATOM     42  C   UNL     1       5.654   0.059  27.380  0.00  0.00    +0.177 C 
ATOM     43  C   UNL     1       4.889   0.606  26.176  0.00  0.00    +0.180 C 
ATOM     44  C   UNL     1       5.074   2.129  26.072  0.00  0.00    +0.214 C 
BRANCH  42  45
ATOM     45  O   UNL     1       5.009   0.550  28.578  0.00  0.00    -0.386 OA
ATOM     46  H   UNL     1       4.924  -0.237  29.159  0.00  0.00    +0.210 HD
ENDBRANCH  42  45
BRANCH  43  47
ATOM     47  O   UNL     1       3.501   0.270  26.346  0.00  0.00    -0.386 OA
ATOM     48  H   UNL     1       3.287  -0.402  25.673  0.00  0.00    +0.210 HD
ENDBRANCH  43  47
BRANCH  44  49
ATOM     49  O   UNL     1       4.513   2.808  27.213  0.00  0.00    -0.383 OA
ATOM     50  H   UNL     1       3.557   2.595  27.232  0.00  0.00    +0.210 HD
ENDBRANCH  44  49
BRANCH  41  51
ATOM     51  C   UNL     1       8.025  -0.430  26.561  0.00  0.00    +0.190 C 
BRANCH  51  52
ATOM     52  O   UNL     1       9.346   0.081  26.435  0.00  0.00    -0.392 OA
ATOM     53  H   UNL     1       9.560   0.509  27.282  0.00  0.00    +0.210 HD
ENDBRANCH  51  52
ENDBRANCH  41  51
ENDBRANCH  38  39
ENDBRANCH  11  38
TORSDOF 16
ENDMDL
MODEL 2
REMARK VINA RESULT:      -7.6      1.521      2.515
REMARK  Name = 
REMARK  17 active torsions:
REMARK  status: ('A' for Active; 'I' for Inactive)
REMARK    1  A    between atoms: C_1  and  C_2
REMARK    2  A    between atoms: C_4  and  O_53
REMARK    3  A    between atoms: C_6  and  O_52
REMARK    4  A    between atoms: C_8  and  O_51
REMARK    5  A    between atoms: C_10  and  O_13
REMARK    6  A    between atoms: O_13  and  C_14
REMARK    7  A    between atoms: C_15  and  O_50
REMARK    8  A    between atoms: C_17  and  C_20
REMARK    9  A    between atoms: C_21  and  O_33
REMARK   10  A    between atoms: C_25  and  O_32
REMARK   11  A    between atoms: C_27  and  O_31
REMARK   12  A    between atoms: O_33  and  C_34
REMARK   13  A    between atoms: C_36  and  O_49
REMARK   14  A    between atoms: C_38  and  O_48
REMARK   15  A    between atoms: C_40  and  O_47
REMARK   16  A    between atoms: C_42  and  C_45
REMARK   17  A    between atoms: C_45  and  O_46
REMARK                            x       y       z     vdW  Elec       q    Type
REMARK                         _______ _______ _______ _____ _____    ______ ____
ROOT
ATOM      1  C   UNL     1       8.770   2.512  23.107  0.00  0.00    +0.181 A 
ATOM      2  O   UNL     1      10.081   2.786  22.731  0.00  0.00    -0.451 OA
ATOM      3  C   UNL     1      10.710   3.874  23.262  0.00  0.00    +0.147 A 
ATOM      4  C   UNL     1      10.008   4.861  23.944  0.00  0.00    +0.109 A 
ATOM      5  C   UNL     1      10.685   6.001  24.383  0.00  0.00    +0.135 A 
ATOM      6  C   UNL     1      12.060   6.146  24.171  0.00  0.00    +0.091 A 
ATOM      7  C   UNL     1      12.753   5.132  23.517  0.00  0.00    +0.124 A 
ATOM      8  C   UNL     1       8.576   4.667  24.164  0.00  0.00    +0.238 A 
ATOM      9  O   UNL     1       7.924   5.629  24.548  0.00  0.00    -0.283 OA
ATOM     10  C   UNL     1      12.089   3.995  23.063  0.00  0.00    +0.092 A 
ATOM     11  C   UNL     1       8.002   3.308  23.882  0.00  0.00    +0.214 A 
ENDROOT
BRANCH   1  15
ATOM     12  C   UNL     1       8.074  -1.596  22.561  0.00  0.00    +0.165 A 
ATOM     13  C   UNL     1       7.028  -0.766  22.968  0.00  0.00    +0.050 A 
ATOM     14  C   UNL     1       7.197   0.617  23.013  0.00  0.00    +0.015 A 
ATOM     15  C   UNL     1       8.388   1.190  22.564  0.00  0.00    +0.025 A 
ATOM     16  C   UNL     1       9.327   0.377  21.905  0.00  0.00    +0.060 A 
ATOM     17  C   UNL     1       9.159  -1.011  21.909  0.00  0.00    +0.159 A 
BRANCH  17  18
ATOM     18  O   UNL     1      10.124  -1.788  21.331  0.00  0.00    -0.503 OA
ATOM     19  H   UNL     1      10.692  -2.100  22.063  0.00  0.00    +0.292 HD
ENDBRANCH  17  18
BRANCH  12  20
ATOM     20  O   UNL     1       8.160  -2.944  22.868  0.00  0.00    -0.457 OA
BRANCH  20  24
ATOM     21  C   UNL     1       6.994  -1.697  26.728  0.00  0.00    +0.041 C 
ATOM     22  C   UNL     1       7.902  -2.908  26.538  0.00  0.00    +0.150 C 
ATOM     23  O   UNL     1       8.490  -2.926  25.235  0.00  0.00    -0.334 OA
ATOM     24  C   UNL     1       7.589  -3.255  24.162  0.00  0.00    +0.339 C 
ATOM     25  C   UNL     1       7.185  -4.733  24.330  0.00  0.00    +0.214 C 
ATOM     26  C   UNL     1       6.462  -4.880  25.694  0.00  0.00    +0.180 C 
ATOM     27  C   UNL     1       7.260  -4.269  26.863  0.00  0.00    +0.174 C 
BRANCH  27  28
ATOM     28  O   UNL     1       8.313  -5.187  27.202  0.00  0.00    -0.387 OA
ATOM     29  H   UNL     1       7.966  -5.826  27.854  0.00  0.00    +0.210 HD
ENDBRANCH  27  28
BRANCH  26  30
ATOM     30  O   UNL     1       5.133  -4.332  25.589  0.00  0.00    -0.386 OA
ATOM     31  H   UNL     1       5.152  -3.362  25.612  0.00  0.00    +0.210 HD
ENDBRANCH  26  30
BRANCH  25  32
ATOM     32  O   UNL     1       6.309  -5.170  23.284  0.00  0.00    -0.383 OA
ATOM     33  H   UNL     1       6.760  -4.976  22.437  0.00  0.00    +0.210 HD
ENDBRANCH  25  32
ENDBRANCH  20  24
ENDBRANCH  12  20
ENDBRANCH   1  15
BRANCH   5  34
ATOM     34  O   UNL     1      10.064   7.032  25.036  0.00  0.00    -0.506 OA
ATOM     35  H   UNL     1       9.399   6.641  25.649  0.00  0.00    +0.292 HD
ENDBRANCH   5  34
BRANCH   7  36
ATOM     36  O   UNL     1      14.094   5.227  23.290  0.00  0.00    -0.507 OA
ATOM     37  H   UNL     1      14.406   6.099  23.588  0.00  0.00    +0.292 HD
ENDBRANCH   7  36
BRANCH  11  38
ATOM     38  O   UNL     1       6.784   2.865  24.382  0.00  0.00    -0.453 OA
BRANCH  38  39
ATOM     39  C   UNL     1       6.710   2.149  25.628  0.00  0.00    +0.340 C 
ATOM     40  O   UNL     1       5.454   1.513  25.907  0.00  0.00    -0.331 OA
ATOM     41  C   UNL     1       4.339   2.292  26.360  0.00  0.00    +0.179 C 
ATOM     42  C   UNL     1       4.689   3.377  27.384  0.00  0.00    +0.177 C 
ATOM     43  C   UNL     1       5.976   4.113  27.019  0.00  0.00    +0.180 C 
ATOM     44  C   UNL     1       7.115   3.109  26.773  0.00  0.00    +0.214 C 
BRANCH  42  45
ATOM     45  O   UNL     1       4.876   2.768  28.682  0.00  0.00    -0.386 OA
ATOM     46  H   UNL     1       5.108   1.833  28.492  0.00  0.00    +0.210 HD
ENDBRANCH  42  45
BRANCH  43  47
ATOM     47  O   UNL     1       6.301   4.998  28.105  0.00  0.00    -0.386 OA
ATOM     48  H   UNL     1       6.018   4.556  28.926  0.00  0.00    +0.210 HD
ENDBRANCH  43  47
BRANCH  44  49
ATOM     49  O   UNL     1       7.432   2.367  27.966  0.00  0.00    -0.383 OA
ATOM     50  H   UNL     1       6.657   1.801  28.167  0.00  0.00    +0.210 HD
ENDBRANCH  44  49
BRANCH  41  51
ATOM     51  C   UNL     1       3.528   2.824  25.174  0.00  0.00    +0.190 C 
BRANCH  51  52
ATOM     52  O   UNL     1       3.962   2.271  23.938  0.00  0.00    -0.392 OA
ATOM     53  H   UNL     1       3.502   1.420  23.837  0.00  0.00    +0.210 HD
ENDBRANCH  51  52
ENDBRANCH  41  51
ENDBRANCH  38  39
ENDBRANCH  11  38
TORSDOF 16
ENDMDL
MODEL 3
REMARK VINA RESULT:      -7.5      2.091      8.944
REMARK  Name = 
REMARK  17 active torsions:
REMARK  status: ('A' for Active; 'I' for Inactive)
REMARK    1  A    between atoms: C_1  and  C_2
REMARK    2  A    between atoms: C_4  and  O_53
REMARK    3  A    between atoms: C_6  and  O_52
REMARK    4  A    between atoms: C_8  and  O_51
REMARK    5  A    between atoms: C_10  and  O_13
REMARK    6  A    between atoms: O_13  and  C_14
REMARK    7  A    between atoms: C_15  and  O_50
REMARK    8  A    between atoms: C_17  and  C_20
REMARK    9  A    between atoms: C_21  and  O_33
REMARK   10  A    between atoms: C_25  and  O_32
REMARK   11  A    between atoms: C_27  and  O_31
REMARK   12  A    between atoms: O_33  and  C_34
REMARK   13  A    between atoms: C_36  and  O_49
REMARK   14  A    between atoms: C_38  and  O_48
REMARK   15  A    between atoms: C_40  and  O_47
REMARK   16  A    between atoms: C_42  and  C_45
REMARK   17  A    between atoms: C_45  and  O_46
REMARK                            x       y       z     vdW  Elec       q    Type
REMARK                         _______ _______ _______ _____ _____    ______ ____
ROOT
ATOM      1  C   UNL     1       5.211  -2.284  25.289  0.00  0.00    +0.181 A 
ATOM      2  O   UNL     1       4.506  -3.255  25.993  0.00  0.00    -0.451 OA
ATOM      3  C   UNL     1       4.300  -4.475  25.418  0.00  0.00    +0.147 A 
ATOM      4  C   UNL     1       4.526  -4.688  24.062  0.00  0.00    +0.109 A 
ATOM      5  C   UNL     1       4.207  -5.928  23.504  0.00  0.00    +0.135 A 
ATOM      6  C   UNL     1       3.693  -6.961  24.295  0.00  0.00    +0.091 A 
ATOM      7  C   UNL     1       3.506  -6.740  25.656  0.00  0.00    +0.124 A 
ATOM      8  C   UNL     1       5.082  -3.592  23.271  0.00  0.00    +0.238 A 
ATOM      9  O   UNL     1       5.057  -3.702  22.052  0.00  0.00    -0.283 OA
ATOM     10  C   UNL     1       3.808  -5.505  26.224  0.00  0.00    +0.092 A 
ATOM     11  C   UNL     1       5.622  -2.400  24.008  0.00  0.00    +0.214 A 
ENDROOT
BRANCH   1  15
ATOM     12  C   UNL     1       6.490   1.362  26.940  0.00  0.00    +0.165 A 
ATOM     13  C   UNL     1       5.186   1.242  26.456  0.00  0.00    +0.050 A 
ATOM     14  C   UNL     1       4.695   0.005  26.041  0.00  0.00    +0.015 A 
ATOM     15  C   UNL     1       5.475  -1.142  26.191  0.00  0.00    +0.025 A 
ATOM     16  C   UNL     1       6.672  -1.058  26.925  0.00  0.00    +0.060 A 
ATOM     17  C   UNL     1       7.167   0.196  27.294  0.00  0.00    +0.159 A 
BRANCH  17  18
ATOM     18  O   UNL     1       8.371   0.259  27.938  0.00  0.00    -0.503 OA
ATOM     19  H   UNL     1       8.833   1.037  27.568  0.00  0.00    +0.292 HD
ENDBRANCH  17  18
BRANCH  12  20
ATOM     20  O   UNL     1       7.197   2.552  26.979  0.00  0.00    -0.457 OA
BRANCH  20  24
ATOM     21  C   UNL     1       5.845   2.880  22.994  0.00  0.00    +0.041 C 
ATOM     22  C   UNL     1       7.332   2.740  23.307  0.00  0.00    +0.150 C 
ATOM     23  O   UNL     1       7.547   2.252  24.634  0.00  0.00    -0.334 OA
ATOM     24  C   UNL     1       7.270   3.197  25.684  0.00  0.00    +0.339 C 
ATOM     25  C   UNL     1       8.329   4.314  25.598  0.00  0.00    +0.214 C 
ATOM     26  C   UNL     1       8.189   5.002  24.216  0.00  0.00    +0.180 C 
ATOM     27  C   UNL     1       8.181   3.997  23.046  0.00  0.00    +0.174 C 
BRANCH  27  28
ATOM     28  O   UNL     1       9.537   3.578  22.818  0.00  0.00    -0.387 OA
ATOM     29  H   UNL     1      10.005   3.572  23.675  0.00  0.00    +0.210 HD
ENDBRANCH  27  28
BRANCH  26  30
ATOM     30  O   UNL     1       7.023   5.848  24.222  0.00  0.00    -0.386 OA
ATOM     31  H   UNL     1       6.375   5.545  24.878  0.00  0.00    +0.210 HD
ENDBRANCH  26  30
BRANCH  25  32
ATOM     32  O   UNL     1       8.159   5.293  26.630  0.00  0.00    -0.383 OA
ATOM     33  H   UNL     1       9.047   5.469  27.002  0.00  0.00    +0.210 HD
ENDBRANCH  25  32
ENDBRANCH  20  24
ENDBRANCH  12  20
ENDBRANCH   1  15
BRANCH   5  34
ATOM     34  O   UNL     1       4.371  -6.211  22.174  0.00  0.00    -0.506 OA
ATOM     35  H   UNL     1       3.540  -6.631  21.852  0.00  0.00    +0.292 HD
ENDBRANCH   5  34
BRANCH   7  36
ATOM     36  O   UNL     1       3.010  -7.717  26.467  0.00  0.00    -0.507 OA
ATOM     37  H   UNL     1       3.700  -7.989  27.096  0.00  0.00    +0.292 HD
ENDBRANCH   7  36
BRANCH  11  38
ATOM     38  O   UNL     1       6.497  -1.478  23.448  0.00  0.00    -0.453 OA
BRANCH  38  39
ATOM     39  C   UNL     1       7.500  -1.887  22.501  0.00  0.00    +0.340 C 
ATOM     40  O   UNL     1       8.252  -3.057  22.854  0.00  0.00    -0.331 OA
ATOM     41  C   UNL     1       9.298  -2.973  23.830  0.00  0.00    +0.179 C 
ATOM     42  C   UNL     1      10.176  -1.722  23.721  0.00  0.00    +0.177 C 
ATOM     43  C   UNL     1       9.351  -0.467  23.443  0.00  0.00    +0.180 C 
ATOM     44  C   UNL     1       8.437  -0.686  22.225  0.00  0.00    +0.214 C 
BRANCH  42  45
ATOM     45  O   UNL     1      11.114  -1.888  22.632  0.00  0.00    -0.386 OA
ATOM     46  H   UNL     1      11.121  -1.021  22.170  0.00  0.00    +0.210 HD
ENDBRANCH  42  45
BRANCH  43  47
ATOM     47  O   UNL     1      10.265   0.619  23.207  0.00  0.00    -0.386 OA
ATOM     48  H   UNL     1      10.364   1.094  24.052  0.00  0.00    +0.210 HD
ENDBRANCH  43  47
BRANCH  44  49
ATOM     49  O   UNL     1       9.202  -0.906  21.025  0.00  0.00    -0.383 OA
ATOM     50  H   UNL     1       9.406  -1.864  20.986  0.00  0.00    +0.210 HD
ENDBRANCH  44  49
BRANCH  41  51
ATOM     51  C   UNL     1       8.747  -3.198  25.241  0.00  0.00    +0.190 C 
BRANCH  51  52
ATOM     52  O   UNL     1       8.109  -4.462  25.372  0.00  0.00    -0.392 OA
ATOM     53  H   UNL     1       7.219  -4.366  24.993  0.00  0.00    +0.210 HD
ENDBRANCH  51  52
ENDBRANCH  41  51
ENDBRANCH  38  39
ENDBRANCH  11  38
TORSDOF 16
ENDMDL
MODEL 4
REMARK VINA RESULT:      -7.5      1.532      2.189
REMARK  Name = 
REMARK  17 active torsions:
REMARK  status: ('A' for Active; 'I' for Inactive)
REMARK    1  A    between atoms: C_1  and  C_2
REMARK    2  A    between atoms: C_4  and  O_53
REMARK    3  A    between atoms: C_6  and  O_52
REMARK    4  A    between atoms: C_8  and  O_51
REMARK    5  A    between atoms: C_10  and  O_13
REMARK    6  A    between atoms: O_13  and  C_14
REMARK    7  A    between atoms: C_15  and  O_50
REMARK    8  A    between atoms: C_17  and  C_20
REMARK    9  A    between atoms: C_21  and  O_33
REMARK   10  A    between atoms: C_25  and  O_32
REMARK   11  A    between atoms: C_27  and  O_31
REMARK   12  A    between atoms: O_33  and  C_34
REMARK   13  A    between atoms: C_36  and  O_49
REMARK   14  A    between atoms: C_38  and  O_48
REMARK   15  A    between atoms: C_40  and  O_47
REMARK   16  A    between atoms: C_42  and  C_45
REMARK   17  A    between atoms: C_45  and  O_46
REMARK                            x       y       z     vdW  Elec       q    Type
REMARK                         _______ _______ _______ _____ _____    ______ ____
ROOT
ATOM      1  C   UNL     1       8.930   2.415  23.319  0.00  0.00    +0.181 A 
ATOM      2  O   UNL     1      10.169   2.781  22.803  0.00  0.00    -0.451 OA
ATOM      3  C   UNL     1      10.814   3.860  23.331  0.00  0.00    +0.147 A 
ATOM      4  C   UNL     1      10.164   4.761  24.168  0.00  0.00    +0.109 A 
ATOM      5  C   UNL     1      10.844   5.901  24.603  0.00  0.00    +0.135 A 
ATOM      6  C   UNL     1      12.173   6.131  24.232  0.00  0.00    +0.091 A 
ATOM      7  C   UNL     1      12.818   5.201  23.422  0.00  0.00    +0.124 A 
ATOM      8  C   UNL     1       8.782   4.479  24.550  0.00  0.00    +0.238 A 
ATOM      9  O   UNL     1       8.145   5.378  25.084  0.00  0.00    -0.283 OA
ATOM     10  C   UNL     1      12.150   4.066  22.971  0.00  0.00    +0.092 A 
ATOM     11  C   UNL     1       8.234   3.116  24.241  0.00  0.00    +0.214 A 
ENDROOT
BRANCH   1  15
ATOM     12  C   UNL     1       8.181  -1.664  22.639  0.00  0.00    +0.165 A 
ATOM     13  C   UNL     1       7.140  -0.830  23.053  0.00  0.00    +0.050 A 
ATOM     14  C   UNL     1       7.330   0.549  23.142  0.00  0.00    +0.015 A 
ATOM     15  C   UNL     1       8.536   1.115  22.730  0.00  0.00    +0.025 A 
ATOM     16  C   UNL     1       9.475   0.307  22.063  0.00  0.00    +0.060 A 
ATOM     17  C   UNL     1       9.285  -1.078  22.023  0.00  0.00    +0.159 A 
BRANCH  17  18
ATOM     18  O   UNL     1      10.248  -1.851  21.439  0.00  0.00    -0.503 OA
ATOM     19  H   UNL     1      10.389  -1.477  20.547  0.00  0.00    +0.292 HD
ENDBRANCH  17  18
BRANCH  12  20
ATOM     20  O   UNL     1       8.241  -3.021  22.908  0.00  0.00    -0.457 OA
BRANCH  20  24
ATOM     21  C   UNL     1       6.821  -1.843  26.703  0.00  0.00    +0.041 C 
ATOM     22  C   UNL     1       7.800  -3.004  26.560  0.00  0.00    +0.150 C 
ATOM     23  O   UNL     1       8.452  -2.988  25.288  0.00  0.00    -0.334 OA
ATOM     24  C   UNL     1       7.624  -3.364  24.172  0.00  0.00    +0.339 C 
ATOM     25  C   UNL     1       7.291  -4.862  24.323  0.00  0.00    +0.214 C 
ATOM     26  C   UNL     1       6.511  -5.049  25.649  0.00  0.00    +0.180 C 
ATOM     27  C   UNL     1       7.217  -4.398  26.855  0.00  0.00    +0.174 C 
BRANCH  27  28
ATOM     28  O   UNL     1       8.299  -5.259  27.247  0.00  0.00    -0.387 OA
ATOM     29  H   UNL     1       8.040  -5.726  28.064  0.00  0.00    +0.210 HD
ENDBRANCH  27  28
BRANCH  26  30
ATOM     30  O   UNL     1       5.161  -4.573  25.478  0.00  0.00    -0.386 OA
ATOM     31  H   UNL     1       5.058  -3.679  25.841  0.00  0.00    +0.210 HD
ENDBRANCH  26  30
BRANCH  25  32
ATOM     32  O   UNL     1       6.493  -5.344  23.235  0.00  0.00    -0.383 OA
ATOM     33  H   UNL     1       7.112  -5.681  22.556  0.00  0.00    +0.210 HD
ENDBRANCH  25  32
ENDBRANCH  20  24
ENDBRANCH  12  20
ENDBRANCH   1  15
BRANCH   5  34
ATOM     34  O   UNL     1      10.268   6.852  25.404  0.00  0.00    -0.506 OA
ATOM     35  H   UNL     1       9.292   6.791  25.287  0.00  0.00    +0.292 HD
ENDBRANCH   5  34
BRANCH   7  36
ATOM     36  O   UNL     1      14.113   5.381  23.037  0.00  0.00    -0.507 OA
ATOM     37  H   UNL     1      14.617   4.572  23.230  0.00  0.00    +0.292 HD
ENDBRANCH   7  36
BRANCH  11  38
ATOM     38  O   UNL     1       7.111   2.577  24.855  0.00  0.00    -0.453 OA
BRANCH  38  39
ATOM     39  C   UNL     1       5.835   3.238  24.779  0.00  0.00    +0.340 C 
ATOM     40  O   UNL     1       5.589   4.237  25.779  0.00  0.00    -0.331 OA
ATOM     41  C   UNL     1       5.238   3.848  27.113  0.00  0.00    +0.179 C 
ATOM     42  C   UNL     1       4.255   2.675  27.200  0.00  0.00    +0.177 C 
ATOM     43  C   UNL     1       4.589   1.574  26.195  0.00  0.00    +0.180 C 
ATOM     44  C   UNL     1       4.722   2.163  24.781  0.00  0.00    +0.214 C 
BRANCH  42  45
ATOM     45  O   UNL     1       2.918   3.148  26.915  0.00  0.00    -0.386 OA
ATOM     46  H   UNL     1       2.486   3.230  27.793  0.00  0.00    +0.210 HD
ENDBRANCH  42  45
BRANCH  43  47
ATOM     47  O   UNL     1       3.534   0.597  26.245  0.00  0.00    -0.386 OA
ATOM     48  H   UNL     1       3.764  -0.102  25.607  0.00  0.00    +0.210 HD
ENDBRANCH  43  47
BRANCH  44  49
ATOM     49  O   UNL     1       3.476   2.723  24.323  0.00  0.00    -0.383 OA
ATOM     50  H   UNL     1       3.084   3.208  25.080  0.00  0.00    +0.210 HD
ENDBRANCH  44  49
BRANCH  41  51
ATOM     51  C   UNL     1       6.491   3.645  27.970  0.00  0.00    +0.190 C 
BRANCH  51  52
ATOM     52  O   UNL     1       7.419   4.712  27.823  0.00  0.00    -0.392 OA
ATOM     53  H   UNL     1       8.215   4.334  27.411  0.00  0.00    +0.210 HD
ENDBRANCH  51  52
ENDBRANCH  41  51
ENDBRANCH  38  39
ENDBRANCH  11  38
TORSDOF 16
ENDMDL
MODEL 5
REMARK VINA RESULT:      -7.3      1.803      7.757
REMARK  Name = 
REMARK  17 active torsions:
REMARK  status: ('A' for Active; 'I' for Inactive)
REMARK    1  A    between atoms: C_1  and  C_2
REMARK    2  A    between atoms: C_4  and  O_53
REMARK    3  A    between atoms: C_6  and  O_52
REMARK    4  A    between atoms: C_8  and  O_51
REMARK    5  A    between atoms: C_10  and  O_13
REMARK    6  A    between atoms: O_13  and  C_14
REMARK    7  A    between atoms: C_15  and  O_50
REMARK    8  A    between atoms: C_17  and  C_20
REMARK    9  A    between atoms: C_21  and  O_33
REMARK   10  A    between atoms: C_25  and  O_32
REMARK   11  A    between atoms: C_27  and  O_31
REMARK   12  A    between atoms: O_33  and  C_34
REMARK   13  A    between atoms: C_36  and  O_49
REMARK   14  A    between atoms: C_38  and  O_48
REMARK   15  A    between atoms: C_40  and  O_47
REMARK   16  A    between atoms: C_42  and  C_45
REMARK   17  A    between atoms: C_45  and  O_46
REMARK                            x       y       z     vdW  Elec       q    Type
REMARK                         _______ _______ _______ _____ _____    ______ ____
ROOT
ATOM      1  C   UNL     1       8.447  -1.951  24.417  0.00  0.00    +0.181 A 
ATOM      2  O   UNL     1       8.355  -2.949  23.452  0.00  0.00    -0.451 OA
ATOM      3  C   UNL     1       7.435  -3.944  23.613  0.00  0.00    +0.147 A 
ATOM      4  C   UNL     1       6.785  -4.147  24.825  0.00  0.00    +0.109 A 
ATOM      5  C   UNL     1       5.926  -5.240  24.964  0.00  0.00    +0.135 A 
ATOM      6  C   UNL     1       5.691  -6.109  23.894  0.00  0.00    +0.091 A 
ATOM      7  C   UNL     1       6.324  -5.871  22.678  0.00  0.00    +0.124 A 
ATOM      8  C   UNL     1       7.040  -3.207  25.914  0.00  0.00    +0.238 A 
ATOM      9  O   UNL     1       6.658  -3.518  27.035  0.00  0.00    -0.283 OA
ATOM     10  C   UNL     1       7.193  -4.793  22.528  0.00  0.00    +0.092 A 
ATOM     11  C   UNL     1       7.772  -1.937  25.587  0.00  0.00    +0.214 A 
ENDROOT
BRANCH   1  15
ATOM     12  C   UNL     1      10.203   1.719  23.368  0.00  0.00    +0.165 A 
ATOM     13  C   UNL     1      10.568   1.095  24.563  0.00  0.00    +0.050 A 
ATOM     14  C   UNL     1      10.111  -0.188  24.860  0.00  0.00    +0.015 A 
ATOM     15  C   UNL     1       9.358  -0.895  23.922  0.00  0.00    +0.025 A 
ATOM     16  C   UNL     1       9.225  -0.373  22.623  0.00  0.00    +0.060 A 
ATOM     17  C   UNL     1       9.652   0.932  22.358  0.00  0.00    +0.159 A 
BRANCH  17  18
ATOM     18  O   UNL     1       9.443   1.447  21.110  0.00  0.00    -0.503 OA
ATOM     19  H   UNL     1      10.324   1.707  20.776  0.00  0.00    +0.292 HD
ENDBRANCH  17  18
BRANCH  12  20
ATOM     20  O   UNL     1      10.243   3.089  23.164  0.00  0.00    -0.457 OA
BRANCH  20  24
ATOM     21  C   UNL     1       6.036   2.791  23.308  0.00  0.00    +0.041 C 
ATOM     22  C   UNL     1       6.716   3.846  22.441  0.00  0.00    +0.150 C 
ATOM     23  O   UNL     1       8.094   3.535  22.219  0.00  0.00    -0.334 OA
ATOM     24  C   UNL     1       8.952   3.716  23.360  0.00  0.00    +0.339 C 
ATOM     25  C   UNL     1       9.027   5.228  23.652  0.00  0.00    +0.214 C 
ATOM     26  C   UNL     1       7.596   5.724  23.982  0.00  0.00    +0.180 C 
ATOM     27  C   UNL     1       6.557   5.299  22.924  0.00  0.00    +0.174 C 
BRANCH  27  28
ATOM     28  O   UNL     1       6.710   6.165  21.787  0.00  0.00    -0.387 OA
ATOM     29  H   UNL     1       7.630   6.096  21.469  0.00  0.00    +0.210 HD
ENDBRANCH  27  28
BRANCH  26  30
ATOM     30  O   UNL     1       7.237   5.293  25.310  0.00  0.00    -0.386 OA
ATOM     31  H   UNL     1       6.657   4.516  25.280  0.00  0.00    +0.210 HD
ENDBRANCH  26  30
BRANCH  25  32
ATOM     32  O   UNL     1       9.892   5.517  24.758  0.00  0.00    -0.383 OA
ATOM     33  H   UNL     1       9.387   6.090  25.370  0.00  0.00    +0.210 HD
ENDBRANCH  25  32
ENDBRANCH  20  24
ENDBRANCH  12  20
ENDBRANCH   1  15
BRANCH   5  34
ATOM     34  O   UNL     1       5.270  -5.528  26.131  0.00  0.00    -0.506 OA
ATOM     35  H   UNL     1       4.611  -6.234  25.938  0.00  0.00    +0.292 HD
ENDBRANCH   5  34
BRANCH   7  36
ATOM     36  O   UNL     1       6.124  -6.690  21.607  0.00  0.00    -0.507 OA
ATOM     37  H   UNL     1       6.760  -6.459  20.908  0.00  0.00    +0.292 HD
ENDBRANCH   7  36
BRANCH  11  38
ATOM     38  O   UNL     1       7.760  -0.808  26.396  0.00  0.00    -0.453 OA
BRANCH  38  39
ATOM     39  C   UNL     1       6.880   0.296  26.115  0.00  0.00    +0.340 C 
ATOM     40  O   UNL     1       7.098   1.480  26.896  0.00  0.00    -0.331 OA
ATOM     41  C   UNL     1       6.641   1.542  28.253  0.00  0.00    +0.179 C 
ATOM     42  C   UNL     1       5.256   0.928  28.490  0.00  0.00    +0.177 C 
ATOM     43  C   UNL     1       5.076  -0.385  27.731  0.00  0.00    +0.180 C 
ATOM     44  C   UNL     1       5.418  -0.194  26.244  0.00  0.00    +0.214 C 
BRANCH  42  45
ATOM     45  O   UNL     1       4.239   1.849  28.036  0.00  0.00    -0.386 OA
ATOM     46  H   UNL     1       3.877   1.442  27.218  0.00  0.00    +0.210 HD
ENDBRANCH  42  45
BRANCH  43  47
ATOM     47  O   UNL     1       3.709  -0.804  27.892  0.00  0.00    -0.386 OA
ATOM     48  H   UNL     1       3.152  -0.114  27.489  0.00  0.00    +0.210 HD
ENDBRANCH  43  47
BRANCH  44  49
ATOM     49  O   UNL     1       4.516   0.733  25.610  0.00  0.00    -0.383 OA
ATOM     50  H   UNL     1       5.022   1.190  24.906  0.00  0.00    +0.210 HD
ENDBRANCH  44  49
BRANCH  41  51
ATOM     51  C   UNL     1       7.708   1.007  29.213  0.00  0.00    +0.190 C 
BRANCH  51  52
ATOM     52  O   UNL     1       8.318   2.046  29.967  0.00  0.00    -0.392 OA
ATOM     53  H   UNL     1       9.103   2.329  29.467  0.00  0.00    +0.210 HD
ENDBRANCH  51  52
ENDBRANCH  41  51
ENDBRANCH  38  39
ENDBRANCH  11  38
TORSDOF 16
ENDMDL
MODEL 6
REMARK VINA RESULT:      -7.3      1.898      7.811
REMARK  Name = 
REMARK  17 active torsions:
REMARK  status: ('A' for Active; 'I' for Inactive)
REMARK    1  A    between atoms: C_1  and  C_2
REMARK    2  A    between atoms: C_4  and  O_53
REMARK    3  A    between atoms: C_6  and  O_52
REMARK    4  A    between atoms: C_8  and  O_51
REMARK    5  A    between atoms: C_10  and  O_13
REMARK    6  A    between atoms: O_13  and  C_14
REMARK    7  A    between atoms: C_15  and  O_50
REMARK    8  A    between atoms: C_17  and  C_20
REMARK    9  A    between atoms: C_21  and  O_33
REMARK   10  A    between atoms: C_25  and  O_32
REMARK   11  A    between atoms: C_27  and  O_31
REMARK   12  A    between atoms: O_33  and  C_34
REMARK   13  A    between atoms: C_36  and  O_49
REMARK   14  A    between atoms: C_38  and  O_48
REMARK   15  A    between atoms: C_40  and  O_47
REMARK   16  A    between atoms: C_42  and  C_45
REMARK   17  A    between atoms: C_45  and  O_46
REMARK                            x       y       z     vdW  Elec       q    Type
REMARK                         _______ _______ _______ _____ _____    ______ ____
ROOT
ATOM      1  C   UNL     1       8.703  -2.019  24.447  0.00  0.00    +0.181 A 
ATOM      2  O   UNL     1       8.445  -2.899  23.401  0.00  0.00    -0.451 OA
ATOM      3  C   UNL     1       7.573  -3.929  23.600  0.00  0.00    +0.147 A 
ATOM      4  C   UNL     1       7.150  -4.289  24.875  0.00  0.00    +0.109 A 
ATOM      5  C   UNL     1       6.334  -5.412  25.031  0.00  0.00    +0.135 A 
ATOM      6  C   UNL     1       5.916  -6.156  23.923  0.00  0.00    +0.091 A 
ATOM      7  C   UNL     1       6.322  -5.761  22.652  0.00  0.00    +0.124 A 
ATOM      8  C   UNL     1       7.590  -3.477  26.007  0.00  0.00    +0.238 A 
ATOM      9  O   UNL     1       7.414  -3.927  27.132  0.00  0.00    -0.283 OA
ATOM     10  C   UNL     1       7.145  -4.651  22.482  0.00  0.00    +0.092 A 
ATOM     11  C   UNL     1       8.247  -2.159  25.710  0.00  0.00    +0.214 A 
ENDROOT
BRANCH   1  15
ATOM     12  C   UNL     1      10.104   1.786  23.343  0.00  0.00    +0.165 A 
ATOM     13  C   UNL     1      10.542   1.207  24.535  0.00  0.00    +0.050 A 
ATOM     14  C   UNL     1      10.208  -0.109  24.849  0.00  0.00    +0.015 A 
ATOM     15  C   UNL     1       9.507  -0.889  23.929  0.00  0.00    +0.025 A 
ATOM     16  C   UNL     1       9.306  -0.392  22.629  0.00  0.00    +0.060 A 
ATOM     17  C   UNL     1       9.609   0.944  22.348  0.00  0.00    +0.159 A 
BRANCH  17  18
ATOM     18  O   UNL     1       9.334   1.427  21.100  0.00  0.00    -0.503 OA
ATOM     19  H   UNL     1      10.085   2.007  20.865  0.00  0.00    +0.292 HD
ENDBRANCH  17  18
BRANCH  12  20
ATOM     20  O   UNL     1      10.016   3.152  23.129  0.00  0.00    -0.457 OA
BRANCH  20  24
ATOM     21  C   UNL     1       5.856   2.562  22.731  0.00  0.00    +0.041 C 
ATOM     22  C   UNL     1       6.532   3.794  22.136  0.00  0.00    +0.150 C 
ATOM     23  O   UNL     1       7.947   3.616  22.027  0.00  0.00    -0.334 OA
ATOM     24  C   UNL     1       8.664   3.650  23.275  0.00  0.00    +0.339 C 
ATOM     25  C   UNL     1       8.582   5.089  23.821  0.00  0.00    +0.214 C 
ATOM     26  C   UNL     1       7.087   5.426  24.060  0.00  0.00    +0.180 C 
ATOM     27  C   UNL     1       6.203   5.127  22.833  0.00  0.00    +0.174 C 
BRANCH  27  28
ATOM     28  O   UNL     1       6.400   6.186  21.881  0.00  0.00    -0.387 OA
ATOM     29  H   UNL     1       5.849   6.946  22.149  0.00  0.00    +0.210 HD
ENDBRANCH  27  28
BRANCH  26  30
ATOM     30  O   UNL     1       6.631   4.748  25.247  0.00  0.00    -0.386 OA
ATOM     31  H   UNL     1       7.227   4.020  25.484  0.00  0.00    +0.210 HD
ENDBRANCH  26  30
BRANCH  25  32
ATOM     32  O   UNL     1       9.300   5.236  25.052  0.00  0.00    -0.383 OA
ATOM     33  H   UNL     1       8.643   5.165  25.774  0.00  0.00    +0.210 HD
ENDBRANCH  25  32
ENDBRANCH  20  24
ENDBRANCH  12  20
ENDBRANCH   1  15
BRANCH   5  34
ATOM     34  O   UNL     1       5.896  -5.851  26.253  0.00  0.00    -0.506 OA
ATOM     35  H   UNL     1       6.104  -6.812  26.318  0.00  0.00    +0.292 HD
ENDBRANCH   5  34
BRANCH   7  36
ATOM     36  O   UNL     1       5.938  -6.454  21.543  0.00  0.00    -0.507 OA
ATOM     37  H   UNL     1       5.192  -7.034  21.772  0.00  0.00    +0.292 HD
ENDBRANCH   7  36
BRANCH  11  38
ATOM     38  O   UNL     1       8.373  -1.133  26.638  0.00  0.00    -0.453 OA
BRANCH  38  39
ATOM     39  C   UNL     1       7.273  -0.761  27.487  0.00  0.00    +0.340 C 
ATOM     40  O   UNL     1       5.967  -0.874  26.902  0.00  0.00    -0.331 OA
ATOM     41  C   UNL     1       5.506   0.117  25.975  0.00  0.00    +0.179 C 
ATOM     42  C   UNL     1       5.856   1.560  26.354  0.00  0.00    +0.177 C 
ATOM     43  C   UNL     1       7.285   1.681  26.882  0.00  0.00    +0.180 C 
ATOM     44  C   UNL     1       7.522   0.672  28.017  0.00  0.00    +0.214 C 
BRANCH  42  45
ATOM     45  O   UNL     1       4.958   2.016  27.391  0.00  0.00    -0.386 OA
ATOM     46  H   UNL     1       4.826   1.234  27.972  0.00  0.00    +0.210 HD
ENDBRANCH  42  45
BRANCH  43  47
ATOM     47  O   UNL     1       7.469   3.029  27.349  0.00  0.00    -0.386 OA
ATOM     48  H   UNL     1       6.617   3.320  27.720  0.00  0.00    +0.210 HD
ENDBRANCH  43  47
BRANCH  44  49
ATOM     49  O   UNL     1       6.678   0.946  29.152  0.00  0.00    -0.383 OA
ATOM     50  H   UNL     1       5.865   0.411  29.040  0.00  0.00    +0.210 HD
ENDBRANCH  44  49
BRANCH  41  51
ATOM     51  C   UNL     1       5.912  -0.244  24.544  0.00  0.00    +0.190 C 
BRANCH  51  52
ATOM     52  O   UNL     1       5.247  -1.410  24.076  0.00  0.00    -0.392 OA
ATOM     53  H   UNL     1       4.441  -1.109  23.623  0.00  0.00    +0.210 HD
ENDBRANCH  51  52
ENDBRANCH  41  51
ENDBRANCH  38  39
ENDBRANCH  11  38
TORSDOF 16
ENDMDL
MODEL 7
REMARK VINA RESULT:      -7.1      2.044      5.929
REMARK  Name = 
REMARK  17 active torsions:
REMARK  status: ('A' for Active; 'I' for Inactive)
REMARK    1  A    between atoms: C_1  and  C_2
REMARK    2  A    between atoms: C_4  and  O_53
REMARK    3  A    between atoms: C_6  and  O_52
REMARK    4  A    between atoms: C_8  and  O_51
REMARK    5  A    between atoms: C_10  and  O_13
REMARK    6  A    between atoms: O_13  and  C_14
REMARK    7  A    between atoms: C_15  and  O_50
REMARK    8  A    between atoms: C_17  and  C_20
REMARK    9  A    between atoms: C_21  and  O_33
REMARK   10  A    between atoms: C_25  and  O_32
REMARK   11  A    between atoms: C_27  and  O_31
REMARK   12  A    between atoms: O_33  and  C_34
REMARK   13  A    between atoms: C_36  and  O_49
REMARK   14  A    between atoms: C_38  and  O_48
REMARK   15  A    between atoms: C_40  and  O_47
REMARK   16  A    between atoms: C_42  and  C_45
REMARK   17  A    between atoms: C_45  and  O_46
REMARK                            x       y       z     vdW  Elec       q    Type
REMARK                         _______ _______ _______ _____ _____    ______ ____
ROOT
ATOM      1  C   UNL     1       6.739  -0.604  26.661  0.00  0.00    +0.181 A 
ATOM      2  O   UNL     1       5.620  -0.903  27.433  0.00  0.00    -0.451 OA
ATOM      3  C   UNL     1       4.920   0.115  28.009  0.00  0.00    +0.147 A 
ATOM      4  C   UNL     1       5.436   1.405  28.082  0.00  0.00    +0.109 A 
ATOM      5  C   UNL     1       4.720   2.388  28.769  0.00  0.00    +0.135 A 
ATOM      6  C   UNL     1       3.484   2.099  29.355  0.00  0.00    +0.091 A 
ATOM      7  C   UNL     1       2.968   0.812  29.244  0.00  0.00    +0.124 A 
ATOM      8  C   UNL     1       6.721   1.674  27.440  0.00  0.00    +0.238 A 
ATOM      9  O   UNL     1       7.277   2.732  27.705  0.00  0.00    -0.283 OA
ATOM     10  C   UNL     1       3.675  -0.182  28.572  0.00  0.00    +0.092 A 
ATOM     11  C   UNL     1       7.279   0.626  26.521  0.00  0.00    +0.214 A 
ENDROOT
BRANCH   1  15
ATOM     12  C   UNL     1       7.073  -4.520  25.175  0.00  0.00    +0.165 A 
ATOM     13  C   UNL     1       6.588  -3.506  24.347  0.00  0.00    +0.050 A 
ATOM     14  C   UNL     1       6.607  -2.177  24.769  0.00  0.00    +0.015 A 
ATOM     15  C   UNL     1       7.196  -1.840  25.988  0.00  0.00    +0.025 A 
ATOM     16  C   UNL     1       7.920  -2.822  26.688  0.00  0.00    +0.060 A 
ATOM     17  C   UNL     1       7.853  -4.155  26.272  0.00  0.00    +0.159 A 
BRANCH  17  18
ATOM     18  O   UNL     1       8.501  -5.104  27.011  0.00  0.00    -0.503 OA
ATOM     19  H   UNL     1       8.220  -5.966  26.648  0.00  0.00    +0.292 HD
ENDBRANCH  17  18
BRANCH  12  20
ATOM     20  O   UNL     1       6.732  -5.856  25.047  0.00  0.00    -0.457 OA
BRANCH  20  24
ATOM     21  C   UNL     1       3.029  -5.412  27.023  0.00  0.00    +0.041 C 
ATOM     22  C   UNL     1       3.490  -6.778  26.523  0.00  0.00    +0.150 C 
ATOM     23  O   UNL     1       4.895  -6.793  26.254  0.00  0.00    -0.334 OA
ATOM     24  C   UNL     1       5.300  -6.068  25.079  0.00  0.00    +0.339 C 
ATOM     25  C   UNL     1       4.750  -6.824  23.852  0.00  0.00    +0.214 C 
ATOM     26  C   UNL     1       3.203  -6.844  23.956  0.00  0.00    +0.180 C 
ATOM     27  C   UNL     1       2.702  -7.342  25.326  0.00  0.00    +0.174 C 
BRANCH  27  28
ATOM     28  O   UNL     1       2.828  -8.774  25.346  0.00  0.00    -0.387 OA
ATOM     29  H   UNL     1       1.932  -9.162  25.336  0.00  0.00    +0.210 HD
ENDBRANCH  27  28
BRANCH  26  30
ATOM     30  O   UNL     1       2.687  -5.541  23.621  0.00  0.00    -0.386 OA
ATOM     31  H   UNL     1       2.483  -5.030  24.420  0.00  0.00    +0.210 HD
ENDBRANCH  26  30
BRANCH  25  32
ATOM     32  O   UNL     1       5.131  -6.196  22.622  0.00  0.00    -0.383 OA
ATOM     33  H   UNL     1       5.592  -6.874  22.089  0.00  0.00    +0.210 HD
ENDBRANCH  25  32
ENDBRANCH  20  24
ENDBRANCH  12  20
ENDBRANCH   1  15
BRANCH   5  34
ATOM     34  O   UNL     1       5.170   3.674  28.911  0.00  0.00    -0.506 OA
ATOM     35  H   UNL     1       4.905   3.987  29.807  0.00  0.00    +0.292 HD
ENDBRANCH   5  34
BRANCH   7  36
ATOM     36  O   UNL     1       1.766   0.484  29.797  0.00  0.00    -0.507 OA
ATOM     37  H   UNL     1       1.848  -0.372  30.251  0.00  0.00    +0.292 HD
ENDBRANCH   7  36
BRANCH  11  38
ATOM     38  O   UNL     1       8.262   0.875  25.572  0.00  0.00    -0.453 OA
BRANCH  38  39
ATOM     39  C   UNL     1       7.937   1.481  24.308  0.00  0.00    +0.340 C 
ATOM     40  O   UNL     1       7.971   0.607  23.170  0.00  0.00    -0.331 OA
ATOM     41  C   UNL     1       9.226   0.224  22.594  0.00  0.00    +0.179 C 
ATOM     42  C   UNL     1      10.256   1.355  22.497  0.00  0.00    +0.177 C 
ATOM     43  C   UNL     1      10.278   2.217  23.757  0.00  0.00    +0.180 C 
ATOM     44  C   UNL     1       8.860   2.705  24.097  0.00  0.00    +0.214 C 
BRANCH  42  45
ATOM     45  O   UNL     1       9.926   2.209  21.378  0.00  0.00    -0.386 OA
ATOM     46  H   UNL     1      10.779   2.622  21.115  0.00  0.00    +0.210 HD
ENDBRANCH  42  45
BRANCH  43  47
ATOM     47  O   UNL     1      11.157   3.330  23.514  0.00  0.00    -0.386 OA
ATOM     48  H   UNL     1      10.697   4.129  23.829  0.00  0.00    +0.210 HD
ENDBRANCH  43  47
BRANCH  44  49
ATOM     49  O   UNL     1       8.336   3.562  23.065  0.00  0.00    -0.383 OA
ATOM     50  H   UNL     1       8.707   4.456  23.217  0.00  0.00    +0.210 HD
ENDBRANCH  44  49
BRANCH  41  51
ATOM     51  C   UNL     1       9.777  -1.034  23.271  0.00  0.00    +0.190 C 
BRANCH  51  52
ATOM     52  O   UNL     1      10.582  -1.807  22.391  0.00  0.00    -0.392 OA
ATOM     53  H   UNL     1      10.527  -1.382  21.517  0.00  0.00    +0.210 HD
ENDBRANCH  51  52
ENDBRANCH  41  51
ENDBRANCH  38  39
ENDBRANCH  11  38
TORSDOF 16
ENDMDL
MODEL 8
REMARK VINA RESULT:      -7.1      2.069      7.573
REMARK  Name = 
REMARK  17 active torsions:
REMARK  status: ('A' for Active; 'I' for Inactive)
REMARK    1  A    between atoms: C_1  and  C_2
REMARK    2  A    between atoms: C_4  and  O_53
REMARK    3  A    between atoms: C_6  and  O_52
REMARK    4  A    between atoms: C_8  and  O_51
REMARK    5  A    between atoms: C_10  and  O_13
REMARK    6  A    between atoms: O_13  and  C_14
REMARK    7  A    between atoms: C_15  and  O_50
REMARK    8  A    between atoms: C_17  and  C_20
REMARK    9  A    between atoms: C_21  and  O_33
REMARK   10  A    between atoms: C_25  and  O_32
REMARK   11  A    between atoms: C_27  and  O_31
REMARK   12  A    between atoms: O_33  and  C_34
REMARK   13  A    between atoms: C_36  and  O_49
REMARK   14  A    between atoms: C_38  and  O_48
REMARK   15  A    between atoms: C_40  and  O_47
REMARK   16  A    between atoms: C_42  and  C_45
REMARK   17  A    between atoms: C_45  and  O_46
REMARK                            x       y       z     vdW  Elec       q    Type
REMARK                         _______ _______ _______ _____ _____    ______ ____
ROOT
ATOM      1  C   UNL     1       7.615  -2.676  25.518  0.00  0.00    +0.181 A 
ATOM      2  O   UNL     1       7.362  -3.839  24.799  0.00  0.00    -0.451 OA
ATOM      3  C   UNL     1       6.245  -4.566  25.085  0.00  0.00    +0.147 A 
ATOM      4  C   UNL     1       5.505  -4.341  26.241  0.00  0.00    +0.109 A 
ATOM      5  C   UNL     1       4.426  -5.178  26.535  0.00  0.00    +0.135 A 
ATOM      6  C   UNL     1       4.067  -6.217  25.670  0.00  0.00    +0.091 A 
ATOM      7  C   UNL     1       4.797  -6.407  24.502  0.00  0.00    +0.124 A 
ATOM      8  C   UNL     1       5.898  -3.235  27.111  0.00  0.00    +0.238 A 
ATOM      9  O   UNL     1       5.401  -3.186  28.229  0.00  0.00    -0.283 OA
ATOM     10  C   UNL     1       5.883  -5.587  24.201  0.00  0.00    +0.092 A 
ATOM     11  C   UNL     1       6.900  -2.249  26.582  0.00  0.00    +0.214 A 
ENDROOT
BRANCH   1  15
ATOM     12  C   UNL     1      10.083   0.146  23.620  0.00  0.00    +0.165 A 
ATOM     13  C   UNL     1      10.118   0.022  25.010  0.00  0.00    +0.050 A 
ATOM     14  C   UNL     1       9.421  -1.003  25.647  0.00  0.00    +0.015 A 
ATOM     15  C   UNL     1       8.755  -1.969  24.892  0.00  0.00    +0.025 A 
ATOM     16  C   UNL     1       8.949  -1.996  23.500  0.00  0.00    +0.060 A 
ATOM     17  C   UNL     1       9.614  -0.936  22.876  0.00  0.00    +0.159 A 
BRANCH  17  18
ATOM     18  O   UNL     1       9.723  -0.944  21.514  0.00  0.00    -0.503 OA
ATOM     19  H   UNL     1       9.700  -0.007  21.238  0.00  0.00    +0.292 HD
ENDBRANCH  17  18
BRANCH  12  20
ATOM     20  O   UNL     1      10.371   1.317  22.937  0.00  0.00    -0.457 OA
BRANCH  20  24
ATOM     21  C   UNL     1       9.082   4.972  24.606  0.00  0.00    +0.041 C 
ATOM     22  C   UNL     1       8.245   3.705  24.757  0.00  0.00    +0.150 C 
ATOM     23  O   UNL     1       9.015   2.531  24.486  0.00  0.00    -0.334 OA
ATOM     24  C   UNL     1       9.341   2.321  23.100  0.00  0.00    +0.339 C 
ATOM     25  C   UNL     1       8.029   2.000  22.356  0.00  0.00    +0.214 C 
ATOM     26  C   UNL     1       7.085   3.222  22.500  0.00  0.00    +0.180 C 
ATOM     27  C   UNL     1       6.927   3.687  23.961  0.00  0.00    +0.174 C 
BRANCH  27  28
ATOM     28  O   UNL     1       6.025   2.779  24.616  0.00  0.00    -0.387 OA
ATOM     29  H   UNL     1       6.328   2.655  25.536  0.00  0.00    +0.210 HD
ENDBRANCH  27  28
BRANCH  26  30
ATOM     30  O   UNL     1       7.540   4.279  21.631  0.00  0.00    -0.386 OA
ATOM     31  H   UNL     1       8.154   4.870  22.094  0.00  0.00    +0.210 HD
ENDBRANCH  26  30
BRANCH  25  32
ATOM     32  O   UNL     1       8.252   1.739  20.965  0.00  0.00    -0.383 OA
ATOM     33  H   UNL     1       9.160   1.382  20.886  0.00  0.00    +0.210 HD
ENDBRANCH  25  32
ENDBRANCH  20  24
ENDBRANCH  12  20
ENDBRANCH   1  15
BRANCH   5  34
ATOM     34  O   UNL     1       3.664  -5.043  27.665  0.00  0.00    -0.506 OA
ATOM     35  H   UNL     1       2.760  -4.771  27.386  0.00  0.00    +0.292 HD
ENDBRANCH   5  34
BRANCH   7  36
ATOM     36  O   UNL     1       4.483  -7.404  23.627  0.00  0.00    -0.507 OA
ATOM     37  H   UNL     1       4.194  -8.186  24.127  0.00  0.00    +0.292 HD
ENDBRANCH   7  36
BRANCH  11  38
ATOM     38  O   UNL     1       7.087  -0.978  27.110  0.00  0.00    -0.453 OA
BRANCH  38  39
ATOM     39  C   UNL     1       6.448   0.170  26.525  0.00  0.00    +0.340 C 
ATOM     40  O   UNL     1       6.843   1.443  27.059  0.00  0.00    -0.331 OA
ATOM     41  C   UNL     1       6.332   1.882  28.324  0.00  0.00    +0.179 C 
ATOM     42  C   UNL     1       4.846   1.584  28.553  0.00  0.00    +0.177 C 
ATOM     43  C   UNL     1       4.463   0.186  28.070  0.00  0.00    +0.180 C 
ATOM     44  C   UNL     1       4.915  -0.019  26.615  0.00  0.00    +0.214 C 
BRANCH  42  45
ATOM     45  O   UNL     1       4.047   2.542  27.823  0.00  0.00    -0.386 OA
ATOM     46  H   UNL     1       4.664   2.941  27.171  0.00  0.00    +0.210 HD
ENDBRANCH  42  45
BRANCH  43  47
ATOM     47  O   UNL     1       3.035   0.056  28.186  0.00  0.00    -0.386 OA
ATOM     48  H   UNL     1       2.663   0.955  28.136  0.00  0.00    +0.210 HD
ENDBRANCH  43  47
BRANCH  44  49
ATOM     49  O   UNL     1       4.240   0.885  25.720  0.00  0.00    -0.383 OA
ATOM     50  H   UNL     1       4.933   1.361  25.215  0.00  0.00    +0.210 HD
ENDBRANCH  44  49
BRANCH  41  51
ATOM     51  C   UNL     1       7.226   1.398  29.470  0.00  0.00    +0.190 C 
BRANCH  51  52
ATOM     52  O   UNL     1       8.345   0.658  29.001  0.00  0.00    -0.392 OA
ATOM     53  H   UNL     1       9.126   1.225  29.126  0.00  0.00    +0.210 HD
ENDBRANCH  51  52
ENDBRANCH  41  51
ENDBRANCH  38  39
ENDBRANCH  11  38
TORSDOF 16
ENDMDL
MODEL 9
REMARK VINA RESULT:      -7.0      2.031      5.274
REMARK  Name = 
REMARK  17 active torsions:
REMARK  status: ('A' for Active; 'I' for Inactive)
REMARK    1  A    between atoms: C_1  and  C_2
REMARK    2  A    between atoms: C_4  and  O_53
REMARK    3  A    between atoms: C_6  and  O_52
REMARK    4  A    between atoms: C_8  and  O_51
REMARK    5  A    between atoms: C_10  and  O_13
REMARK    6  A    between atoms: O_13  and  C_14
REMARK    7  A    between atoms: C_15  and  O_50
REMARK    8  A    between atoms: C_17  and  C_20
REMARK    9  A    between atoms: C_21  and  O_33
REMARK   10  A    between atoms: C_25  and  O_32
REMARK   11  A    between atoms: C_27  and  O_31
REMARK   12  A    between atoms: O_33  and  C_34
REMARK   13  A    between atoms: C_36  and  O_49
REMARK   14  A    between atoms: C_38  and  O_48
REMARK   15  A    between atoms: C_40  and  O_47
REMARK   16  A    between atoms: C_42  and  C_45
REMARK   17  A    between atoms: C_45  and  O_46
REMARK                            x       y       z     vdW  Elec       q    Type
REMARK                         _______ _______ _______ _____ _____    ______ ____
ROOT
ATOM      1  C   UNL     1       7.418   0.604  25.427  0.00  0.00    +0.181 A 
ATOM      2  O   UNL     1       7.616   1.896  25.904  0.00  0.00    -0.451 OA
ATOM      3  C   UNL     1       8.316   2.785  25.142  0.00  0.00    +0.147 A 
ATOM      4  C   UNL     1       9.067   2.372  24.047  0.00  0.00    +0.109 A 
ATOM      5  C   UNL     1       9.843   3.309  23.360  0.00  0.00    +0.135 A 
ATOM      6  C   UNL     1       9.851   4.654  23.742  0.00  0.00    +0.091 A 
ATOM      7  C   UNL     1       9.068   5.055  24.820  0.00  0.00    +0.124 A 
ATOM      8  C   UNL     1       9.019   0.963  23.665  0.00  0.00    +0.238 A 
ATOM      9  O   UNL     1       9.851   0.563  22.861  0.00  0.00    -0.283 OA
ATOM     10  C   UNL     1       8.298   4.130  25.522  0.00  0.00    +0.092 A 
ATOM     11  C   UNL     1       7.969   0.099  24.302  0.00  0.00    +0.214 A 
ENDROOT
BRANCH   1  15
ATOM     12  C   UNL     1       4.515  -1.969  27.041  0.00  0.00    +0.165 A 
ATOM     13  C   UNL     1       5.869  -2.251  27.229  0.00  0.00    +0.050 A 
ATOM     14  C   UNL     1       6.845  -1.338  26.832  0.00  0.00    +0.015 A 
ATOM     15  C   UNL     1       6.470  -0.093  26.325  0.00  0.00    +0.025 A 
ATOM     16  C   UNL     1       5.119   0.290  26.392  0.00  0.00    +0.060 A 
ATOM     17  C   UNL     1       4.153  -0.654  26.752  0.00  0.00    +0.159 A 
BRANCH  17  18
ATOM     18  O   UNL     1       2.838  -0.283  26.735  0.00  0.00    -0.503 OA
ATOM     19  H   UNL     1       2.822   0.630  26.387  0.00  0.00    +0.292 HD
ENDBRANCH  17  18
BRANCH  12  20
ATOM     20  O   UNL     1       3.520  -2.932  27.006  0.00  0.00    -0.457 OA
BRANCH  20  24
ATOM     21  C   UNL     1       3.776  -5.911  29.984  0.00  0.00    +0.041 C 
ATOM     22  C   UNL     1       5.030  -5.389  29.290  0.00  0.00    +0.150 C 
ATOM     23  O   UNL     1       4.786  -4.144  28.630  0.00  0.00    -0.334 OA
ATOM     24  C   UNL     1       3.991  -4.232  27.434  0.00  0.00    +0.339 C 
ATOM     25  C   UNL     1       4.825  -4.978  26.374  0.00  0.00    +0.214 C 
ATOM     26  C   UNL     1       5.129  -6.399  26.915  0.00  0.00    +0.180 C 
ATOM     27  C   UNL     1       5.720  -6.382  28.338  0.00  0.00    +0.174 C 
BRANCH  27  28
ATOM     28  O   UNL     1       7.105  -6.010  28.235  0.00  0.00    -0.387 OA
ATOM     29  H   UNL     1       7.173  -5.243  27.635  0.00  0.00    +0.210 HD
ENDBRANCH  27  28
BRANCH  26  30
ATOM     30  O   UNL     1       3.940  -7.207  26.821  0.00  0.00    -0.386 OA
ATOM     31  H   UNL     1       3.140  -6.659  26.869  0.00  0.00    +0.210 HD
ENDBRANCH  26  30
BRANCH  25  32
ATOM     32  O   UNL     1       4.129  -5.088  25.126  0.00  0.00    -0.383 OA
ATOM     33  H   UNL     1       3.489  -4.349  25.092  0.00  0.00    +0.210 HD
ENDBRANCH  25  32
ENDBRANCH  20  24
ENDBRANCH  12  20
ENDBRANCH   1  15
BRANCH   5  34
ATOM     34  O   UNL     1      10.632   2.981  22.290  0.00  0.00    -0.506 OA
ATOM     35  H   UNL     1      10.060   2.965  21.489  0.00  0.00    +0.292 HD
ENDBRANCH   5  34
BRANCH   7  36
ATOM     36  O   UNL     1       9.041   6.355  25.228  0.00  0.00    -0.507 OA
ATOM     37  H   UNL     1       9.074   6.934  24.447  0.00  0.00    +0.292 HD
ENDBRANCH   7  36
BRANCH  11  38
ATOM     38  O   UNL     1       7.556  -1.123  23.786  0.00  0.00    -0.453 OA
BRANCH  38  39
ATOM     39  C   UNL     1       8.509  -2.076  23.284  0.00  0.00    +0.340 C 
ATOM     40  O   UNL     1       8.068  -2.875  22.176  0.00  0.00    -0.331 OA
ATOM     41  C   UNL     1       7.175  -3.975  22.393  0.00  0.00    +0.179 C 
ATOM     42  C   UNL     1       7.486  -4.816  23.636  0.00  0.00    +0.177 C 
ATOM     43  C   UNL     1       7.857  -3.946  24.835  0.00  0.00    +0.180 C 
ATOM     44  C   UNL     1       8.981  -2.967  24.458  0.00  0.00    +0.214 C 
BRANCH  42  45
ATOM     45  O   UNL     1       8.603  -5.690  23.357  0.00  0.00    -0.386 OA
ATOM     46  H   UNL     1       9.400  -5.127  23.472  0.00  0.00    +0.210 HD
ENDBRANCH  42  45
BRANCH  43  47
ATOM     47  O   UNL     1       8.275  -4.819  25.900  0.00  0.00    -0.386 OA
ATOM     48  H   UNL     1       8.770  -5.550  25.490  0.00  0.00    +0.210 HD
ENDBRANCH  43  47
BRANCH  44  49
ATOM     49  O   UNL     1      10.193  -3.663  24.110  0.00  0.00    -0.383 OA
ATOM     50  H   UNL     1      10.548  -4.053  24.936  0.00  0.00    +0.210 HD
ENDBRANCH  44  49
BRANCH  41  51
ATOM     51  C   UNL     1       5.716  -3.514  22.328  0.00  0.00    +0.190 C 
BRANCH  51  52
ATOM     52  O   UNL     1       4.813  -4.608  22.236  0.00  0.00    -0.392 OA
ATOM     53  H   UNL     1       5.021  -5.204  22.976  0.00  0.00    +0.210 HD
ENDBRANCH  51  52
ENDBRANCH  41  51
ENDBRANCH  38  39
ENDBRANCH  11  38
TORSDOF 16
ENDMDL
