MODEL 1
REMARK VINA RESULT:      -7.6      0.000      0.000
REMARK  Name = 
REMARK  16 active torsions:
REMARK  status: ('A' for Active; 'I' for Inactive)
REMARK    1  A    between atoms: C_2  and  O_47
REMARK    2  A    between atoms: C_4  and  O_46
REMARK    3  A    between atoms: C_6  and  O_45
REMARK    4  A    between atoms: C_7  and  O_10
REMARK    5  A    between atoms: O_10  and  C_11
REMARK    6  A    between atoms: C_11  and  C_12
REMARK    7  A    between atoms: C_13  and  O_44
REMARK    8  A    between atoms: C_15  and  O_43
REMARK    9  A    between atoms: C_16  and  O_42
REMARK   10  A    between atoms: C_17  and  O_20
REMARK   11  A    between atoms: O_20  and  C_21
REMARK   12  A    between atoms: C_22  and  C_34
REMARK   13  A    between atoms: C_26  and  O_33
REMARK   14  A    between atoms: C_28  and  O_32
REMARK   15  A    between atoms: C_36  and  O_41
REMARK   16  A    between atoms: C_37  and  O_40
REMARK                            x       y       z     vdW  Elec       q    Type
REMARK                         _______ _______ _______ _____ _____    ______ ____
ROOT
ATOM      1  C   UNL     1       7.292  -2.989  22.045  0.00  0.00    +0.179 C 
ATOM      2  O   UNL     1       6.117  -2.325  22.605  0.00  0.00    -0.331 OA
ATOM      3  C   UNL     1       5.763  -2.890  23.892  0.00  0.00    +0.340 C 
ATOM      4  C   UNL     1       5.249  -4.333  23.704  0.00  0.00    +0.214 C 
ATOM      5  C   UNL     1       6.364  -5.152  23.020  0.00  0.00    +0.180 C 
ATOM      6  C   UNL     1       6.895  -4.447  21.754  0.00  0.00    +0.177 C 
ENDROOT
BRANCH   4   7
ATOM      7  O   UNL     1       4.042  -4.351  22.912  0.00  0.00    -0.383 OA
ATOM      8  H   UNL     1       3.718  -3.433  22.878  0.00  0.00    +0.210 HD
ENDBRANCH   4   7
BRANCH   5   9
ATOM      9  O   UNL     1       5.879  -6.455  22.681  0.00  0.00    -0.386 OA
ATOM     10  H   UNL     1       5.359  -6.741  23.460  0.00  0.00    +0.210 HD
ENDBRANCH   5   9
BRANCH   6  11
ATOM     11  O   UNL     1       5.818  -4.454  20.782  0.00  0.00    -0.386 OA
ATOM     12  H   UNL     1       6.085  -3.903  20.022  0.00  0.00    +0.210 HD
ENDBRANCH   6  11
BRANCH   1  13
ATOM     13  C   UNL     1       8.506  -2.773  22.969  0.00  0.00    +0.197 C 
BRANCH  13  14
ATOM     14  O   UNL     1       9.702  -2.261  22.385  0.00  0.00    -0.346 OA
BRANCH  14  17
ATOM     15  C   UNL     1       9.178   0.439  24.773  0.00  0.00    +0.197 C 
ATOM     16  O   UNL     1       8.964  -0.754  24.015  0.00  0.00    -0.346 OA
ATOM     17  C   UNL     1       9.974  -0.988  23.024  0.00  0.00    +0.281 C 
ATOM     18  C   UNL     1       9.954   0.150  21.989  0.00  0.00    +0.201 C 
ATOM     19  C   UNL     1      10.242   1.463  22.749  0.00  0.00    +0.178 C 
ATOM     20  C   UNL     1       9.218   1.676  23.878  0.00  0.00    +0.171 C 
BRANCH  18  21
ATOM     21  O   UNL     1       8.649   0.193  21.374  0.00  0.00    -0.384 OA
ATOM     22  H   UNL     1       8.357  -0.741  21.335  0.00  0.00    +0.210 HD
ENDBRANCH  18  21
BRANCH  19  23
ATOM     23  O   UNL     1      10.290   2.585  21.865  0.00  0.00    -0.386 OA
ATOM     24  H   UNL     1      10.817   2.321  21.087  0.00  0.00    +0.210 HD
ENDBRANCH  19  23
BRANCH  20  25
ATOM     25  O   UNL     1       7.919   1.932  23.329  0.00  0.00    -0.387 OA
ATOM     26  H   UNL     1       7.898   2.887  23.089  0.00  0.00    +0.210 HD
ENDBRANCH  20  25
ENDBRANCH  14  17
ENDBRANCH  13  14
ENDBRANCH   1  13
BRANCH   3  27
ATOM     27  O   UNL     1       4.825  -2.073  24.590  0.00  0.00    -0.453 OA
BRANCH  27  28
ATOM     28  C   UNL     1       5.376  -1.243  25.576  0.00  0.00    +0.214 A 
ATOM     29  C   UNL     1       5.587   0.225  25.327  0.00  0.00    +0.238 A 
ATOM     30  O   UNL     1       5.418   0.713  24.214  0.00  0.00    -0.283 OA
ATOM     31  C   UNL     1       6.015   1.060  26.456  0.00  0.00    +0.109 A 
ATOM     32  C   UNL     1       6.388   0.414  27.629  0.00  0.00    +0.147 A 
ATOM     33  C   UNL     1       6.900   1.154  28.704  0.00  0.00    +0.092 A 
ATOM     34  C   UNL     1       7.038   2.533  28.576  0.00  0.00    +0.124 A 
ATOM     35  C   UNL     1       6.634   3.198  27.418  0.00  0.00    +0.091 A 
ATOM     36  O   UNL     1       6.284  -0.946  27.801  0.00  0.00    -0.451 OA
ATOM     37  C   UNL     1       6.111   2.460  26.367  0.00  0.00    +0.135 A 
ATOM     38  C   UNL     1       5.759  -1.732  26.777  0.00  0.00    +0.181 A 
BRANCH  38  39
ATOM     39  C   UNL     1       5.631  -3.176  27.149  0.00  0.00    +0.025 A 
ATOM     40  C   UNL     1       4.361  -3.745  27.371  0.00  0.00    +0.015 A 
ATOM     41  C   UNL     1       4.215  -5.104  27.685  0.00  0.00    +0.050 A 
ATOM     42  C   UNL     1       5.341  -5.905  27.775  0.00  0.00    +0.158 A 
ATOM     43  C   UNL     1       6.603  -5.363  27.586  0.00  0.00    +0.159 A 
ATOM     44  C   UNL     1       6.757  -4.006  27.301  0.00  0.00    +0.060 A 
BRANCH  42  45
ATOM     45  O   UNL     1       5.203  -7.237  28.041  0.00  0.00    -0.503 OA
ATOM     46  H   UNL     1       4.239  -7.397  28.017  0.00  0.00    +0.292 HD
ENDBRANCH  42  45
BRANCH  43  47
ATOM     47  O   UNL     1       7.680  -6.200  27.684  0.00  0.00    -0.503 OA
ATOM     48  H   UNL     1       7.354  -7.118  27.695  0.00  0.00    +0.292 HD
ENDBRANCH  43  47
ENDBRANCH  38  39
BRANCH  34  49
ATOM     49  O   UNL     1       7.541   3.302  29.580  0.00  0.00    -0.507 OA
ATOM     50  H   UNL     1       8.028   2.737  30.203  0.00  0.00    +0.292 HD
ENDBRANCH  34  49
BRANCH  37  51
ATOM     51  O   UNL     1       5.671   3.131  25.258  0.00  0.00    -0.506 OA
ATOM     52  H   UNL     1       6.388   3.196  24.604  0.00  0.00    +0.292 HD
ENDBRANCH  37  51
ENDBRANCH  27  28
ENDBRANCH   3  27
TORSDOF 16
ENDMDL
MODEL 2
REMARK VINA RESULT:      -7.2      1.430      6.703
REMARK  Name = 
REMARK  16 active torsions:
REMARK  status: ('A' for Active; 'I' for Inactive)
REMARK    1  A    between atoms: C_2  and  O_47
REMARK    2  A    between atoms: C_4  and  O_46
REMARK    3  A    between atoms: C_6  and  O_45
REMARK    4  A    between atoms: C_7  and  O_10
REMARK    5  A    between atoms: O_10  and  C_11
REMARK    6  A    between atoms: C_11  and  C_12
REMARK    7  A    between atoms: C_13  and  O_44
REMARK    8  A    between atoms: C_15  and  O_43
REMARK    9  A    between atoms: C_16  and  O_42
REMARK   10  A    between atoms: C_17  and  O_20
REMARK   11  A    between atoms: O_20  and  C_21
REMARK   12  A    between atoms: C_22  and  C_34
REMARK   13  A    between atoms: C_26  and  O_33
REMARK   14  A    between atoms: C_28  and  O_32
REMARK   15  A    between atoms: C_36  and  O_41
REMARK   16  A    between atoms: C_37  and  O_40
REMARK                            x       y       z     vdW  Elec       q    Type
REMARK                         _______ _______ _______ _____ _____    ______ ____
ROOT
ATOM      1  C   UNL     1       9.789  -0.346  21.977  0.00  0.00    +0.179 C 
ATOM      2  O   UNL     1      10.008  -0.309  23.421  0.00  0.00    -0.331 OA
ATOM      3  C   UNL     1       8.785   0.021  24.126  0.00  0.00    +0.340 C 
ATOM      4  C   UNL     1       8.391   1.483  23.830  0.00  0.00    +0.214 C 
ATOM      5  C   UNL     1       8.215   1.630  22.303  0.00  0.00    +0.180 C 
ATOM      6  C   UNL     1       9.436   1.084  21.533  0.00  0.00    +0.177 C 
ENDROOT
BRANCH   4   7
ATOM      7  O   UNL     1       9.396   2.397  24.319  0.00  0.00    -0.383 OA
ATOM      8  H   UNL     1       9.707   2.038  25.169  0.00  0.00    +0.210 HD
ENDBRANCH   4   7
BRANCH   5   9
ATOM      9  O   UNL     1       8.004   3.004  21.963  0.00  0.00    -0.386 OA
ATOM     10  H   UNL     1       8.902   3.375  21.843  0.00  0.00    +0.210 HD
ENDBRANCH   5   9
BRANCH   6  11
ATOM     11  O   UNL     1      10.554   1.958  21.836  0.00  0.00    -0.386 OA
ATOM     12  H   UNL     1      11.145   1.982  21.060  0.00  0.00    +0.210 HD
ENDBRANCH   6  11
BRANCH   1  13
ATOM     13  C   UNL     1       8.771  -1.451  21.631  0.00  0.00    +0.197 C 
BRANCH  13  14
ATOM     14  O   UNL     1       8.656  -2.552  22.530  0.00  0.00    -0.346 OA
BRANCH  14  17
ATOM     15  C   UNL     1       5.125  -3.282  23.044  0.00  0.00    +0.197 C 
ATOM     16  O   UNL     1       6.446  -2.781  23.261  0.00  0.00    -0.346 OA
ATOM     17  C   UNL     1       7.383  -3.189  22.256  0.00  0.00    +0.281 C 
ATOM     18  C   UNL     1       7.529  -4.721  22.280  0.00  0.00    +0.201 C 
ATOM     19  C   UNL     1       6.136  -5.317  21.989  0.00  0.00    +0.178 C 
ATOM     20  C   UNL     1       5.101  -4.809  23.008  0.00  0.00    +0.171 C 
BRANCH  18  21
ATOM     21  O   UNL     1       7.992  -5.120  23.587  0.00  0.00    -0.384 OA
ATOM     22  H   UNL     1       7.185  -5.167  24.139  0.00  0.00    +0.210 HD
ENDBRANCH  18  21
BRANCH  19  23
ATOM     23  O   UNL     1       6.171  -6.745  21.943  0.00  0.00    -0.386 OA
ATOM     24  H   UNL     1       5.748  -7.021  21.108  0.00  0.00    +0.210 HD
ENDBRANCH  19  23
BRANCH  20  25
ATOM     25  O   UNL     1       5.382  -5.340  24.309  0.00  0.00    -0.387 OA
ATOM     26  H   UNL     1       5.289  -4.593  24.944  0.00  0.00    +0.210 HD
ENDBRANCH  20  25
ENDBRANCH  14  17
ENDBRANCH  13  14
ENDBRANCH   1  13
BRANCH   3  27
ATOM     27  O   UNL     1       8.895  -0.232  25.526  0.00  0.00    -0.453 OA
BRANCH  27  28
ATOM     28  C   UNL     1       7.949  -1.126  26.045  0.00  0.00    +0.214 A 
ATOM     29  C   UNL     1       8.210  -2.607  26.066  0.00  0.00    +0.238 A 
ATOM     30  O   UNL     1       9.189  -3.090  25.506  0.00  0.00    -0.283 OA
ATOM     31  C   UNL     1       7.248  -3.465  26.771  0.00  0.00    +0.109 A 
ATOM     32  C   UNL     1       6.061  -2.883  27.201  0.00  0.00    +0.147 A 
ATOM     33  C   UNL     1       5.066  -3.676  27.789  0.00  0.00    +0.092 A 
ATOM     34  C   UNL     1       5.278  -5.044  27.924  0.00  0.00    +0.124 A 
ATOM     35  C   UNL     1       6.478  -5.635  27.529  0.00  0.00    +0.091 A 
ATOM     36  O   UNL     1       5.798  -1.540  27.078  0.00  0.00    -0.451 OA
ATOM     37  C   UNL     1       7.465  -4.841  26.966  0.00  0.00    +0.135 A 
ATOM     38  C   UNL     1       6.760  -0.696  26.525  0.00  0.00    +0.181 A 
BRANCH  38  39
ATOM     39  C   UNL     1       6.359   0.746  26.540  0.00  0.00    +0.025 A 
ATOM     40  C   UNL     1       5.293   1.198  25.737  0.00  0.00    +0.015 A 
ATOM     41  C   UNL     1       4.877   2.536  25.762  0.00  0.00    +0.050 A 
ATOM     42  C   UNL     1       5.524   3.433  26.595  0.00  0.00    +0.158 A 
ATOM     43  C   UNL     1       6.593   3.018  27.375  0.00  0.00    +0.159 A 
ATOM     44  C   UNL     1       7.030   1.695  27.334  0.00  0.00    +0.060 A 
BRANCH  42  45
ATOM     45  O   UNL     1       5.099   4.729  26.654  0.00  0.00    -0.503 OA
ATOM     46  H   UNL     1       4.878   4.960  25.730  0.00  0.00    +0.292 HD
ENDBRANCH  42  45
BRANCH  43  47
ATOM     47  O   UNL     1       7.194   3.946  28.182  0.00  0.00    -0.503 OA
ATOM     48  H   UNL     1       7.271   4.779  27.684  0.00  0.00    +0.292 HD
ENDBRANCH  43  47
ENDBRANCH  38  39
BRANCH  34  49
ATOM     49  O   UNL     1       4.342  -5.866  28.474  0.00  0.00    -0.507 OA
ATOM     50  H   UNL     1       4.116  -5.545  29.363  0.00  0.00    +0.292 HD
ENDBRANCH  34  49
BRANCH  37  51
ATOM     51  O   UNL     1       8.657  -5.424  26.632  0.00  0.00    -0.506 OA
ATOM     52  H   UNL     1       9.354  -5.126  27.241  0.00  0.00    +0.292 HD
ENDBRANCH  37  51
ENDBRANCH  27  28
ENDBRANCH   3  27
TORSDOF 16
ENDMDL
MODEL 3
REMARK VINA RESULT:      -7.1      2.239      6.824
REMARK  Name = 
REMARK  16 active torsions:
REMARK  status: ('A' for Active; 'I' for Inactive)
REMARK    1  A    between atoms: C_2  and  O_47
REMARK    2  A    between atoms: C_4  and  O_46
REMARK    3  A    between atoms: C_6  and  O_45
REMARK    4  A    between atoms: C_7  and  O_10
REMARK    5  A    between atoms: O_10  and  C_11
REMARK    6  A    between atoms: C_11  and  C_12
REMARK    7  A    between atoms: C_13  and  O_44
REMARK    8  A    between atoms: C_15  and  O_43
REMARK    9  A    between atoms: C_16  and  O_42
REMARK   10  A    between atoms: C_17  and  O_20
REMARK   11  A    between atoms: O_20  and  C_21
REMARK   12  A    between atoms: C_22  and  C_34
REMARK   13  A    between atoms: C_26  and  O_33
REMARK   14  A    between atoms: C_28  and  O_32
REMARK   15  A    between atoms: C_36  and  O_41
REMARK   16  A    between atoms: C_37  and  O_40
REMARK                            x       y       z     vdW  Elec       q    Type
REMARK                         _______ _______ _______ _____ _____    ______ ____
ROOT
ATOM      1  C   UNL     1       5.101  -0.607  26.262  0.00  0.00    +0.179 C 
ATOM      2  O   UNL     1       5.205   0.501  25.315  0.00  0.00    -0.331 OA
ATOM      3  C   UNL     1       6.589   0.868  25.092  0.00  0.00    +0.340 C 
ATOM      4  C   UNL     1       7.175   1.495  26.374  0.00  0.00    +0.214 C 
ATOM      5  C   UNL     1       7.046   0.461  27.513  0.00  0.00    +0.180 C 
ATOM      6  C   UNL     1       5.610  -0.094  27.621  0.00  0.00    +0.177 C 
ENDROOT
BRANCH   4   7
ATOM      7  O   UNL     1       6.484   2.717  26.712  0.00  0.00    -0.383 OA
ATOM      8  H   UNL     1       6.220   3.129  25.871  0.00  0.00    +0.210 HD
ENDBRANCH   4   7
BRANCH   5   9
ATOM      9  O   UNL     1       7.431   1.052  28.758  0.00  0.00    -0.386 OA
ATOM     10  H   UNL     1       7.879   1.887  28.513  0.00  0.00    +0.210 HD
ENDBRANCH   5   9
BRANCH   6  11
ATOM     11  O   UNL     1       4.764   1.002  28.054  0.00  0.00    -0.386 OA
ATOM     12  H   UNL     1       4.633   1.607  27.299  0.00  0.00    +0.210 HD
ENDBRANCH   6  11
BRANCH   1  13
ATOM     13  C   UNL     1       5.799  -1.854  25.686  0.00  0.00    +0.197 C 
BRANCH  13  14
ATOM     14  O   UNL     1       5.359  -2.336  24.418  0.00  0.00    -0.346 OA
BRANCH  14  17
ATOM     15  C   UNL     1       5.636  -5.906  25.081  0.00  0.00    +0.197 C 
ATOM     16  O   UNL     1       5.998  -4.556  24.785  0.00  0.00    -0.346 OA
ATOM     17  C   UNL     1       4.871  -3.685  24.625  0.00  0.00    +0.281 C 
ATOM     18  C   UNL     1       4.031  -4.146  23.422  0.00  0.00    +0.201 C 
ATOM     19  C   UNL     1       3.559  -5.585  23.718  0.00  0.00    +0.178 C 
ATOM     20  C   UNL     1       4.761  -6.509  23.984  0.00  0.00    +0.171 C 
BRANCH  18  21
ATOM     21  O   UNL     1       4.859  -4.113  22.240  0.00  0.00    -0.384 OA
ATOM     22  H   UNL     1       4.570  -3.316  21.750  0.00  0.00    +0.210 HD
ENDBRANCH  18  21
BRANCH  19  23
ATOM     23  O   UNL     1       2.727  -6.094  22.673  0.00  0.00    -0.386 OA
ATOM     24  H   UNL     1       2.744  -5.445  21.944  0.00  0.00    +0.210 HD
ENDBRANCH  19  23
BRANCH  20  25
ATOM     25  O   UNL     1       5.524  -6.690  22.785  0.00  0.00    -0.387 OA
ATOM     26  H   UNL     1       6.288  -7.266  23.021  0.00  0.00    +0.210 HD
ENDBRANCH  20  25
ENDBRANCH  14  17
ENDBRANCH  13  14
ENDBRANCH   1  13
BRANCH   3  27
ATOM     27  O   UNL     1       6.734   1.726  23.960  0.00  0.00    -0.453 OA
BRANCH  27  28
ATOM     28  C   UNL     1       8.018   2.255  23.776  0.00  0.00    +0.214 A 
ATOM     29  C   UNL     1       8.252   3.741  23.759  0.00  0.00    +0.238 A 
ATOM     30  O   UNL     1       7.314   4.532  23.764  0.00  0.00    -0.283 OA
ATOM     31  C   UNL     1       9.639   4.219  23.724  0.00  0.00    +0.109 A 
ATOM     32  C   UNL     1      10.639   3.277  23.510  0.00  0.00    +0.147 A 
ATOM     33  C   UNL     1      11.971   3.691  23.367  0.00  0.00    +0.092 A 
ATOM     34  C   UNL     1      12.273   5.048  23.432  0.00  0.00    +0.124 A 
ATOM     35  C   UNL     1      11.285   6.000  23.682  0.00  0.00    +0.091 A 
ATOM     36  O   UNL     1      10.392   1.928  23.424  0.00  0.00    -0.451 OA
ATOM     37  C   UNL     1       9.972   5.580  23.841  0.00  0.00    +0.135 A 
ATOM     38  C   UNL     1       9.091   1.454  23.584  0.00  0.00    +0.181 A 
BRANCH  38  39
ATOM     39  C   UNL     1       8.999  -0.039  23.550  0.00  0.00    +0.025 A 
ATOM     40  C   UNL     1       9.759  -0.821  24.444  0.00  0.00    +0.015 A 
ATOM     41  C   UNL     1       9.662  -2.219  24.455  0.00  0.00    +0.050 A 
ATOM     42  C   UNL     1       8.799  -2.846  23.572  0.00  0.00    +0.158 A 
ATOM     43  C   UNL     1       8.061  -2.102  22.665  0.00  0.00    +0.159 A 
ATOM     44  C   UNL     1       8.173  -0.712  22.630  0.00  0.00    +0.060 A 
BRANCH  42  45
ATOM     45  O   UNL     1       8.670  -4.206  23.604  0.00  0.00    -0.503 OA
ATOM     46  H   UNL     1       8.440  -4.455  22.686  0.00  0.00    +0.292 HD
ENDBRANCH  42  45
BRANCH  43  47
ATOM     47  O   UNL     1       7.222  -2.773  21.818  0.00  0.00    -0.503 OA
ATOM     48  H   UNL     1       6.305  -2.610  22.104  0.00  0.00    +0.292 HD
ENDBRANCH  43  47
ENDBRANCH  38  39
BRANCH  34  49
ATOM     49  O   UNL     1      13.545   5.510  23.288  0.00  0.00    -0.507 OA
ATOM     50  H   UNL     1      13.690   6.250  23.901  0.00  0.00    +0.292 HD
ENDBRANCH  34  49
BRANCH  37  51
ATOM     51  O   UNL     1       9.022   6.519  24.138  0.00  0.00    -0.506 OA
ATOM     52  H   UNL     1       9.446   7.378  24.308  0.00  0.00    +0.292 HD
ENDBRANCH  37  51
ENDBRANCH  27  28
ENDBRANCH   3  27
TORSDOF 16
ENDMDL
MODEL 4
REMARK VINA RESULT:      -7.0      2.163      6.660
REMARK  Name = 
REMARK  16 active torsions:
REMARK  status: ('A' for Active; 'I' for Inactive)
REMARK    1  A    between atoms: C_2  and  O_47
REMARK    2  A    between atoms: C_4  and  O_46
REMARK    3  A    between atoms: C_6  and  O_45
REMARK    4  A    between atoms: C_7  and  O_10
REMARK    5  A    between atoms: O_10  and  C_11
REMARK    6  A    between atoms: C_11  and  C_12
REMARK    7  A    between atoms: C_13  and  O_44
REMARK    8  A    between atoms: C_15  and  O_43
REMARK    9  A    between atoms: C_16  and  O_42
REMARK   10  A    between atoms: C_17  and  O_20
REMARK   11  A    between atoms: O_20  and  C_21
REMARK   12  A    between atoms: C_22  and  C_34
REMARK   13  A    between atoms: C_26  and  O_33
REMARK   14  A    between atoms: C_28  and  O_32
REMARK   15  A    between atoms: C_36  and  O_41
REMARK   16  A    between atoms: C_37  and  O_40
REMARK                            x       y       z     vdW  Elec       q    Type
REMARK                         _______ _______ _______ _____ _____    ______ ____
ROOT
ATOM      1  C   UNL     1       5.190  -1.454  26.343  0.00  0.00    +0.179 C 
ATOM      2  O   UNL     1       5.215  -0.799  25.037  0.00  0.00    -0.331 OA
ATOM      3  C   UNL     1       5.914   0.468  25.102  0.00  0.00    +0.340 C 
ATOM      4  C   UNL     1       5.097   1.472  25.941  0.00  0.00    +0.214 C 
ATOM      5  C   UNL     1       4.899   0.870  27.348  0.00  0.00    +0.180 C 
ATOM      6  C   UNL     1       4.347  -0.570  27.279  0.00  0.00    +0.177 C 
ENDROOT
BRANCH   4   7
ATOM      7  O   UNL     1       3.823   1.748  25.319  0.00  0.00    -0.383 OA
ATOM      8  H   UNL     1       3.173   1.820  26.039  0.00  0.00    +0.210 HD
ENDBRANCH   4   7
BRANCH   5   9
ATOM      9  O   UNL     1       4.014   1.692  28.115  0.00  0.00    -0.386 OA
ATOM     10  H   UNL     1       3.184   1.721  27.596  0.00  0.00    +0.210 HD
ENDBRANCH   5   9
BRANCH   6  11
ATOM     11  O   UNL     1       2.999  -0.481  26.750  0.00  0.00    -0.386 OA
ATOM     12  H   UNL     1       2.748  -1.356  26.398  0.00  0.00    +0.210 HD
ENDBRANCH   6  11
BRANCH   1  13
ATOM     13  C   UNL     1       6.629  -1.768  26.797  0.00  0.00    +0.197 C 
BRANCH  13  14
ATOM     14  O   UNL     1       7.051  -3.130  26.768  0.00  0.00    -0.346 OA
BRANCH  14  17
ATOM     15  C   UNL     1       4.492  -5.157  28.383  0.00  0.00    +0.197 C 
ATOM     16  O   UNL     1       5.692  -4.409  28.179  0.00  0.00    -0.346 OA
ATOM     17  C   UNL     1       5.854  -3.945  26.832  0.00  0.00    +0.281 C 
ATOM     18  C   UNL     1       5.970  -5.150  25.883  0.00  0.00    +0.201 C 
ATOM     19  C   UNL     1       4.666  -5.964  26.018  0.00  0.00    +0.178 C 
ATOM     20  C   UNL     1       4.434  -6.387  27.479  0.00  0.00    +0.171 C 
BRANCH  18  21
ATOM     21  O   UNL     1       7.109  -5.943  26.279  0.00  0.00    -0.384 OA
ATOM     22  H   UNL     1       7.637  -5.355  26.858  0.00  0.00    +0.210 HD
ENDBRANCH  18  21
BRANCH  19  23
ATOM     23  O   UNL     1       4.652  -7.090  25.137  0.00  0.00    -0.386 OA
ATOM     24  H   UNL     1       3.788  -7.095  24.683  0.00  0.00    +0.210 HD
ENDBRANCH  19  23
BRANCH  20  25
ATOM     25  O   UNL     1       5.422  -7.344  27.882  0.00  0.00    -0.387 OA
ATOM     26  H   UNL     1       4.977  -7.963  28.507  0.00  0.00    +0.210 HD
ENDBRANCH  20  25
ENDBRANCH  14  17
ENDBRANCH  13  14
ENDBRANCH   1  13
BRANCH   3  27
ATOM     27  O   UNL     1       6.216   0.975  23.802  0.00  0.00    -0.453 OA
BRANCH  27  28
ATOM     28  C   UNL     1       7.468   1.589  23.678  0.00  0.00    +0.214 A 
ATOM     29  C   UNL     1       7.599   3.087  23.636  0.00  0.00    +0.238 A 
ATOM     30  O   UNL     1       6.610   3.811  23.567  0.00  0.00    -0.283 OA
ATOM     31  C   UNL     1       8.949   3.662  23.669  0.00  0.00    +0.109 A 
ATOM     32  C   UNL     1      10.023   2.789  23.538  0.00  0.00    +0.147 A 
ATOM     33  C   UNL     1      11.330   3.293  23.461  0.00  0.00    +0.092 A 
ATOM     34  C   UNL     1      11.532   4.669  23.509  0.00  0.00    +0.124 A 
ATOM     35  C   UNL     1      10.467   5.553  23.676  0.00  0.00    +0.091 A 
ATOM     36  O   UNL     1       9.876   1.424  23.473  0.00  0.00    -0.451 OA
ATOM     37  C   UNL     1       9.180   5.046  23.770  0.00  0.00    +0.135 A 
ATOM     38  C   UNL     1       8.604   0.863  23.570  0.00  0.00    +0.181 A 
BRANCH  38  39
ATOM     39  C   UNL     1       8.618  -0.634  23.570  0.00  0.00    +0.025 A 
ATOM     40  C   UNL     1       9.457  -1.339  24.456  0.00  0.00    +0.015 A 
ATOM     41  C   UNL     1       9.460  -2.740  24.499  0.00  0.00    +0.050 A 
ATOM     42  C   UNL     1       8.620  -3.447  23.656  0.00  0.00    +0.158 A 
ATOM     43  C   UNL     1       7.804  -2.777  22.757  0.00  0.00    +0.159 A 
ATOM     44  C   UNL     1       7.816  -1.384  22.690  0.00  0.00    +0.060 A 
BRANCH  42  45
ATOM     45  O   UNL     1       8.589  -4.811  23.720  0.00  0.00    -0.503 OA
ATOM     46  H   UNL     1       7.637  -5.038  23.724  0.00  0.00    +0.292 HD
ENDBRANCH  42  45
BRANCH  43  47
ATOM     47  O   UNL     1       6.991  -3.525  21.950  0.00  0.00    -0.503 OA
ATOM     48  H   UNL     1       7.543  -3.950  21.270  0.00  0.00    +0.292 HD
ENDBRANCH  43  47
ENDBRANCH  38  39
BRANCH  34  49
ATOM     49  O   UNL     1      12.775   5.216  23.426  0.00  0.00    -0.507 OA
ATOM     50  H   UNL     1      13.204   5.173  24.297  0.00  0.00    +0.292 HD
ENDBRANCH  34  49
BRANCH  37  51
ATOM     51  O   UNL     1       8.150   5.921  23.986  0.00  0.00    -0.506 OA
ATOM     52  H   UNL     1       7.926   5.941  24.933  0.00  0.00    +0.292 HD
ENDBRANCH  37  51
ENDBRANCH  27  28
ENDBRANCH   3  27
TORSDOF 16
ENDMDL
MODEL 5
REMARK VINA RESULT:      -7.0      2.296      7.617
REMARK  Name = 
REMARK  16 active torsions:
REMARK  status: ('A' for Active; 'I' for Inactive)
REMARK    1  A    between atoms: C_2  and  O_47
REMARK    2  A    between atoms: C_4  and  O_46
REMARK    3  A    between atoms: C_6  and  O_45
REMARK    4  A    between atoms: C_7  and  O_10
REMARK    5  A    between atoms: O_10  and  C_11
REMARK    6  A    between atoms: C_11  and  C_12
REMARK    7  A    between atoms: C_13  and  O_44
REMARK    8  A    between atoms: C_15  and  O_43
REMARK    9  A    between atoms: C_16  and  O_42
REMARK   10  A    between atoms: C_17  and  O_20
REMARK   11  A    between atoms: O_20  and  C_21
REMARK   12  A    between atoms: C_22  and  C_34
REMARK   13  A    between atoms: C_26  and  O_33
REMARK   14  A    between atoms: C_28  and  O_32
REMARK   15  A    between atoms: C_36  and  O_41
REMARK   16  A    between atoms: C_37  and  O_40
REMARK                            x       y       z     vdW  Elec       q    Type
REMARK                         _______ _______ _______ _____ _____    ______ ____
ROOT
ATOM      1  C   UNL     1       6.365   2.143  26.242  0.00  0.00    +0.179 C 
ATOM      2  O   UNL     1       7.535   1.269  26.203  0.00  0.00    -0.331 OA
ATOM      3  C   UNL     1       7.261   0.000  26.847  0.00  0.00    +0.340 C 
ATOM      4  C   UNL     1       7.080   0.214  28.364  0.00  0.00    +0.214 C 
ATOM      5  C   UNL     1       5.919   1.210  28.571  0.00  0.00    +0.180 C 
ATOM      6  C   UNL     1       6.102   2.485  27.719  0.00  0.00    +0.177 C 
ENDROOT
BRANCH   4   7
ATOM      7  O   UNL     1       8.296   0.714  28.963  0.00  0.00    -0.383 OA
ATOM      8  H   UNL     1       8.563   0.062  29.635  0.00  0.00    +0.210 HD
ENDBRANCH   4   7
BRANCH   5   9
ATOM      9  O   UNL     1       5.815   1.564  29.954  0.00  0.00    -0.386 OA
ATOM     10  H   UNL     1       6.638   1.226  30.363  0.00  0.00    +0.210 HD
ENDBRANCH   5   9
BRANCH   6  11
ATOM     11  O   UNL     1       7.256   3.186  28.250  0.00  0.00    -0.386 OA
ATOM     12  H   UNL     1       7.964   2.535  28.414  0.00  0.00    +0.210 HD
ENDBRANCH   6  11
BRANCH   1  13
ATOM     13  C   UNL     1       5.203   1.496  25.464  0.00  0.00    +0.197 C 
BRANCH  13  14
ATOM     14  O   UNL     1       4.621   2.243  24.397  0.00  0.00    -0.346 OA
BRANCH  14  17
ATOM     15  C   UNL     1       5.109   5.849  24.554  0.00  0.00    +0.197 C 
ATOM     16  O   UNL     1       4.466   4.573  24.543  0.00  0.00    -0.346 OA
ATOM     17  C   UNL     1       5.365   3.484  24.296  0.00  0.00    +0.281 C 
ATOM     18  C   UNL     1       5.980   3.632  22.894  0.00  0.00    +0.201 C 
ATOM     19  C   UNL     1       6.743   4.973  22.869  0.00  0.00    +0.178 C 
ATOM     20  C   UNL     1       5.805   6.141  23.226  0.00  0.00    +0.171 C 
BRANCH  18  21
ATOM     21  O   UNL     1       4.915   3.632  21.920  0.00  0.00    -0.384 OA
ATOM     22  H   UNL     1       4.789   4.573  21.682  0.00  0.00    +0.210 HD
ENDBRANCH  18  21
BRANCH  19  23
ATOM     23  O   UNL     1       7.394   5.188  21.615  0.00  0.00    -0.386 OA
ATOM     24  H   UNL     1       8.271   4.762  21.665  0.00  0.00    +0.210 HD
ENDBRANCH  19  23
BRANCH  20  25
ATOM     25  O   UNL     1       4.835   6.334  22.190  0.00  0.00    -0.387 OA
ATOM     26  H   UNL     1       5.255   6.033  21.351  0.00  0.00    +0.210 HD
ENDBRANCH  20  25
ENDBRANCH  14  17
ENDBRANCH  13  14
ENDBRANCH   1  13
BRANCH   3  27
ATOM     27  O   UNL     1       8.267  -0.970  26.559  0.00  0.00    -0.453 OA
BRANCH  27  28
ATOM     28  C   UNL     1       7.957  -1.857  25.519  0.00  0.00    +0.214 A 
ATOM     29  C   UNL     1       7.275  -3.169  25.794  0.00  0.00    +0.238 A 
ATOM     30  O   UNL     1       7.095  -3.565  26.941  0.00  0.00    -0.283 OA
ATOM     31  C   UNL     1       6.837  -3.971  24.645  0.00  0.00    +0.109 A 
ATOM     32  C   UNL     1       7.254  -3.567  23.382  0.00  0.00    +0.147 A 
ATOM     33  C   UNL     1       6.950  -4.352  22.260  0.00  0.00    +0.092 A 
ATOM     34  C   UNL     1       6.239  -5.535  22.430  0.00  0.00    +0.124 A 
ATOM     35  C   UNL     1       5.784  -5.934  23.687  0.00  0.00    +0.091 A 
ATOM     36  O   UNL     1       7.969  -2.415  23.162  0.00  0.00    -0.451 OA
ATOM     37  C   UNL     1       6.073  -5.143  24.789  0.00  0.00    +0.135 A 
ATOM     38  C   UNL     1       8.279  -1.581  24.235  0.00  0.00    +0.181 A 
BRANCH  38  39
ATOM     39  C   UNL     1       8.983  -0.326  23.823  0.00  0.00    +0.025 A 
ATOM     40  C   UNL     1      10.194   0.048  24.439  0.00  0.00    +0.015 A 
ATOM     41  C   UNL     1      10.890   1.199  24.044  0.00  0.00    +0.050 A 
ATOM     42  C   UNL     1      10.378   1.985  23.025  0.00  0.00    +0.158 A 
ATOM     43  C   UNL     1       9.175   1.653  22.421  0.00  0.00    +0.159 A 
ATOM     44  C   UNL     1       8.465   0.524  22.828  0.00  0.00    +0.060 A 
BRANCH  42  45
ATOM     45  O   UNL     1      11.070   3.086  22.609  0.00  0.00    -0.503 OA
ATOM     46  H   UNL     1      10.400   3.651  22.176  0.00  0.00    +0.292 HD
ENDBRANCH  42  45
BRANCH  43  47
ATOM     47  O   UNL     1       8.719   2.462  21.417  0.00  0.00    -0.503 OA
ATOM     48  H   UNL     1       9.470   2.684  20.838  0.00  0.00    +0.292 HD
ENDBRANCH  43  47
ENDBRANCH  38  39
BRANCH  34  49
ATOM     49  O   UNL     1       5.927  -6.344  21.381  0.00  0.00    -0.507 OA
ATOM     50  H   UNL     1       5.067  -6.766  21.546  0.00  0.00    +0.292 HD
ENDBRANCH  34  49
BRANCH  37  51
ATOM     51  O   UNL     1       5.575  -5.519  26.007  0.00  0.00    -0.506 OA
ATOM     52  H   UNL     1       4.964  -6.269  25.898  0.00  0.00    +0.292 HD
ENDBRANCH  37  51
ENDBRANCH  27  28
ENDBRANCH   3  27
TORSDOF 16
ENDMDL
MODEL 6
REMARK VINA RESULT:      -6.9      1.902      8.524
REMARK  Name = 
REMARK  16 active torsions:
REMARK  status: ('A' for Active; 'I' for Inactive)
REMARK    1  A    between atoms: C_2  and  O_47
REMARK    2  A    between atoms: C_4  and  O_46
REMARK    3  A    between atoms: C_6  and  O_45
REMARK    4  A    between atoms: C_7  and  O_10
REMARK    5  A    between atoms: O_10  and  C_11
REMARK    6  A    between atoms: C_11  and  C_12
REMARK    7  A    between atoms: C_13  and  O_44
REMARK    8  A    between atoms: C_15  and  O_43
REMARK    9  A    between atoms: C_16  and  O_42
REMARK   10  A    between atoms: C_17  and  O_20
REMARK   11  A    between atoms: O_20  and  C_21
REMARK   12  A    between atoms: C_22  and  C_34
REMARK   13  A    between atoms: C_26  and  O_33
REMARK   14  A    between atoms: C_28  and  O_32
REMARK   15  A    between atoms: C_36  and  O_41
REMARK   16  A    between atoms: C_37  and  O_40
REMARK                            x       y       z     vdW  Elec       q    Type
REMARK                         _______ _______ _______ _____ _____    ______ ____
ROOT
ATOM      1  C   UNL     1       4.631  -0.364  27.276  0.00  0.00    +0.179 C 
ATOM      2  O   UNL     1       5.659  -0.321  26.239  0.00  0.00    -0.331 OA
ATOM      3  C   UNL     1       6.982  -0.479  26.810  0.00  0.00    +0.340 C 
ATOM      4  C   UNL     1       7.336   0.763  27.655  0.00  0.00    +0.214 C 
ATOM      5  C   UNL     1       6.265   0.912  28.757  0.00  0.00    +0.180 C 
ATOM      6  C   UNL     1       4.837   0.870  28.173  0.00  0.00    +0.177 C 
ENDROOT
BRANCH   4   7
ATOM      7  O   UNL     1       7.392   1.948  26.832  0.00  0.00    -0.383 OA
ATOM      8  H   UNL     1       8.211   1.884  26.309  0.00  0.00    +0.210 HD
ENDBRANCH   4   7
BRANCH   5   9
ATOM      9  O   UNL     1       6.460   2.138  29.469  0.00  0.00    -0.386 OA
ATOM     10  H   UNL     1       7.057   2.667  28.901  0.00  0.00    +0.210 HD
ENDBRANCH   5   9
BRANCH   6  11
ATOM     11  O   UNL     1       4.672   2.066  27.369  0.00  0.00    -0.386 OA
ATOM     12  H   UNL     1       4.795   1.825  26.431  0.00  0.00    +0.210 HD
ENDBRANCH   6  11
BRANCH   1  13
ATOM     13  C   UNL     1       4.648  -1.738  27.973  0.00  0.00    +0.197 C 
BRANCH  13  14
ATOM     14  O   UNL     1       4.267  -2.877  27.204  0.00  0.00    -0.346 OA
BRANCH  14  17
ATOM     15  C   UNL     1       5.743  -5.622  29.089  0.00  0.00    +0.197 C 
ATOM     16  O   UNL     1       5.600  -4.544  28.162  0.00  0.00    -0.346 OA
ATOM     17  C   UNL     1       4.270  -4.014  28.104  0.00  0.00    +0.281 C 
ATOM     18  C   UNL     1       3.304  -5.102  27.602  0.00  0.00    +0.201 C 
ATOM     19  C   UNL     1       3.372  -6.272  28.606  0.00  0.00    +0.178 C 
ATOM     20  C   UNL     1       4.816  -6.787  28.747  0.00  0.00    +0.171 C 
BRANCH  18  21
ATOM     21  O   UNL     1       3.730  -5.529  26.291  0.00  0.00    -0.384 OA
ATOM     22  H   UNL     1       4.489  -4.952  26.071  0.00  0.00    +0.210 HD
ENDBRANCH  18  21
BRANCH  19  23
ATOM     23  O   UNL     1       2.472  -7.324  28.254  0.00  0.00    -0.386 OA
ATOM     24  H   UNL     1       1.583  -6.930  28.168  0.00  0.00    +0.210 HD
ENDBRANCH  19  23
BRANCH  20  25
ATOM     25  O   UNL     1       5.240  -7.416  27.532  0.00  0.00    -0.387 OA
ATOM     26  H   UNL     1       5.012  -6.797  26.800  0.00  0.00    +0.210 HD
ENDBRANCH  20  25
ENDBRANCH  14  17
ENDBRANCH  13  14
ENDBRANCH   1  13
BRANCH   3  27
ATOM     27  O   UNL     1       7.964  -0.744  25.809  0.00  0.00    -0.453 OA
BRANCH  27  28
ATOM     28  C   UNL     1       7.561  -1.627  24.799  0.00  0.00    +0.214 A 
ATOM     29  C   UNL     1       7.342  -3.088  25.085  0.00  0.00    +0.238 A 
ATOM     30  O   UNL     1       7.643  -3.576  26.170  0.00  0.00    -0.283 OA
ATOM     31  C   UNL     1       6.766  -3.918  24.021  0.00  0.00    +0.109 A 
ATOM     32  C   UNL     1       6.643  -3.352  22.758  0.00  0.00    +0.147 A 
ATOM     33  C   UNL     1       6.194  -4.131  21.682  0.00  0.00    +0.092 A 
ATOM     34  C   UNL     1       5.884  -5.471  21.895  0.00  0.00    +0.124 A 
ATOM     35  C   UNL     1       5.969  -6.042  23.164  0.00  0.00    +0.091 A 
ATOM     36  O   UNL     1       6.948  -2.039  22.493  0.00  0.00    -0.451 OA
ATOM     37  C   UNL     1       6.396  -5.260  24.226  0.00  0.00    +0.135 A 
ATOM     38  C   UNL     1       7.375  -1.208  23.527  0.00  0.00    +0.181 A 
BRANCH  38  39
ATOM     39  C   UNL     1       7.583   0.210  23.097  0.00  0.00    +0.025 A 
ATOM     40  C   UNL     1       6.566   1.168  23.281  0.00  0.00    +0.015 A 
ATOM     41  C   UNL     1       6.752   2.509  22.919  0.00  0.00    +0.050 A 
ATOM     42  C   UNL     1       7.961   2.903  22.372  0.00  0.00    +0.158 A 
ATOM     43  C   UNL     1       8.968   1.975  22.156  0.00  0.00    +0.159 A 
ATOM     44  C   UNL     1       8.780   0.634  22.488  0.00  0.00    +0.060 A 
BRANCH  42  45
ATOM     45  O   UNL     1       8.163   4.216  22.053  0.00  0.00    -0.503 OA
ATOM     46  H   UNL     1       8.059   4.696  22.899  0.00  0.00    +0.292 HD
ENDBRANCH  42  45
BRANCH  43  47
ATOM     47  O   UNL     1      10.143   2.420  21.615  0.00  0.00    -0.503 OA
ATOM     48  H   UNL     1      10.871   2.153  22.205  0.00  0.00    +0.292 HD
ENDBRANCH  43  47
ENDBRANCH  38  39
BRANCH  34  49
ATOM     49  O   UNL     1       5.457  -6.279  20.887  0.00  0.00    -0.507 OA
ATOM     50  H   UNL     1       5.021  -5.740  20.206  0.00  0.00    +0.292 HD
ENDBRANCH  34  49
BRANCH  37  51
ATOM     51  O   UNL     1       6.424  -5.819  25.475  0.00  0.00    -0.506 OA
ATOM     52  H   UNL     1       5.602  -6.315  25.635  0.00  0.00    +0.292 HD
ENDBRANCH  37  51
ENDBRANCH  27  28
ENDBRANCH   3  27
TORSDOF 16
ENDMDL
MODEL 7
REMARK VINA RESULT:      -6.9      1.550      6.864
REMARK  Name = 
REMARK  16 active torsions:
REMARK  status: ('A' for Active; 'I' for Inactive)
REMARK    1  A    between atoms: C_2  and  O_47
REMARK    2  A    between atoms: C_4  and  O_46
REMARK    3  A    between atoms: C_6  and  O_45
REMARK    4  A    between atoms: C_7  and  O_10
REMARK    5  A    between atoms: O_10  and  C_11
REMARK    6  A    between atoms: C_11  and  C_12
REMARK    7  A    between atoms: C_13  and  O_44
REMARK    8  A    between atoms: C_15  and  O_43
REMARK    9  A    between atoms: C_16  and  O_42
REMARK   10  A    between atoms: C_17  and  O_20
REMARK   11  A    between atoms: O_20  and  C_21
REMARK   12  A    between atoms: C_22  and  C_34
REMARK   13  A    between atoms: C_26  and  O_33
REMARK   14  A    between atoms: C_28  and  O_32
REMARK   15  A    between atoms: C_36  and  O_41
REMARK   16  A    between atoms: C_37  and  O_40
REMARK                            x       y       z     vdW  Elec       q    Type
REMARK                         _______ _______ _______ _____ _____    ______ ____
ROOT
ATOM      1  C   UNL     1       8.718  -2.668  22.398  0.00  0.00    +0.179 C 
ATOM      2  O   UNL     1       9.049  -2.621  23.820  0.00  0.00    -0.331 OA
ATOM      3  C   UNL     1       8.440  -1.472  24.460  0.00  0.00    +0.340 C 
ATOM      4  C   UNL     1       9.099  -0.177  23.942  0.00  0.00    +0.214 C 
ATOM      5  C   UNL     1       8.915  -0.128  22.410  0.00  0.00    +0.180 C 
ATOM      6  C   UNL     1       9.371  -1.441  21.738  0.00  0.00    +0.177 C 
ENDROOT
BRANCH   4   7
ATOM      7  O   UNL     1      10.499  -0.136  24.291  0.00  0.00    -0.383 OA
ATOM      8  H   UNL     1      10.940   0.398  23.606  0.00  0.00    +0.210 HD
ENDBRANCH   4   7
BRANCH   5   9
ATOM      9  O   UNL     1       9.646   0.975  21.863  0.00  0.00    -0.386 OA
ATOM     10  H   UNL     1       8.978   1.676  21.726  0.00  0.00    +0.210 HD
ENDBRANCH   5   9
BRANCH   6  11
ATOM     11  O   UNL     1      10.809  -1.527  21.910  0.00  0.00    -0.386 OA
ATOM     12  H   UNL     1      11.233  -0.943  21.253  0.00  0.00    +0.210 HD
ENDBRANCH   6  11
BRANCH   1  13
ATOM     13  C   UNL     1       7.195  -2.821  22.220  0.00  0.00    +0.197 C 
BRANCH  13  14
ATOM     14  O   UNL     1       6.691  -4.116  21.896  0.00  0.00    -0.346 OA
BRANCH  14  17
ATOM     15  C   UNL     1       4.149  -3.747  24.477  0.00  0.00    +0.197 C 
ATOM     16  O   UNL     1       5.424  -3.781  23.833  0.00  0.00    -0.346 OA
ATOM     17  C   UNL     1       5.361  -4.207  22.466  0.00  0.00    +0.281 C 
ATOM     18  C   UNL     1       4.844  -5.654  22.401  0.00  0.00    +0.201 C 
ATOM     19  C   UNL     1       3.435  -5.664  23.031  0.00  0.00    +0.178 C 
ATOM     20  C   UNL     1       3.477  -5.119  24.469  0.00  0.00    +0.171 C 
BRANCH  18  21
ATOM     21  O   UNL     1       5.743  -6.500  23.147  0.00  0.00    -0.384 OA
ATOM     22  H   UNL     1       6.338  -6.894  22.476  0.00  0.00    +0.210 HD
ENDBRANCH  18  21
BRANCH  19  23
ATOM     23  O   UNL     1       2.843  -6.964  22.979  0.00  0.00    -0.386 OA
ATOM     24  H   UNL     1       3.159  -7.397  22.163  0.00  0.00    +0.210 HD
ENDBRANCH  19  23
BRANCH  20  25
ATOM     25  O   UNL     1       4.188  -6.023  25.323  0.00  0.00    -0.387 OA
ATOM     26  H   UNL     1       5.088  -5.641  25.451  0.00  0.00    +0.210 HD
ENDBRANCH  20  25
ENDBRANCH  14  17
ENDBRANCH  13  14
ENDBRANCH   1  13
BRANCH   3  27
ATOM     27  O   UNL     1       8.491  -1.568  25.883  0.00  0.00    -0.453 OA
BRANCH  27  28
ATOM     28  C   UNL     1       7.390  -2.197  26.477  0.00  0.00    +0.214 A 
ATOM     29  C   UNL     1       7.427  -3.658  26.831  0.00  0.00    +0.238 A 
ATOM     30  O   UNL     1       8.361  -4.374  26.485  0.00  0.00    -0.283 OA
ATOM     31  C   UNL     1       6.302  -4.209  27.597  0.00  0.00    +0.109 A 
ATOM     32  C   UNL     1       5.186  -3.400  27.775  0.00  0.00    +0.147 A 
ATOM     33  C   UNL     1       4.044  -3.910  28.409  0.00  0.00    +0.092 A 
ATOM     34  C   UNL     1       4.042  -5.231  28.846  0.00  0.00    +0.124 A 
ATOM     35  C   UNL     1       5.168  -6.043  28.706  0.00  0.00    +0.091 A 
ATOM     36  O   UNL     1       5.132  -2.094  27.350  0.00  0.00    -0.451 OA
ATOM     37  C   UNL     1       6.299  -5.525  28.094  0.00  0.00    +0.135 A 
ATOM     38  C   UNL     1       6.245  -1.523  26.735  0.00  0.00    +0.181 A 
BRANCH  38  39
ATOM     39  C   UNL     1       6.061  -0.074  26.410  0.00  0.00    +0.025 A 
ATOM     40  C   UNL     1       6.613   0.919  27.243  0.00  0.00    +0.015 A 
ATOM     41  C   UNL     1       6.484   2.282  26.939  0.00  0.00    +0.050 A 
ATOM     42  C   UNL     1       5.803   2.660  25.795  0.00  0.00    +0.158 A 
ATOM     43  C   UNL     1       5.229   1.703  24.972  0.00  0.00    +0.159 A 
ATOM     44  C   UNL     1       5.330   0.348  25.284  0.00  0.00    +0.060 A 
BRANCH  42  45
ATOM     45  O   UNL     1       5.708   3.983  25.471  0.00  0.00    -0.503 OA
ATOM     46  H   UNL     1       6.372   4.115  24.765  0.00  0.00    +0.292 HD
ENDBRANCH  42  45
BRANCH  43  47
ATOM     47  O   UNL     1       4.570   2.133  23.853  0.00  0.00    -0.503 OA
ATOM     48  H   UNL     1       3.663   2.378  24.107  0.00  0.00    +0.292 HD
ENDBRANCH  43  47
ENDBRANCH  38  39
BRANCH  34  49
ATOM     49  O   UNL     1       2.959  -5.785  29.457  0.00  0.00    -0.507 OA
ATOM     50  H   UNL     1       3.077  -5.741  30.421  0.00  0.00    +0.292 HD
ENDBRANCH  34  49
BRANCH  37  51
ATOM     51  O   UNL     1       7.412  -6.316  28.011  0.00  0.00    -0.506 OA
ATOM     52  H   UNL     1       8.139  -5.822  27.593  0.00  0.00    +0.292 HD
ENDBRANCH  37  51
ENDBRANCH  27  28
ENDBRANCH   3  27
TORSDOF 16
ENDMDL
MODEL 8
REMARK VINA RESULT:      -6.9      2.000      5.811
REMARK  Name = 
REMARK  16 active torsions:
REMARK  status: ('A' for Active; 'I' for Inactive)
REMARK    1  A    between atoms: C_2  and  O_47
REMARK    2  A    between atoms: C_4  and  O_46
REMARK    3  A    between atoms: C_6  and  O_45
REMARK    4  A    between atoms: C_7  and  O_10
REMARK    5  A    between atoms: O_10  and  C_11
REMARK    6  A    between atoms: C_11  and  C_12
REMARK    7  A    between atoms: C_13  and  O_44
REMARK    8  A    between atoms: C_15  and  O_43
REMARK    9  A    between atoms: C_16  and  O_42
REMARK   10  A    between atoms: C_17  and  O_20
REMARK   11  A    between atoms: O_20  and  C_21
REMARK   12  A    between atoms: C_22  and  C_34
REMARK   13  A    between atoms: C_26  and  O_33
REMARK   14  A    between atoms: C_28  and  O_32
REMARK   15  A    between atoms: C_36  and  O_41
REMARK   16  A    between atoms: C_37  and  O_40
REMARK                            x       y       z     vdW  Elec       q    Type
REMARK                         _______ _______ _______ _____ _____    ______ ____
ROOT
ATOM      1  C   UNL     1       9.339   0.224  22.973  0.00  0.00    +0.179 C 
ATOM      2  O   UNL     1       8.014  -0.235  22.564  0.00  0.00    -0.331 OA
ATOM      3  C   UNL     1       7.453  -1.146  23.542  0.00  0.00    +0.340 C 
ATOM      4  C   UNL     1       8.255  -2.464  23.546  0.00  0.00    +0.214 C 
ATOM      5  C   UNL     1       9.726  -2.128  23.873  0.00  0.00    +0.180 C 
ATOM      6  C   UNL     1      10.268  -1.002  22.966  0.00  0.00    +0.177 C 
ENDROOT
BRANCH   4   7
ATOM      7  O   UNL     1       8.155  -3.133  22.270  0.00  0.00    -0.383 OA
ATOM      8  H   UNL     1       8.968  -2.919  21.780  0.00  0.00    +0.210 HD
ENDBRANCH   4   7
BRANCH   5   9
ATOM      9  O   UNL     1      10.540  -3.296  23.734  0.00  0.00    -0.386 OA
ATOM     10  H   UNL     1      10.778  -3.326  22.785  0.00  0.00    +0.210 HD
ENDBRANCH   5   9
BRANCH   6  11
ATOM     11  O   UNL     1      10.329  -1.536  21.619  0.00  0.00    -0.386 OA
ATOM     12  H   UNL     1      11.241  -1.838  21.448  0.00  0.00    +0.210 HD
ENDBRANCH   6  11
BRANCH   1  13
ATOM     13  C   UNL     1       9.236   1.008  24.295  0.00  0.00    +0.197 C 
BRANCH  13  14
ATOM     14  O   UNL     1       8.144   1.913  24.447  0.00  0.00    -0.346 OA
BRANCH  14  17
ATOM     15  C   UNL     1       8.116   5.255  25.894  0.00  0.00    +0.197 C 
ATOM     16  O   UNL     1       7.660   3.996  25.396  0.00  0.00    -0.346 OA
ATOM     17  C   UNL     1       8.706   3.192  24.834  0.00  0.00    +0.281 C 
ATOM     18  C   UNL     1       9.307   3.910  23.614  0.00  0.00    +0.201 C 
ATOM     19  C   UNL     1       9.873   5.257  24.108  0.00  0.00    +0.178 C 
ATOM     20  C   UNL     1       8.777   6.089  24.798  0.00  0.00    +0.171 C 
BRANCH  18  21
ATOM     21  O   UNL     1       8.263   4.121  22.641  0.00  0.00    -0.384 OA
ATOM     22  H   UNL     1       7.827   3.250  22.543  0.00  0.00    +0.210 HD
ENDBRANCH  18  21
BRANCH  19  23
ATOM     23  O   UNL     1      10.500   5.987  23.052  0.00  0.00    -0.386 OA
ATOM     24  H   UNL     1      11.298   5.492  22.788  0.00  0.00    +0.210 HD
ENDBRANCH  19  23
BRANCH  20  25
ATOM     25  O   UNL     1       7.799   6.514  23.841  0.00  0.00    -0.387 OA
ATOM     26  H   UNL     1       7.850   5.882  23.087  0.00  0.00    +0.210 HD
ENDBRANCH  20  25
ENDBRANCH  14  17
ENDBRANCH  13  14
ENDBRANCH   1  13
BRANCH   3  27
ATOM     27  O   UNL     1       6.060  -1.367  23.324  0.00  0.00    -0.453 OA
BRANCH  27  28
ATOM     28  C   UNL     1       5.475  -2.336  24.149  0.00  0.00    +0.214 A 
ATOM     29  C   UNL     1       4.960  -3.631  23.583  0.00  0.00    +0.238 A 
ATOM     30  O   UNL     1       4.907  -3.819  22.372  0.00  0.00    -0.283 OA
ATOM     31  C   UNL     1       4.509  -4.663  24.525  0.00  0.00    +0.109 A 
ATOM     32  C   UNL     1       4.401  -4.309  25.865  0.00  0.00    +0.147 A 
ATOM     33  C   UNL     1       3.880  -5.223  26.791  0.00  0.00    +0.092 A 
ATOM     34  C   UNL     1       3.468  -6.477  26.350  0.00  0.00    +0.124 A 
ATOM     35  C   UNL     1       3.604  -6.858  25.015  0.00  0.00    +0.091 A 
ATOM     36  O   UNL     1       4.781  -3.080  26.348  0.00  0.00    -0.451 OA
ATOM     37  C   UNL     1       4.137  -5.954  24.109  0.00  0.00    +0.135 A 
ATOM     38  C   UNL     1       5.330  -2.137  25.479  0.00  0.00    +0.181 A 
BRANCH  38  39
ATOM     39  C   UNL     1       5.773  -0.886  26.170  0.00  0.00    +0.025 A 
ATOM     40  C   UNL     1       5.038   0.308  26.024  0.00  0.00    +0.015 A 
ATOM     41  C   UNL     1       5.413   1.482  26.691  0.00  0.00    +0.050 A 
ATOM     42  C   UNL     1       6.527   1.470  27.512  0.00  0.00    +0.158 A 
ATOM     43  C   UNL     1       7.283   0.315  27.652  0.00  0.00    +0.159 A 
ATOM     44  C   UNL     1       6.930  -0.849  26.970  0.00  0.00    +0.060 A 
BRANCH  42  45
ATOM     45  O   UNL     1       6.877   2.600  28.195  0.00  0.00    -0.503 OA
ATOM     46  H   UNL     1       6.087   3.175  28.145  0.00  0.00    +0.292 HD
ENDBRANCH  42  45
BRANCH  43  47
ATOM     47  O   UNL     1       8.371   0.359  28.479  0.00  0.00    -0.503 OA
ATOM     48  H   UNL     1       9.174   0.378  27.927  0.00  0.00    +0.292 HD
ENDBRANCH  43  47
ENDBRANCH  38  39
BRANCH  34  49
ATOM     49  O   UNL     1       2.942  -7.401  27.200  0.00  0.00    -0.507 OA
ATOM     50  H   UNL     1       2.888  -8.260  26.748  0.00  0.00    +0.292 HD
ENDBRANCH  34  49
BRANCH  37  51
ATOM     51  O   UNL     1       4.314  -6.359  22.814  0.00  0.00    -0.506 OA
ATOM     52  H   UNL     1       4.454  -5.586  22.241  0.00  0.00    +0.292 HD
ENDBRANCH  37  51
ENDBRANCH  27  28
ENDBRANCH   3  27
TORSDOF 16
ENDMDL
MODEL 9
REMARK VINA RESULT:      -6.7      1.658      2.146
REMARK  Name = 
REMARK  16 active torsions:
REMARK  status: ('A' for Active; 'I' for Inactive)
REMARK    1  A    between atoms: C_2  and  O_47
REMARK    2  A    between atoms: C_4  and  O_46
REMARK    3  A    between atoms: C_6  and  O_45
REMARK    4  A    between atoms: C_7  and  O_10
REMARK    5  A    between atoms: O_10  and  C_11
REMARK    6  A    between atoms: C_11  and  C_12
REMARK    7  A    between atoms: C_13  and  O_44
REMARK    8  A    between atoms: C_15  and  O_43
REMARK    9  A    between atoms: C_16  and  O_42
REMARK   10  A    between atoms: C_17  and  O_20
REMARK   11  A    between atoms: O_20  and  C_21
REMARK   12  A    between atoms: C_22  and  C_34
REMARK   13  A    between atoms: C_26  and  O_33
REMARK   14  A    between atoms: C_28  and  O_32
REMARK   15  A    between atoms: C_36  and  O_41
REMARK   16  A    between atoms: C_37  and  O_40
REMARK                            x       y       z     vdW  Elec       q    Type
REMARK                         _______ _______ _______ _____ _____    ______ ____
ROOT
ATOM      1  C   UNL     1       6.976  -2.780  22.645  0.00  0.00    +0.179 C 
ATOM      2  O   UNL     1       6.587  -2.957  24.042  0.00  0.00    -0.331 OA
ATOM      3  C   UNL     1       7.348  -4.021  24.665  0.00  0.00    +0.340 C 
ATOM      4  C   UNL     1       6.945  -5.378  24.053  0.00  0.00    +0.214 C 
ATOM      5  C   UNL     1       7.210  -5.315  22.533  0.00  0.00    +0.180 C 
ATOM      6  C   UNL     1       6.573  -4.062  21.895  0.00  0.00    +0.177 C 
ENDROOT
BRANCH   4   7
ATOM      7  O   UNL     1       5.555  -5.670  24.317  0.00  0.00    -0.383 OA
ATOM      8  H   UNL     1       5.501  -6.626  24.494  0.00  0.00    +0.210 HD
ENDBRANCH   4   7
BRANCH   5   9
ATOM      9  O   UNL     1       6.705  -6.492  21.897  0.00  0.00    -0.386 OA
ATOM     10  H   UNL     1       7.444  -6.816  21.343  0.00  0.00    +0.210 HD
ENDBRANCH   5   9
BRANCH   6  11
ATOM     11  O   UNL     1       5.134  -4.225  21.986  0.00  0.00    -0.386 OA
ATOM     12  H   UNL     1       4.907  -5.123  21.679  0.00  0.00    +0.210 HD
ENDBRANCH   6  11
BRANCH   1  13
ATOM     13  C   UNL     1       8.458  -2.366  22.563  0.00  0.00    +0.197 C 
BRANCH  13  14
ATOM     14  O   UNL     1       9.059  -1.815  23.733  0.00  0.00    -0.346 OA
BRANCH  14  17
ATOM     15  C   UNL     1      11.167   1.121  24.182  0.00  0.00    +0.197 C 
ATOM     16  O   UNL     1      10.357  -0.018  24.480  0.00  0.00    -0.346 OA
ATOM     17  C   UNL     1       9.779  -0.627  23.318  0.00  0.00    +0.281 C 
ATOM     18  C   UNL     1       8.827   0.370  22.635  0.00  0.00    +0.201 C 
ATOM     19  C   UNL     1       9.666   1.602  22.235  0.00  0.00    +0.178 C 
ATOM     20  C   UNL     1      10.369   2.207  23.463  0.00  0.00    +0.171 C 
BRANCH  18  21
ATOM     21  O   UNL     1       7.794   0.740  23.573  0.00  0.00    -0.384 OA
ATOM     22  H   UNL     1       7.530   1.647  23.315  0.00  0.00    +0.210 HD
ENDBRANCH  18  21
BRANCH  19  23
ATOM     23  O   UNL     1       8.880   2.577  21.547  0.00  0.00    -0.386 OA
ATOM     24  H   UNL     1       9.466   3.029  20.911  0.00  0.00    +0.210 HD
ENDBRANCH  19  23
BRANCH  20  25
ATOM     25  O   UNL     1       9.405   2.784  24.352  0.00  0.00    -0.387 OA
ATOM     26  H   UNL     1       9.847   2.872  25.229  0.00  0.00    +0.210 HD
ENDBRANCH  20  25
ENDBRANCH  14  17
ENDBRANCH  13  14
ENDBRANCH   1  13
BRANCH   3  27
ATOM     27  O   UNL     1       7.211  -4.011  26.085  0.00  0.00    -0.453 OA
BRANCH  27  28
ATOM     28  C   UNL     1       6.586  -2.874  26.615  0.00  0.00    +0.214 A 
ATOM     29  C   UNL     1       7.299  -1.551  26.674  0.00  0.00    +0.238 A 
ATOM     30  O   UNL     1       8.490  -1.457  26.393  0.00  0.00    -0.283 OA
ATOM     31  C   UNL     1       6.529  -0.372  27.089  0.00  0.00    +0.109 A 
ATOM     32  C   UNL     1       5.250  -0.583  27.590  0.00  0.00    +0.147 A 
ATOM     33  C   UNL     1       4.510   0.496  28.095  0.00  0.00    +0.092 A 
ATOM     34  C   UNL     1       5.074   1.767  28.096  0.00  0.00    +0.124 A 
ATOM     35  C   UNL     1       6.343   1.998  27.564  0.00  0.00    +0.091 A 
ATOM     36  O   UNL     1       4.653  -1.820  27.624  0.00  0.00    -0.451 OA
ATOM     37  C   UNL     1       7.061   0.929  27.050  0.00  0.00    +0.135 A 
ATOM     38  C   UNL     1       5.330  -2.926  27.113  0.00  0.00    +0.181 A 
BRANCH  38  39
ATOM     39  C   UNL     1       4.515  -4.181  27.142  0.00  0.00    +0.025 A 
ATOM     40  C   UNL     1       3.352  -4.295  26.354  0.00  0.00    +0.015 A 
ATOM     41  C   UNL     1       2.594  -5.474  26.338  0.00  0.00    +0.050 A 
ATOM     42  C   UNL     1       2.997  -6.551  27.110  0.00  0.00    +0.158 A 
ATOM     43  C   UNL     1       4.123  -6.455  27.913  0.00  0.00    +0.159 A 
ATOM     44  C   UNL     1       4.866  -5.276  27.955  0.00  0.00    +0.060 A 
BRANCH  42  45
ATOM     45  O   UNL     1       2.285  -7.716  27.069  0.00  0.00    -0.503 OA
ATOM     46  H   UNL     1       2.222  -8.001  28.002  0.00  0.00    +0.292 HD
ENDBRANCH  42  45
BRANCH  43  47
ATOM     47  O   UNL     1       4.477  -7.550  28.652  0.00  0.00    -0.503 OA
ATOM     48  H   UNL     1       3.746  -7.756  29.263  0.00  0.00    +0.292 HD
ENDBRANCH  43  47
ENDBRANCH  38  39
BRANCH  34  49
ATOM     49  O   UNL     1       4.409   2.849  28.586  0.00  0.00    -0.507 OA
ATOM     50  H   UNL     1       4.935   3.650  28.423  0.00  0.00    +0.292 HD
ENDBRANCH  34  49
BRANCH  37  51
ATOM     51  O   UNL     1       8.281   1.179  26.483  0.00  0.00    -0.506 OA
ATOM     52  H   UNL     1       8.371   0.678  25.654  0.00  0.00    +0.292 HD
ENDBRANCH  37  51
ENDBRANCH  27  28
ENDBRANCH   3  27
TORSDOF 16
ENDMDL
