MODEL 1
REMARK VINA RESULT:      -7.4      0.000      0.000
REMARK  Name = 
REMARK  18 active torsions:
REMARK  status: ('A' for Active; 'I' for Inactive)
REMARK    1  A    between atoms: C_3  and  O_36
REMARK    2  A    between atoms: C_4  and  O_35
REMARK    3  A    between atoms: C_6  and  C_7
REMARK    4  A    between atoms: C_8  and  O_34
REMARK    5  A    between atoms: C_12  and  O_33
REMARK    6  A    between atoms: C_14  and  O_18
REMARK    7  A    between atoms: O_18  and  C_19
REMARK    8  A    between atoms: C_21  and  O_32
REMARK    9  A    between atoms: C_22  and  O_31
REMARK   10  A    between atoms: C_24  and  O_30
REMARK   11  A    between atoms: C_26  and  C_28
REMARK   12  A    between atoms: C_28  and  O_29
REMARK   13  A    between atoms: O_36  and  C_37
REMARK   14  A    between atoms: C_39  and  O_50
REMARK   15  A    between atoms: C_40  and  O_49
REMARK   16  A    between atoms: C_42  and  O_48
REMARK   17  A    between atoms: C_44  and  C_46
REMARK   18  A    between atoms: C_46  and  O_47
REMARK                            x       y       z     vdW  Elec       q    Type
REMARK                         _______ _______ _______ _____ _____    ______ ____
ROOT
ATOM      1  C   UNL     1       8.147  -1.778  23.202  0.00  0.00    +0.181 A 
ATOM      2  O   UNL     1       7.295  -0.724  22.832  0.00  0.00    -0.451 OA
ATOM      3  C   UNL     1       7.816   0.560  22.756  0.00  0.00    +0.147 A 
ATOM      4  C   UNL     1       9.145   0.832  23.090  0.00  0.00    +0.109 A 
ATOM      5  C   UNL     1       9.632   2.130  23.034  0.00  0.00    +0.135 A 
ATOM      6  C   UNL     1       8.815   3.163  22.641  0.00  0.00    +0.092 A 
ATOM      7  C   UNL     1       7.469   2.945  22.312  0.00  0.00    +0.131 A 
ATOM      8  C   UNL     1      10.024  -0.252  23.489  0.00  0.00    +0.238 A 
ATOM      9  O   UNL     1      11.179  -0.013  23.826  0.00  0.00    -0.283 OA
ATOM     10  C   UNL     1       6.978   1.623  22.343  0.00  0.00    +0.093 A 
ATOM     11  C   UNL     1       9.470  -1.616  23.454  0.00  0.00    +0.208 A 
ENDROOT
BRANCH   1  13
ATOM     12  C   UNL     1       6.711  -3.592  22.255  0.00  0.00    +0.015 A 
ATOM     13  C   UNL     1       7.522  -3.132  23.306  0.00  0.00    +0.025 A 
ATOM     14  C   UNL     1       7.637  -3.969  24.423  0.00  0.00    +0.060 A 
ATOM     15  C   UNL     1       6.818  -5.113  24.543  0.00  0.00    +0.159 A 
ATOM     16  C   UNL     1       5.856  -5.438  23.578  0.00  0.00    +0.165 A 
ATOM     17  C   UNL     1       5.872  -4.697  22.398  0.00  0.00    +0.050 A 
BRANCH  15  18
ATOM     18  O   UNL     1       6.966  -5.890  25.660  0.00  0.00    -0.503 OA
ATOM     19  H   UNL     1       6.830  -5.290  26.417  0.00  0.00    +0.292 HD
ENDBRANCH  15  18
BRANCH  16  20
ATOM     20  O   UNL     1       4.929  -6.433  23.872  0.00  0.00    -0.457 OA
BRANCH  20  21
ATOM     21  C   UNL     1       3.719  -5.920  24.488  0.00  0.00    +0.339 C 
ATOM     22  O   UNL     1       3.923  -5.667  25.881  0.00  0.00    -0.331 OA
ATOM     23  C   UNL     1       3.887  -6.848  26.698  0.00  0.00    +0.179 C 
ATOM     24  C   UNL     1       2.448  -7.379  26.699  0.00  0.00    +0.177 C 
ATOM     25  C   UNL     1       2.091  -7.814  25.272  0.00  0.00    +0.180 C 
ATOM     26  C   UNL     1       2.418  -6.732  24.231  0.00  0.00    +0.214 C 
BRANCH  26  27
ATOM     27  O   UNL     1       2.354  -7.258  22.901  0.00  0.00    -0.383 OA
ATOM     28  H   UNL     1       2.532  -6.520  22.287  0.00  0.00    +0.210 HD
ENDBRANCH  26  27
BRANCH  25  29
ATOM     29  O   UNL     1       2.717  -9.053  24.925  0.00  0.00    -0.386 OA
ATOM     30  H   UNL     1       3.431  -9.236  25.563  0.00  0.00    +0.210 HD
ENDBRANCH  25  29
BRANCH  24  31
ATOM     31  O   UNL     1       1.563  -6.341  27.136  0.00  0.00    -0.386 OA
ATOM     32  H   UNL     1       0.778  -6.741  27.546  0.00  0.00    +0.210 HD
ENDBRANCH  24  31
BRANCH  23  33
ATOM     33  C   UNL     1       4.369  -6.479  28.108  0.00  0.00    +0.190 C 
BRANCH  33  34
ATOM     34  O   UNL     1       5.228  -7.496  28.638  0.00  0.00    -0.392 OA
ATOM     35  H   UNL     1       5.762  -7.851  27.908  0.00  0.00    +0.210 HD
ENDBRANCH  33  34
ENDBRANCH  23  33
ENDBRANCH  20  21
ENDBRANCH  16  20
ENDBRANCH   1  13
BRANCH  11  36
ATOM     36  O   UNL     1      10.384  -2.624  23.705  0.00  0.00    -0.501 OA
ATOM     37  H   UNL     1      10.357  -2.853  24.649  0.00  0.00    +0.292 HD
ENDBRANCH  11  36
BRANCH   5  38
ATOM     38  O   UNL     1      10.917   2.470  23.371  0.00  0.00    -0.506 OA
ATOM     39  H   UNL     1      11.531   2.011  22.751  0.00  0.00    +0.292 HD
ENDBRANCH   5  38
BRANCH   7  40
ATOM     40  O   UNL     1       6.593   3.982  21.992  0.00  0.00    -0.461 OA
BRANCH  40  41
ATOM     41  C   UNL     1       6.506   4.984  23.040  0.00  0.00    +0.339 C 
ATOM     42  O   UNL     1       5.890   4.410  24.201  0.00  0.00    -0.331 OA
ATOM     43  C   UNL     1       4.473   4.232  24.020  0.00  0.00    +0.179 C 
ATOM     44  C   UNL     1       3.832   5.625  24.027  0.00  0.00    +0.177 C 
ATOM     45  C   UNL     1       4.326   6.380  22.784  0.00  0.00    +0.180 C 
ATOM     46  C   UNL     1       5.856   6.341  22.663  0.00  0.00    +0.214 C 
BRANCH  46  47
ATOM     47  O   UNL     1       6.295   6.823  21.389  0.00  0.00    -0.383 OA
ATOM     48  H   UNL     1       6.954   7.523  21.552  0.00  0.00    +0.210 HD
ENDBRANCH  46  47
BRANCH  45  49
ATOM     49  O   UNL     1       3.714   5.890  21.585  0.00  0.00    -0.386 OA
ATOM     50  H   UNL     1       3.837   6.549  20.874  0.00  0.00    +0.210 HD
ENDBRANCH  45  49
BRANCH  44  51
ATOM     51  O   UNL     1       4.243   6.345  25.195  0.00  0.00    -0.386 OA
ATOM     52  H   UNL     1       3.706   6.045  25.947  0.00  0.00    +0.210 HD
ENDBRANCH  44  51
BRANCH  43  53
ATOM     53  C   UNL     1       3.964   3.284  25.112  0.00  0.00    +0.190 C 
BRANCH  53  54
ATOM     54  O   UNL     1       4.210   1.919  24.808  0.00  0.00    -0.392 OA
ATOM     55  H   UNL     1       3.546   1.678  24.132  0.00  0.00    +0.210 HD
ENDBRANCH  53  54
ENDBRANCH  43  53
ENDBRANCH  40  41
ENDBRANCH   7  40
TORSDOF 18
ENDMDL
MODEL 2
REMARK VINA RESULT:      -7.3      1.030      2.130
REMARK  Name = 
REMARK  18 active torsions:
REMARK  status: ('A' for Active; 'I' for Inactive)
REMARK    1  A    between atoms: C_3  and  O_36
REMARK    2  A    between atoms: C_4  and  O_35
REMARK    3  A    between atoms: C_6  and  C_7
REMARK    4  A    between atoms: C_8  and  O_34
REMARK    5  A    between atoms: C_12  and  O_33
REMARK    6  A    between atoms: C_14  and  O_18
REMARK    7  A    between atoms: O_18  and  C_19
REMARK    8  A    between atoms: C_21  and  O_32
REMARK    9  A    between atoms: C_22  and  O_31
REMARK   10  A    between atoms: C_24  and  O_30
REMARK   11  A    between atoms: C_26  and  C_28
REMARK   12  A    between atoms: C_28  and  O_29
REMARK   13  A    between atoms: O_36  and  C_37
REMARK   14  A    between atoms: C_39  and  O_50
REMARK   15  A    between atoms: C_40  and  O_49
REMARK   16  A    between atoms: C_42  and  O_48
REMARK   17  A    between atoms: C_44  and  C_46
REMARK   18  A    between atoms: C_46  and  O_47
REMARK                            x       y       z     vdW  Elec       q    Type
REMARK                         _______ _______ _______ _____ _____    ______ ____
ROOT
ATOM      1  C   UNL     1       7.917  -1.997  24.080  0.00  0.00    +0.181 A 
ATOM      2  O   UNL     1       7.026  -0.919  24.223  0.00  0.00    -0.451 OA
ATOM      3  C   UNL     1       7.535   0.372  24.221  0.00  0.00    +0.147 A 
ATOM      4  C   UNL     1       8.908   0.617  24.136  0.00  0.00    +0.109 A 
ATOM      5  C   UNL     1       9.392   1.917  24.167  0.00  0.00    +0.135 A 
ATOM      6  C   UNL     1       8.527   2.979  24.272  0.00  0.00    +0.092 A 
ATOM      7  C   UNL     1       7.141   2.785  24.378  0.00  0.00    +0.131 A 
ATOM      8  C   UNL     1       9.832  -0.494  24.006  0.00  0.00    +0.238 A 
ATOM      9  O   UNL     1      11.041  -0.287  23.975  0.00  0.00    -0.283 OA
ATOM     10  C   UNL     1       6.644   1.466  24.322  0.00  0.00    +0.093 A 
ATOM     11  C   UNL     1       9.252  -1.844  23.901  0.00  0.00    +0.208 A 
ENDROOT
BRANCH   1  13
ATOM     12  C   UNL     1       6.690  -3.878  22.981  0.00  0.00    +0.015 A 
ATOM     13  C   UNL     1       7.317  -3.365  24.130  0.00  0.00    +0.025 A 
ATOM     14  C   UNL     1       7.277  -4.168  25.277  0.00  0.00    +0.060 A 
ATOM     15  C   UNL     1       6.477  -5.331  25.305  0.00  0.00    +0.159 A 
ATOM     16  C   UNL     1       5.685  -5.710  24.214  0.00  0.00    +0.165 A 
ATOM     17  C   UNL     1       5.866  -5.003  23.028  0.00  0.00    +0.050 A 
BRANCH  15  18
ATOM     18  O   UNL     1       6.469  -6.072  26.456  0.00  0.00    -0.503 OA
ATOM     19  H   UNL     1       7.006  -5.568  27.096  0.00  0.00    +0.292 HD
ENDBRANCH  15  18
BRANCH  16  20
ATOM     20  O   UNL     1       4.748  -6.724  24.393  0.00  0.00    -0.457 OA
BRANCH  20  21
ATOM     21  C   UNL     1       3.419  -6.224  24.691  0.00  0.00    +0.339 C 
ATOM     22  O   UNL     1       3.303  -5.872  26.073  0.00  0.00    -0.331 OA
ATOM     23  C   UNL     1       3.121  -6.997  26.946  0.00  0.00    +0.179 C 
ATOM     24  C   UNL     1       1.732  -7.588  26.672  0.00  0.00    +0.177 C 
ATOM     25  C   UNL     1       1.711  -8.130  25.237  0.00  0.00    +0.180 C 
ATOM     26  C   UNL     1       2.230  -7.106  24.217  0.00  0.00    +0.214 C 
BRANCH  26  27
ATOM     27  O   UNL     1       2.475  -7.720  22.947  0.00  0.00    -0.383 OA
ATOM     28  H   UNL     1       3.259  -7.286  22.559  0.00  0.00    +0.210 HD
ENDBRANCH  26  27
BRANCH  25  29
ATOM     29  O   UNL     1       2.432  -9.362  25.127  0.00  0.00    -0.386 OA
ATOM     30  H   UNL     1       3.322  -9.242  25.505  0.00  0.00    +0.210 HD
ENDBRANCH  25  29
BRANCH  24  31
ATOM     31  O   UNL     1       0.744  -6.562  26.828  0.00  0.00    -0.386 OA
ATOM     32  H   UNL     1       1.153  -5.697  26.660  0.00  0.00    +0.210 HD
ENDBRANCH  24  31
BRANCH  23  33
ATOM     33  C   UNL     1       3.270  -6.516  28.396  0.00  0.00    +0.190 C 
BRANCH  33  34
ATOM     34  O   UNL     1       3.923  -7.507  29.200  0.00  0.00    -0.392 OA
ATOM     35  H   UNL     1       4.602  -7.062  29.735  0.00  0.00    +0.210 HD
ENDBRANCH  33  34
ENDBRANCH  23  33
ENDBRANCH  20  21
ENDBRANCH  16  20
ENDBRANCH   1  13
BRANCH  11  36
ATOM     36  O   UNL     1      10.163  -2.852  23.636  0.00  0.00    -0.501 OA
ATOM     37  H   UNL     1       9.823  -3.691  23.988  0.00  0.00    +0.292 HD
ENDBRANCH  11  36
BRANCH   5  38
ATOM     38  O   UNL     1      10.727   2.228  24.112  0.00  0.00    -0.506 OA
ATOM     39  H   UNL     1      10.859   2.897  23.400  0.00  0.00    +0.292 HD
ENDBRANCH   5  38
BRANCH   7  40
ATOM     40  O   UNL     1       6.245   3.835  24.572  0.00  0.00    -0.461 OA
BRANCH  40  41
ATOM     41  C   UNL     1       5.273   3.946  23.500  0.00  0.00    +0.339 C 
ATOM     42  O   UNL     1       5.794   4.793  22.466  0.00  0.00    -0.331 OA
ATOM     43  C   UNL     1       5.778   6.179  22.853  0.00  0.00    +0.179 C 
ATOM     44  C   UNL     1       4.313   6.632  22.868  0.00  0.00    +0.177 C 
ATOM     45  C   UNL     1       3.592   5.871  23.992  0.00  0.00    +0.180 C 
ATOM     46  C   UNL     1       3.830   4.357  23.898  0.00  0.00    +0.214 C 
BRANCH  46  47
ATOM     47  O   UNL     1       3.373   3.680  25.072  0.00  0.00    -0.383 OA
ATOM     48  H   UNL     1       2.572   4.141  25.383  0.00  0.00    +0.210 HD
ENDBRANCH  46  47
BRANCH  45  49
ATOM     49  O   UNL     1       3.960   6.359  25.287  0.00  0.00    -0.386 OA
ATOM     50  H   UNL     1       4.696   6.995  25.189  0.00  0.00    +0.210 HD
ENDBRANCH  45  49
BRANCH  44  51
ATOM     51  O   UNL     1       3.689   6.308  21.620  0.00  0.00    -0.386 OA
ATOM     52  H   UNL     1       3.943   5.402  21.376  0.00  0.00    +0.210 HD
ENDBRANCH  44  51
BRANCH  43  53
ATOM     53  C   UNL     1       6.682   6.958  21.892  0.00  0.00    +0.190 C 
BRANCH  53  54
ATOM     54  O   UNL     1       7.806   6.202  21.465  0.00  0.00    -0.392 OA
ATOM     55  H   UNL     1       8.367   6.099  22.259  0.00  0.00    +0.210 HD
ENDBRANCH  53  54
ENDBRANCH  43  53
ENDBRANCH  40  41
ENDBRANCH   7  40
TORSDOF 18
ENDMDL
MODEL 3
REMARK VINA RESULT:      -7.0      1.925     10.458
REMARK  Name = 
REMARK  18 active torsions:
REMARK  status: ('A' for Active; 'I' for Inactive)
REMARK    1  A    between atoms: C_3  and  O_36
REMARK    2  A    between atoms: C_4  and  O_35
REMARK    3  A    between atoms: C_6  and  C_7
REMARK    4  A    between atoms: C_8  and  O_34
REMARK    5  A    between atoms: C_12  and  O_33
REMARK    6  A    between atoms: C_14  and  O_18
REMARK    7  A    between atoms: O_18  and  C_19
REMARK    8  A    between atoms: C_21  and  O_32
REMARK    9  A    between atoms: C_22  and  O_31
REMARK   10  A    between atoms: C_24  and  O_30
REMARK   11  A    between atoms: C_26  and  C_28
REMARK   12  A    between atoms: C_28  and  O_29
REMARK   13  A    between atoms: O_36  and  C_37
REMARK   14  A    between atoms: C_39  and  O_50
REMARK   15  A    between atoms: C_40  and  O_49
REMARK   16  A    between atoms: C_42  and  O_48
REMARK   17  A    between atoms: C_44  and  C_46
REMARK   18  A    between atoms: C_46  and  O_47
REMARK                            x       y       z     vdW  Elec       q    Type
REMARK                         _______ _______ _______ _____ _____    ______ ____
ROOT
ATOM      1  C   UNL     1       7.947  -1.213  23.992  0.00  0.00    +0.181 A 
ATOM      2  O   UNL     1       7.001  -1.738  24.889  0.00  0.00    -0.451 OA
ATOM      3  C   UNL     1       7.301  -2.912  25.564  0.00  0.00    +0.147 A 
ATOM      4  C   UNL     1       8.491  -3.606  25.332  0.00  0.00    +0.109 A 
ATOM      5  C   UNL     1       8.753  -4.793  26.000  0.00  0.00    +0.135 A 
ATOM      6  C   UNL     1       7.849  -5.297  26.904  0.00  0.00    +0.092 A 
ATOM      7  C   UNL     1       6.632  -4.648  27.159  0.00  0.00    +0.131 A 
ATOM      8  C   UNL     1       9.463  -3.076  24.394  0.00  0.00    +0.238 A 
ATOM      9  O   UNL     1      10.490  -3.704  24.154  0.00  0.00    -0.283 OA
ATOM     10  C   UNL     1       6.374  -3.427  26.501  0.00  0.00    +0.093 A 
ATOM     11  C   UNL     1       9.163  -1.774  23.776  0.00  0.00    +0.208 A 
ENDROOT
BRANCH   1  13
ATOM     12  C   UNL     1       8.487   0.650  22.415  0.00  0.00    +0.015 A 
ATOM     13  C   UNL     1       7.553   0.031  23.263  0.00  0.00    +0.025 A 
ATOM     14  C   UNL     1       6.317   0.674  23.412  0.00  0.00    +0.060 A 
ATOM     15  C   UNL     1       6.121   1.969  22.886  0.00  0.00    +0.159 A 
ATOM     16  C   UNL     1       7.143   2.662  22.225  0.00  0.00    +0.165 A 
ATOM     17  C   UNL     1       8.303   1.947  21.935  0.00  0.00    +0.050 A 
BRANCH  15  18
ATOM     18  O   UNL     1       4.897   2.554  23.070  0.00  0.00    -0.503 OA
ATOM     19  H   UNL     1       4.759   2.577  24.035  0.00  0.00    +0.292 HD
ENDBRANCH  15  18
BRANCH  16  20
ATOM     20  O   UNL     1       6.958   4.013  21.945  0.00  0.00    -0.457 OA
BRANCH  20  21
ATOM     21  C   UNL     1       7.962   4.864  22.556  0.00  0.00    +0.339 C 
ATOM     22  O   UNL     1       8.231   4.453  23.900  0.00  0.00    -0.331 OA
ATOM     23  C   UNL     1       7.237   4.876  24.847  0.00  0.00    +0.179 C 
ATOM     24  C   UNL     1       7.328   6.402  24.978  0.00  0.00    +0.177 C 
ATOM     25  C   UNL     1       6.951   7.027  23.628  0.00  0.00    +0.180 C 
ATOM     26  C   UNL     1       7.719   6.396  22.456  0.00  0.00    +0.214 C 
BRANCH  26  27
ATOM     27  O   UNL     1       7.150   6.780  21.200  0.00  0.00    -0.383 OA
ATOM     28  H   UNL     1       7.616   6.279  20.503  0.00  0.00    +0.210 HD
ENDBRANCH  26  27
BRANCH  25  29
ATOM     29  O   UNL     1       5.540   6.971  23.395  0.00  0.00    -0.386 OA
ATOM     30  H   UNL     1       5.078   7.361  24.160  0.00  0.00    +0.210 HD
ENDBRANCH  25  29
BRANCH  24  31
ATOM     31  O   UNL     1       8.666   6.766  25.335  0.00  0.00    -0.386 OA
ATOM     32  H   UNL     1       9.216   6.787  24.533  0.00  0.00    +0.210 HD
ENDBRANCH  24  31
BRANCH  23  33
ATOM     33  C   UNL     1       7.502   4.164  26.180  0.00  0.00    +0.190 C 
BRANCH  33  34
ATOM     34  O   UNL     1       8.022   2.846  25.963  0.00  0.00    -0.392 OA
ATOM     35  H   UNL     1       8.954   2.929  25.698  0.00  0.00    +0.210 HD
ENDBRANCH  33  34
ENDBRANCH  23  33
ENDBRANCH  20  21
ENDBRANCH  16  20
ENDBRANCH   1  13
BRANCH  11  36
ATOM     36  O   UNL     1      10.181  -1.246  23.002  0.00  0.00    -0.501 OA
ATOM     37  H   UNL     1      10.997  -1.750  23.160  0.00  0.00    +0.292 HD
ENDBRANCH  11  36
BRANCH   5  38
ATOM     38  O   UNL     1       9.889  -5.537  25.803  0.00  0.00    -0.506 OA
ATOM     39  H   UNL     1      10.662  -5.006  26.106  0.00  0.00    +0.292 HD
ENDBRANCH   5  38
BRANCH   7  40
ATOM     40  O   UNL     1       5.657  -5.176  28.005  0.00  0.00    -0.461 OA
BRANCH  40  41
ATOM     41  C   UNL     1       5.317  -6.549  27.677  0.00  0.00    +0.339 C 
ATOM     42  O   UNL     1       5.311  -6.714  26.252  0.00  0.00    -0.331 OA
ATOM     43  C   UNL     1       4.155  -6.105  25.649  0.00  0.00    +0.179 C 
ATOM     44  C   UNL     1       2.938  -6.957  26.030  0.00  0.00    +0.177 C 
ATOM     45  C   UNL     1       2.735  -6.840  27.549  0.00  0.00    +0.180 C 
ATOM     46  C   UNL     1       4.030  -7.128  28.322  0.00  0.00    +0.214 C 
BRANCH  46  47
ATOM     47  O   UNL     1       3.905  -6.779  29.703  0.00  0.00    -0.383 OA
ATOM     48  H   UNL     1       4.038  -7.594  30.224  0.00  0.00    +0.210 HD
ENDBRANCH  46  47
BRANCH  45  49
ATOM     49  O   UNL     1       2.202  -5.563  27.918  0.00  0.00    -0.386 OA
ATOM     50  H   UNL     1       1.911  -5.095  27.111  0.00  0.00    +0.210 HD
ENDBRANCH  45  49
BRANCH  44  51
ATOM     51  O   UNL     1       3.183  -8.330  25.704  0.00  0.00    -0.386 OA
ATOM     52  H   UNL     1       3.897  -8.367  25.046  0.00  0.00    +0.210 HD
ENDBRANCH  44  51
BRANCH  43  53
ATOM     53  C   UNL     1       4.406  -5.981  24.143  0.00  0.00    +0.190 C 
BRANCH  53  54
ATOM     54  O   UNL     1       4.814  -7.208  23.554  0.00  0.00    -0.392 OA
ATOM     55  H   UNL     1       5.140  -6.974  22.662  0.00  0.00    +0.210 HD
ENDBRANCH  53  54
ENDBRANCH  43  53
ENDBRANCH  40  41
ENDBRANCH   7  40
TORSDOF 18
ENDMDL
MODEL 4
REMARK VINA RESULT:      -7.0      1.808     10.515
REMARK  Name = 
REMARK  18 active torsions:
REMARK  status: ('A' for Active; 'I' for Inactive)
REMARK    1  A    between atoms: C_3  and  O_36
REMARK    2  A    between atoms: C_4  and  O_35
REMARK    3  A    between atoms: C_6  and  C_7
REMARK    4  A    between atoms: C_8  and  O_34
REMARK    5  A    between atoms: C_12  and  O_33
REMARK    6  A    between atoms: C_14  and  O_18
REMARK    7  A    between atoms: O_18  and  C_19
REMARK    8  A    between atoms: C_21  and  O_32
REMARK    9  A    between atoms: C_22  and  O_31
REMARK   10  A    between atoms: C_24  and  O_30
REMARK   11  A    between atoms: C_26  and  C_28
REMARK   12  A    between atoms: C_28  and  O_29
REMARK   13  A    between atoms: O_36  and  C_37
REMARK   14  A    between atoms: C_39  and  O_50
REMARK   15  A    between atoms: C_40  and  O_49
REMARK   16  A    between atoms: C_42  and  O_48
REMARK   17  A    between atoms: C_44  and  C_46
REMARK   18  A    between atoms: C_46  and  O_47
REMARK                            x       y       z     vdW  Elec       q    Type
REMARK                         _______ _______ _______ _____ _____    ______ ____
ROOT
ATOM      1  C   UNL     1       8.608  -1.536  24.552  0.00  0.00    +0.181 A 
ATOM      2  O   UNL     1       7.494  -1.793  25.368  0.00  0.00    -0.451 OA
ATOM      3  C   UNL     1       7.358  -3.053  25.934  0.00  0.00    +0.147 A 
ATOM      4  C   UNL     1       8.270  -4.077  25.668  0.00  0.00    +0.109 A 
ATOM      5  C   UNL     1       8.094  -5.336  26.223  0.00  0.00    +0.135 A 
ATOM      6  C   UNL     1       7.025  -5.588  27.049  0.00  0.00    +0.092 A 
ATOM      7  C   UNL     1       6.072  -4.599  27.334  0.00  0.00    +0.131 A 
ATOM      8  C   UNL     1       9.413  -3.820  24.812  0.00  0.00    +0.238 A 
ATOM      9  O   UNL     1      10.193  -4.727  24.539  0.00  0.00    -0.283 OA
ATOM     10  C   UNL     1       6.262  -3.311  26.791  0.00  0.00    +0.093 A 
ATOM     11  C   UNL     1       9.587  -2.444  24.315  0.00  0.00    +0.208 A 
ENDROOT
BRANCH   1  13
ATOM     12  C   UNL     1       8.788   0.948  24.775  0.00  0.00    +0.015 A 
ATOM     13  C   UNL     1       8.681  -0.175  23.937  0.00  0.00    +0.025 A 
ATOM     14  C   UNL     1       8.587   0.075  22.562  0.00  0.00    +0.060 A 
ATOM     15  C   UNL     1       8.413   1.393  22.088  0.00  0.00    +0.159 A 
ATOM     16  C   UNL     1       8.305   2.485  22.960  0.00  0.00    +0.165 A 
ATOM     17  C   UNL     1       8.571   2.244  24.306  0.00  0.00    +0.050 A 
BRANCH  15  18
ATOM     18  O   UNL     1       8.318   1.578  20.735  0.00  0.00    -0.503 OA
ATOM     19  H   UNL     1       7.663   0.924  20.427  0.00  0.00    +0.292 HD
ENDBRANCH  15  18
BRANCH  16  20
ATOM     20  O   UNL     1       7.900   3.711  22.442  0.00  0.00    -0.457 OA
BRANCH  20  21
ATOM     21  C   UNL     1       7.373   4.609  23.453  0.00  0.00    +0.339 C 
ATOM     22  O   UNL     1       5.985   4.357  23.689  0.00  0.00    -0.331 OA
ATOM     23  C   UNL     1       5.116   4.909  22.688  0.00  0.00    +0.179 C 
ATOM     24  C   UNL     1       5.165   6.437  22.809  0.00  0.00    +0.177 C 
ATOM     25  C   UNL     1       6.587   6.904  22.470  0.00  0.00    +0.180 C 
ATOM     26  C   UNL     1       7.660   6.123  23.246  0.00  0.00    +0.214 C 
BRANCH  26  27
ATOM     27  O   UNL     1       8.965   6.366  22.708  0.00  0.00    -0.383 OA
ATOM     28  H   UNL     1       9.456   5.523  22.745  0.00  0.00    +0.210 HD
ENDBRANCH  26  27
BRANCH  25  29
ATOM     29  O   UNL     1       6.841   6.848  21.063  0.00  0.00    -0.386 OA
ATOM     30  H   UNL     1       6.030   6.558  20.607  0.00  0.00    +0.210 HD
ENDBRANCH  25  29
BRANCH  24  31
ATOM     31  O   UNL     1       4.826   6.815  24.148  0.00  0.00    -0.386 OA
ATOM     32  H   UNL     1       5.612   7.188  24.583  0.00  0.00    +0.210 HD
ENDBRANCH  24  31
BRANCH  23  33
ATOM     33  C   UNL     1       3.702   4.355  22.912  0.00  0.00    +0.190 C 
BRANCH  33  34
ATOM     34  O   UNL     1       3.618   2.983  22.508  0.00  0.00    -0.392 OA
ATOM     35  H   UNL     1       4.330   2.813  21.867  0.00  0.00    +0.210 HD
ENDBRANCH  33  34
ENDBRANCH  23  33
ENDBRANCH  20  21
ENDBRANCH  16  20
ENDBRANCH   1  13
BRANCH  11  36
ATOM     36  O   UNL     1      10.764  -2.217  23.624  0.00  0.00    -0.501 OA
ATOM     37  H   UNL     1      11.005  -3.019  23.130  0.00  0.00    +0.292 HD
ENDBRANCH  11  36
BRANCH   5  38
ATOM     38  O   UNL     1       8.936  -6.392  25.985  0.00  0.00    -0.506 OA
ATOM     39  H   UNL     1       9.837  -6.146  26.302  0.00  0.00    +0.292 HD
ENDBRANCH   5  38
BRANCH   7  40
ATOM     40  O   UNL     1       4.932  -4.847  28.098  0.00  0.00    -0.461 OA
BRANCH  40  41
ATOM     41  C   UNL     1       4.494  -6.229  28.017  0.00  0.00    +0.339 C 
ATOM     42  O   UNL     1       4.483  -6.648  26.645  0.00  0.00    -0.331 OA
ATOM     43  C   UNL     1       3.377  -6.077  25.922  0.00  0.00    +0.179 C 
ATOM     44  C   UNL     1       2.099  -6.757  26.429  0.00  0.00    +0.177 C 
ATOM     45  C   UNL     1       1.898  -6.353  27.898  0.00  0.00    +0.180 C 
ATOM     46  C   UNL     1       3.165  -6.588  28.733  0.00  0.00    +0.214 C 
BRANCH  46  47
ATOM     47  O   UNL     1       3.060  -5.987  30.026  0.00  0.00    -0.383 OA
ATOM     48  H   UNL     1       3.256  -6.677  30.687  0.00  0.00    +0.210 HD
ENDBRANCH  46  47
BRANCH  45  49
ATOM     49  O   UNL     1       1.458  -4.995  28.022  0.00  0.00    -0.386 OA
ATOM     50  H   UNL     1       2.151  -4.404  27.667  0.00  0.00    +0.210 HD
ENDBRANCH  45  49
BRANCH  44  51
ATOM     51  O   UNL     1       2.244  -8.180  26.360  0.00  0.00    -0.386 OA
ATOM     52  H   UNL     1       3.192  -8.391  26.325  0.00  0.00    +0.210 HD
ENDBRANCH  44  51
BRANCH  43  53
ATOM     53  C   UNL     1       3.644  -6.246  24.423  0.00  0.00    +0.190 C 
BRANCH  53  54
ATOM     54  O   UNL     1       4.193  -7.517  24.106  0.00  0.00    -0.392 OA
ATOM     55  H   UNL     1       3.559  -7.927  23.484  0.00  0.00    +0.210 HD
ENDBRANCH  53  54
ENDBRANCH  43  53
ENDBRANCH  40  41
ENDBRANCH   7  40
TORSDOF 18
ENDMDL
MODEL 5
REMARK VINA RESULT:      -6.8      1.616      1.882
REMARK  Name = 
REMARK  18 active torsions:
REMARK  status: ('A' for Active; 'I' for Inactive)
REMARK    1  A    between atoms: C_3  and  O_36
REMARK    2  A    between atoms: C_4  and  O_35
REMARK    3  A    between atoms: C_6  and  C_7
REMARK    4  A    between atoms: C_8  and  O_34
REMARK    5  A    between atoms: C_12  and  O_33
REMARK    6  A    between atoms: C_14  and  O_18
REMARK    7  A    between atoms: O_18  and  C_19
REMARK    8  A    between atoms: C_21  and  O_32
REMARK    9  A    between atoms: C_22  and  O_31
REMARK   10  A    between atoms: C_24  and  O_30
REMARK   11  A    between atoms: C_26  and  C_28
REMARK   12  A    between atoms: C_28  and  O_29
REMARK   13  A    between atoms: O_36  and  C_37
REMARK   14  A    between atoms: C_39  and  O_50
REMARK   15  A    between atoms: C_40  and  O_49
REMARK   16  A    between atoms: C_42  and  O_48
REMARK   17  A    between atoms: C_44  and  C_46
REMARK   18  A    between atoms: C_46  and  O_47
REMARK                            x       y       z     vdW  Elec       q    Type
REMARK                         _______ _______ _______ _____ _____    ______ ____
ROOT
ATOM      1  C   UNL     1       7.892  -2.139  23.734  0.00  0.00    +0.181 A 
ATOM      2  O   UNL     1       6.957  -1.135  23.429  0.00  0.00    -0.451 OA
ATOM      3  C   UNL     1       7.420   0.100  22.998  0.00  0.00    +0.147 A 
ATOM      4  C   UNL     1       8.787   0.380  22.912  0.00  0.00    +0.109 A 
ATOM      5  C   UNL     1       9.222   1.632  22.506  0.00  0.00    +0.135 A 
ATOM      6  C   UNL     1       8.315   2.610  22.175  0.00  0.00    +0.092 A 
ATOM      7  C   UNL     1       6.934   2.385  22.260  0.00  0.00    +0.131 A 
ATOM      8  C   UNL     1       9.755  -0.650  23.242  0.00  0.00    +0.238 A 
ATOM      9  O   UNL     1      10.955  -0.396  23.211  0.00  0.00    -0.283 OA
ATOM     10  C   UNL     1       6.487   1.105  22.649  0.00  0.00    +0.093 A 
ATOM     11  C   UNL     1       9.231  -1.981  23.591  0.00  0.00    +0.208 A 
ENDROOT
BRANCH   1  13
ATOM     12  C   UNL     1       6.957  -4.418  23.301  0.00  0.00    +0.015 A 
ATOM     13  C   UNL     1       7.336  -3.435  24.232  0.00  0.00    +0.025 A 
ATOM     14  C   UNL     1       7.104  -3.725  25.582  0.00  0.00    +0.060 A 
ATOM     15  C   UNL     1       6.350  -4.862  25.946  0.00  0.00    +0.159 A 
ATOM     16  C   UNL     1       5.793  -5.719  24.987  0.00  0.00    +0.165 A 
ATOM     17  C   UNL     1       6.175  -5.515  23.663  0.00  0.00    +0.050 A 
BRANCH  15  18
ATOM     18  O   UNL     1       6.146  -5.092  27.280  0.00  0.00    -0.503 OA
ATOM     19  H   UNL     1       5.500  -5.822  27.324  0.00  0.00    +0.292 HD
ENDBRANCH  15  18
BRANCH  16  20
ATOM     20  O   UNL     1       4.872  -6.675  25.405  0.00  0.00    -0.457 OA
BRANCH  20  21
ATOM     21  C   UNL     1       3.518  -6.389  24.967  0.00  0.00    +0.339 C 
ATOM     22  O   UNL     1       3.116  -5.077  25.369  0.00  0.00    -0.331 OA
ATOM     23  C   UNL     1       2.733  -4.984  26.750  0.00  0.00    +0.179 C 
ATOM     24  C   UNL     1       1.425  -5.764  26.931  0.00  0.00    +0.177 C 
ATOM     25  C   UNL     1       1.701  -7.246  26.644  0.00  0.00    +0.180 C 
ATOM     26  C   UNL     1       2.443  -7.457  25.315  0.00  0.00    +0.214 C 
BRANCH  26  27
ATOM     27  O   UNL     1       2.943  -8.794  25.210  0.00  0.00    -0.383 OA
ATOM     28  H   UNL     1       3.710  -8.772  24.606  0.00  0.00    +0.210 HD
ENDBRANCH  26  27
BRANCH  25  29
ATOM     29  O   UNL     1       2.408  -7.870  27.722  0.00  0.00    -0.386 OA
ATOM     30  H   UNL     1       2.531  -7.220  28.437  0.00  0.00    +0.210 HD
ENDBRANCH  25  29
BRANCH  24  31
ATOM     31  O   UNL     1       0.444  -5.259  26.018  0.00  0.00    -0.386 OA
ATOM     32  H   UNL     1       0.526  -5.726  25.169  0.00  0.00    +0.210 HD
ENDBRANCH  24  31
BRANCH  23  33
ATOM     33  C   UNL     1       2.577  -3.501  27.113  0.00  0.00    +0.190 C 
BRANCH  33  34
ATOM     34  O   UNL     1       3.730  -3.021  27.817  0.00  0.00    -0.392 OA
ATOM     35  H   UNL     1       3.497  -2.940  28.757  0.00  0.00    +0.210 HD
ENDBRANCH  33  34
ENDBRANCH  23  33
ENDBRANCH  20  21
ENDBRANCH  16  20
ENDBRANCH   1  13
BRANCH  11  36
ATOM     36  O   UNL     1      10.193  -2.962  23.757  0.00  0.00    -0.501 OA
ATOM     37  H   UNL     1      10.578  -3.183  22.892  0.00  0.00    +0.292 HD
ENDBRANCH  11  36
BRANCH   5  38
ATOM     38  O   UNL     1      10.546   1.982  22.423  0.00  0.00    -0.506 OA
ATOM     39  H   UNL     1      10.599   2.927  22.148  0.00  0.00    +0.292 HD
ENDBRANCH   5  38
BRANCH   7  40
ATOM     40  O   UNL     1       5.990   3.382  22.014  0.00  0.00    -0.461 OA
BRANCH  40  41
ATOM     41  C   UNL     1       5.259   3.767  23.208  0.00  0.00    +0.339 C 
ATOM     42  O   UNL     1       3.917   3.266  23.131  0.00  0.00    -0.331 OA
ATOM     43  C   UNL     1       3.120   4.015  22.196  0.00  0.00    +0.179 C 
ATOM     44  C   UNL     1       2.864   5.395  22.815  0.00  0.00    +0.177 C 
ATOM     45  C   UNL     1       4.211   6.129  22.908  0.00  0.00    +0.180 C 
ATOM     46  C   UNL     1       5.283   5.270  23.593  0.00  0.00    +0.214 C 
BRANCH  46  47
ATOM     47  O   UNL     1       6.585   5.848  23.458  0.00  0.00    -0.383 OA
ATOM     48  H   UNL     1       7.226   5.116  23.405  0.00  0.00    +0.210 HD
ENDBRANCH  46  47
BRANCH  45  49
ATOM     49  O   UNL     1       4.665   6.574  21.625  0.00  0.00    -0.386 OA
ATOM     50  H   UNL     1       4.288   5.992  20.936  0.00  0.00    +0.210 HD
ENDBRANCH  45  49
BRANCH  44  51
ATOM     51  O   UNL     1       2.331   5.245  24.135  0.00  0.00    -0.386 OA
ATOM     52  H   UNL     1       3.065   5.060  24.745  0.00  0.00    +0.210 HD
ENDBRANCH  44  51
BRANCH  43  53
ATOM     53  C   UNL     1       1.857   3.207  21.883  0.00  0.00    +0.190 C 
BRANCH  53  54
ATOM     54  O   UNL     1       1.303   2.590  23.036  0.00  0.00    -0.392 OA
ATOM     55  H   UNL     1       1.561   3.162  23.787  0.00  0.00    +0.210 HD
ENDBRANCH  53  54
ENDBRANCH  43  53
ENDBRANCH  40  41
ENDBRANCH   7  40
TORSDOF 18
ENDMDL
MODEL 6
REMARK VINA RESULT:      -6.8      1.763      3.085
REMARK  Name = 
REMARK  18 active torsions:
REMARK  status: ('A' for Active; 'I' for Inactive)
REMARK    1  A    between atoms: C_3  and  O_36
REMARK    2  A    between atoms: C_4  and  O_35
REMARK    3  A    between atoms: C_6  and  C_7
REMARK    4  A    between atoms: C_8  and  O_34
REMARK    5  A    between atoms: C_12  and  O_33
REMARK    6  A    between atoms: C_14  and  O_18
REMARK    7  A    between atoms: O_18  and  C_19
REMARK    8  A    between atoms: C_21  and  O_32
REMARK    9  A    between atoms: C_22  and  O_31
REMARK   10  A    between atoms: C_24  and  O_30
REMARK   11  A    between atoms: C_26  and  C_28
REMARK   12  A    between atoms: C_28  and  O_29
REMARK   13  A    between atoms: O_36  and  C_37
REMARK   14  A    between atoms: C_39  and  O_50
REMARK   15  A    between atoms: C_40  and  O_49
REMARK   16  A    between atoms: C_42  and  O_48
REMARK   17  A    between atoms: C_44  and  C_46
REMARK   18  A    between atoms: C_46  and  O_47
REMARK                            x       y       z     vdW  Elec       q    Type
REMARK                         _______ _______ _______ _____ _____    ______ ____
ROOT
ATOM      1  C   UNL     1       7.130  -3.670  24.435  0.00  0.00    +0.181 A 
ATOM      2  O   UNL     1       6.518  -2.407  24.498  0.00  0.00    -0.451 OA
ATOM      3  C   UNL     1       7.275  -1.283  24.200  0.00  0.00    +0.147 A 
ATOM      4  C   UNL     1       8.635  -1.376  23.894  0.00  0.00    +0.109 A 
ATOM      5  C   UNL     1       9.375  -0.233  23.629  0.00  0.00    +0.135 A 
ATOM      6  C   UNL     1       8.778   1.004  23.656  0.00  0.00    +0.092 A 
ATOM      7  C   UNL     1       7.420   1.153  23.975  0.00  0.00    +0.131 A 
ATOM      8  C   UNL     1       9.274  -2.678  23.844  0.00  0.00    +0.238 A 
ATOM      9  O   UNL     1      10.478  -2.763  23.618  0.00  0.00    -0.283 OA
ATOM     10  C   UNL     1       6.659  -0.009  24.220  0.00  0.00    +0.093 A 
ATOM     11  C   UNL     1       8.419  -3.857  24.058  0.00  0.00    +0.208 A 
ENDROOT
BRANCH   1  13
ATOM     12  C   UNL     1       5.265  -5.254  23.922  0.00  0.00    +0.015 A 
ATOM     13  C   UNL     1       6.277  -4.841  24.805  0.00  0.00    +0.025 A 
ATOM     14  C   UNL     1       6.373  -5.532  26.020  0.00  0.00    +0.060 A 
ATOM     15  C   UNL     1       5.372  -6.456  26.393  0.00  0.00    +0.159 A 
ATOM     16  C   UNL     1       4.251  -6.697  25.589  0.00  0.00    +0.165 A 
ATOM     17  C   UNL     1       4.256  -6.135  24.315  0.00  0.00    +0.050 A 
BRANCH  15  18
ATOM     18  O   UNL     1       5.512  -7.096  27.595  0.00  0.00    -0.503 OA
ATOM     19  H   UNL     1       6.467  -7.082  27.791  0.00  0.00    +0.292 HD
ENDBRANCH  15  18
BRANCH  16  20
ATOM     20  O   UNL     1       3.196  -7.433  26.123  0.00  0.00    -0.457 OA
BRANCH  20  21
ATOM     21  C   UNL     1       2.145  -6.601  26.677  0.00  0.00    +0.339 C 
ATOM     22  O   UNL     1       2.597  -5.918  27.849  0.00  0.00    -0.331 OA
ATOM     23  C   UNL     1       2.623  -6.739  29.027  0.00  0.00    +0.179 C 
ATOM     24  C   UNL     1       1.174  -7.062  29.411  0.00  0.00    +0.177 C 
ATOM     25  C   UNL     1       0.553  -7.908  28.291  0.00  0.00    +0.180 C 
ATOM     26  C   UNL     1       0.769  -7.289  26.902  0.00  0.00    +0.214 C 
BRANCH  26  27
ATOM     27  O   UNL     1       0.447  -8.223  25.865  0.00  0.00    -0.383 OA
ATOM     28  H   UNL     1      -0.203  -7.793  25.277  0.00  0.00    +0.210 HD
ENDBRANCH  26  27
BRANCH  25  29
ATOM     29  O   UNL     1       1.030  -9.258  28.323  0.00  0.00    -0.386 OA
ATOM     30  H   UNL     1       1.026  -9.573  29.245  0.00  0.00    +0.210 HD
ENDBRANCH  25  29
BRANCH  24  31
ATOM     31  O   UNL     1       0.445  -5.840  29.569  0.00  0.00    -0.386 OA
ATOM     32  H   UNL     1      -0.478  -5.981  29.299  0.00  0.00    +0.210 HD
ENDBRANCH  24  31
BRANCH  23  33
ATOM     33  C   UNL     1       3.360  -5.976  30.136  0.00  0.00    +0.190 C 
BRANCH  33  34
ATOM     34  O   UNL     1       4.284  -5.031  29.582  0.00  0.00    -0.392 OA
ATOM     35  H   UNL     1       4.991  -4.883  30.231  0.00  0.00    +0.210 HD
ENDBRANCH  33  34
ENDBRANCH  23  33
ENDBRANCH  20  21
ENDBRANCH  16  20
ENDBRANCH   1  13
BRANCH  11  36
ATOM     36  O   UNL     1       9.044  -5.076  23.860  0.00  0.00    -0.501 OA
ATOM     37  H   UNL     1       8.751  -5.701  24.543  0.00  0.00    +0.292 HD
ENDBRANCH  11  36
BRANCH   5  38
ATOM     38  O   UNL     1      10.717  -0.251  23.345  0.00  0.00    -0.506 OA
ATOM     39  H   UNL     1      11.057   0.672  23.407  0.00  0.00    +0.292 HD
ENDBRANCH   5  38
BRANCH   7  40
ATOM     40  O   UNL     1       6.805   2.399  24.094  0.00  0.00    -0.461 OA
BRANCH  40  41
ATOM     41  C   UNL     1       6.621   3.057  22.813  0.00  0.00    +0.339 C 
ATOM     42  O   UNL     1       7.660   4.027  22.619  0.00  0.00    -0.331 OA
ATOM     43  C   UNL     1       7.462   5.193  23.439  0.00  0.00    +0.179 C 
ATOM     44  C   UNL     1       6.262   5.957  22.865  0.00  0.00    +0.177 C 
ATOM     45  C   UNL     1       5.011   5.086  23.057  0.00  0.00    +0.180 C 
ATOM     46  C   UNL     1       5.220   3.661  22.527  0.00  0.00    +0.214 C 
BRANCH  46  47
ATOM     47  O   UNL     1       4.158   2.790  22.927  0.00  0.00    -0.383 OA
ATOM     48  H   UNL     1       3.523   3.321  23.443  0.00  0.00    +0.210 HD
ENDBRANCH  46  47
BRANCH  45  49
ATOM     49  O   UNL     1       4.587   5.057  24.425  0.00  0.00    -0.386 OA
ATOM     50  H   UNL     1       4.450   4.128  24.695  0.00  0.00    +0.210 HD
ENDBRANCH  45  49
BRANCH  44  51
ATOM     51  O   UNL     1       6.454   6.182  21.464  0.00  0.00    -0.386 OA
ATOM     52  H   UNL     1       6.507   5.320  21.017  0.00  0.00    +0.210 HD
ENDBRANCH  44  51
BRANCH  43  53
ATOM     53  C   UNL     1       8.773   5.986  23.472  0.00  0.00    +0.190 C 
BRANCH  53  54
ATOM     54  O   UNL     1       9.919   5.149  23.439  0.00  0.00    -0.392 OA
ATOM     55  H   UNL     1      10.667   5.739  23.220  0.00  0.00    +0.210 HD
ENDBRANCH  53  54
ENDBRANCH  43  53
ENDBRANCH  40  41
ENDBRANCH   7  40
TORSDOF 18
ENDMDL
MODEL 7
REMARK VINA RESULT:      -6.5      2.157     10.287
REMARK  Name = 
REMARK  18 active torsions:
REMARK  status: ('A' for Active; 'I' for Inactive)
REMARK    1  A    between atoms: C_3  and  O_36
REMARK    2  A    between atoms: C_4  and  O_35
REMARK    3  A    between atoms: C_6  and  C_7
REMARK    4  A    between atoms: C_8  and  O_34
REMARK    5  A    between atoms: C_12  and  O_33
REMARK    6  A    between atoms: C_14  and  O_18
REMARK    7  A    between atoms: O_18  and  C_19
REMARK    8  A    between atoms: C_21  and  O_32
REMARK    9  A    between atoms: C_22  and  O_31
REMARK   10  A    between atoms: C_24  and  O_30
REMARK   11  A    between atoms: C_26  and  C_28
REMARK   12  A    between atoms: C_28  and  O_29
REMARK   13  A    between atoms: O_36  and  C_37
REMARK   14  A    between atoms: C_39  and  O_50
REMARK   15  A    between atoms: C_40  and  O_49
REMARK   16  A    between atoms: C_42  and  O_48
REMARK   17  A    between atoms: C_44  and  C_46
REMARK   18  A    between atoms: C_46  and  O_47
REMARK                            x       y       z     vdW  Elec       q    Type
REMARK                         _______ _______ _______ _____ _____    ______ ____
ROOT
ATOM      1  C   UNL     1       8.071  -1.892  23.735  0.00  0.00    +0.181 A 
ATOM      2  O   UNL     1       7.509  -2.322  24.949  0.00  0.00    -0.451 OA
ATOM      3  C   UNL     1       6.868  -3.552  24.989  0.00  0.00    +0.147 A 
ATOM      4  C   UNL     1       6.724  -4.340  23.844  0.00  0.00    +0.109 A 
ATOM      5  C   UNL     1       6.052  -5.552  23.907  0.00  0.00    +0.135 A 
ATOM      6  C   UNL     1       5.528  -5.996  25.097  0.00  0.00    +0.092 A 
ATOM      7  C   UNL     1       5.630  -5.235  26.270  0.00  0.00    +0.131 A 
ATOM      8  C   UNL     1       7.288  -3.891  22.585  0.00  0.00    +0.238 A 
ATOM      9  O   UNL     1       7.126  -4.558  21.567  0.00  0.00    -0.283 OA
ATOM     10  C   UNL     1       6.335  -4.014  26.216  0.00  0.00    +0.093 A 
ATOM     11  C   UNL     1       8.056  -2.634  22.600  0.00  0.00    +0.208 A 
ENDROOT
BRANCH   1  13
ATOM     12  C   UNL     1       8.901   0.119  24.967  0.00  0.00    +0.015 A 
ATOM     13  C   UNL     1       8.713  -0.542  23.741  0.00  0.00    +0.025 A 
ATOM     14  C   UNL     1       9.094   0.155  22.587  0.00  0.00    +0.060 A 
ATOM     15  C   UNL     1       9.459   1.516  22.666  0.00  0.00    +0.159 A 
ATOM     16  C   UNL     1       9.432   2.221  23.876  0.00  0.00    +0.165 A 
ATOM     17  C   UNL     1       9.218   1.476  25.033  0.00  0.00    +0.050 A 
BRANCH  15  18
ATOM     18  O   UNL     1       9.813   2.150  21.505  0.00  0.00    -0.503 OA
ATOM     19  H   UNL     1       9.950   3.085  21.747  0.00  0.00    +0.292 HD
ENDBRANCH  15  18
BRANCH  16  20
ATOM     20  O   UNL     1       9.571   3.605  23.843  0.00  0.00    -0.457 OA
BRANCH  20  21
ATOM     21  C   UNL     1       8.487   4.302  24.510  0.00  0.00    +0.339 C 
ATOM     22  O   UNL     1       7.230   3.677  24.236  0.00  0.00    -0.331 OA
ATOM     23  C   UNL     1       6.693   3.995  22.943  0.00  0.00    +0.179 C 
ATOM     24  C   UNL     1       6.293   5.476  22.948  0.00  0.00    +0.177 C 
ATOM     25  C   UNL     1       7.563   6.320  23.123  0.00  0.00    +0.180 C 
ATOM     26  C   UNL     1       8.426   5.842  24.300  0.00  0.00    +0.214 C 
BRANCH  26  27
ATOM     27  O   UNL     1       9.725   6.442  24.266  0.00  0.00    -0.383 OA
ATOM     28  H   UNL     1      10.326   5.812  23.823  0.00  0.00    +0.210 HD
ENDBRANCH  26  27
BRANCH  25  29
ATOM     29  O   UNL     1       8.334   6.368  21.918  0.00  0.00    -0.386 OA
ATOM     30  H   UNL     1       8.122   5.587  21.375  0.00  0.00    +0.210 HD
ENDBRANCH  25  29
BRANCH  24  31
ATOM     31  O   UNL     1       5.387   5.716  24.032  0.00  0.00    -0.386 OA
ATOM     32  H   UNL     1       5.896   5.935  24.830  0.00  0.00    +0.210 HD
ENDBRANCH  24  31
BRANCH  23  33
ATOM     33  C   UNL     1       5.496   3.073  22.673  0.00  0.00    +0.190 C 
BRANCH  33  34
ATOM     34  O   UNL     1       4.473   3.761  21.941  0.00  0.00    -0.392 OA
ATOM     35  H   UNL     1       4.904   4.312  21.266  0.00  0.00    +0.210 HD
ENDBRANCH  33  34
ENDBRANCH  23  33
ENDBRANCH  20  21
ENDBRANCH  16  20
ENDBRANCH   1  13
BRANCH  11  36
ATOM     36  O   UNL     1       8.691  -2.324  21.411  0.00  0.00    -0.501 OA
ATOM     37  H   UNL     1       8.926  -1.381  21.409  0.00  0.00    +0.292 HD
ENDBRANCH  11  36
BRANCH   5  38
ATOM     38  O   UNL     1       5.853  -6.363  22.818  0.00  0.00    -0.506 OA
ATOM     39  H   UNL     1       6.464  -6.072  22.101  0.00  0.00    +0.292 HD
ENDBRANCH   5  38
BRANCH   7  40
ATOM     40  O   UNL     1       5.036  -5.617  27.472  0.00  0.00    -0.461 OA
BRANCH  40  41
ATOM     41  C   UNL     1       3.639  -5.980  27.315  0.00  0.00    +0.339 C 
ATOM     42  O   UNL     1       2.905  -4.854  26.814  0.00  0.00    -0.331 OA
ATOM     43  C   UNL     1       2.706  -3.853  27.828  0.00  0.00    +0.179 C 
ATOM     44  C   UNL     1       1.695  -4.415  28.835  0.00  0.00    +0.177 C 
ATOM     45  C   UNL     1       2.349  -5.612  29.544  0.00  0.00    +0.180 C 
ATOM     46  C   UNL     1       2.936  -6.617  28.543  0.00  0.00    +0.214 C 
BRANCH  46  47
ATOM     47  O   UNL     1       3.753  -7.593  29.196  0.00  0.00    -0.383 OA
ATOM     48  H   UNL     1       4.683  -7.323  29.076  0.00  0.00    +0.210 HD
ENDBRANCH  46  47
BRANCH  45  49
ATOM     49  O   UNL     1       3.346  -5.195  30.483  0.00  0.00    -0.386 OA
ATOM     50  H   UNL     1       3.910  -4.514  30.066  0.00  0.00    +0.210 HD
ENDBRANCH  45  49
BRANCH  44  51
ATOM     51  O   UNL     1       0.525  -4.872  28.147  0.00  0.00    -0.386 OA
ATOM     52  H   UNL     1       0.687  -4.810  27.191  0.00  0.00    +0.210 HD
ENDBRANCH  44  51
BRANCH  43  53
ATOM     53  C   UNL     1       2.274  -2.552  27.143  0.00  0.00    +0.190 C 
BRANCH  53  54
ATOM     54  O   UNL     1       2.535  -2.558  25.747  0.00  0.00    -0.392 OA
ATOM     55  H   UNL     1       3.143  -1.808  25.592  0.00  0.00    +0.210 HD
ENDBRANCH  53  54
ENDBRANCH  43  53
ENDBRANCH  40  41
ENDBRANCH   7  40
TORSDOF 18
ENDMDL
MODEL 8
REMARK VINA RESULT:      -6.5      2.096      9.764
REMARK  Name = 
REMARK  18 active torsions:
REMARK  status: ('A' for Active; 'I' for Inactive)
REMARK    1  A    between atoms: C_3  and  O_36
REMARK    2  A    between atoms: C_4  and  O_35
REMARK    3  A    between atoms: C_6  and  C_7
REMARK    4  A    between atoms: C_8  and  O_34
REMARK    5  A    between atoms: C_12  and  O_33
REMARK    6  A    between atoms: C_14  and  O_18
REMARK    7  A    between atoms: O_18  and  C_19
REMARK    8  A    between atoms: C_21  and  O_32
REMARK    9  A    between atoms: C_22  and  O_31
REMARK   10  A    between atoms: C_24  and  O_30
REMARK   11  A    between atoms: C_26  and  C_28
REMARK   12  A    between atoms: C_28  and  O_29
REMARK   13  A    between atoms: O_36  and  C_37
REMARK   14  A    between atoms: C_39  and  O_50
REMARK   15  A    between atoms: C_40  and  O_49
REMARK   16  A    between atoms: C_42  and  O_48
REMARK   17  A    between atoms: C_44  and  C_46
REMARK   18  A    between atoms: C_46  and  O_47
REMARK                            x       y       z     vdW  Elec       q    Type
REMARK                         _______ _______ _______ _____ _____    ______ ____
ROOT
ATOM      1  C   UNL     1       8.618  -0.216  24.364  0.00  0.00    +0.181 A 
ATOM      2  O   UNL     1       7.738  -0.790  25.297  0.00  0.00    -0.451 OA
ATOM      3  C   UNL     1       7.898  -2.128  25.629  0.00  0.00    +0.147 A 
ATOM      4  C   UNL     1       8.872  -2.922  25.019  0.00  0.00    +0.109 A 
ATOM      5  C   UNL     1       8.989  -4.264  25.348  0.00  0.00    +0.135 A 
ATOM      6  C   UNL     1       8.155  -4.827  26.284  0.00  0.00    +0.092 A 
ATOM      7  C   UNL     1       7.150  -4.077  26.912  0.00  0.00    +0.131 A 
ATOM      8  C   UNL     1       9.771  -2.337  24.043  0.00  0.00    +0.238 A 
ATOM      9  O   UNL     1      10.600  -3.040  23.472  0.00  0.00    -0.283 OA
ATOM     10  C   UNL     1       7.044  -2.706  26.599  0.00  0.00    +0.093 A 
ATOM     11  C   UNL     1       9.647  -0.890  23.794  0.00  0.00    +0.208 A 
ENDROOT
BRANCH   1  13
ATOM     12  C   UNL     1       8.723   2.215  24.943  0.00  0.00    +0.015 A 
ATOM     13  C   UNL     1       8.374   1.218  24.016  0.00  0.00    +0.025 A 
ATOM     14  C   UNL     1       7.754   1.647  22.835  0.00  0.00    +0.060 A 
ATOM     15  C   UNL     1       7.337   2.989  22.698  0.00  0.00    +0.159 A 
ATOM     16  C   UNL     1       7.502   3.924  23.727  0.00  0.00    +0.165 A 
ATOM     17  C   UNL     1       8.270   3.528  24.820  0.00  0.00    +0.050 A 
BRANCH  15  18
ATOM     18  O   UNL     1       6.727   3.351  21.526  0.00  0.00    -0.503 OA
ATOM     19  H   UNL     1       6.074   4.033  21.770  0.00  0.00    +0.292 HD
ENDBRANCH  15  18
BRANCH  16  20
ATOM     20  O   UNL     1       6.861   5.154  23.617  0.00  0.00    -0.457 OA
BRANCH  20  21
ATOM     21  C   UNL     1       5.710   5.276  24.493  0.00  0.00    +0.339 C 
ATOM     22  O   UNL     1       5.526   4.086  25.265  0.00  0.00    -0.331 OA
ATOM     23  C   UNL     1       4.910   3.011  24.538  0.00  0.00    +0.179 C 
ATOM     24  C   UNL     1       3.456   3.407  24.250  0.00  0.00    +0.177 C 
ATOM     25  C   UNL     1       3.462   4.628  23.321  0.00  0.00    +0.180 C 
ATOM     26  C   UNL     1       4.385   5.746  23.828  0.00  0.00    +0.214 C 
BRANCH  26  27
ATOM     27  O   UNL     1       4.601   6.737  22.817  0.00  0.00    -0.383 OA
ATOM     28  H   UNL     1       4.566   6.284  21.953  0.00  0.00    +0.210 HD
ENDBRANCH  26  27
BRANCH  25  29
ATOM     29  O   UNL     1       3.797   4.267  21.977  0.00  0.00    -0.386 OA
ATOM     30  H   UNL     1       3.003   4.356  21.418  0.00  0.00    +0.210 HD
ENDBRANCH  25  29
BRANCH  24  31
ATOM     31  O   UNL     1       2.802   3.728  25.484  0.00  0.00    -0.386 OA
ATOM     32  H   UNL     1       2.661   2.911  25.992  0.00  0.00    +0.210 HD
ENDBRANCH  24  31
BRANCH  23  33
ATOM     33  C   UNL     1       5.006   1.734  25.384  0.00  0.00    +0.190 C 
BRANCH  33  34
ATOM     34  O   UNL     1       5.088   0.572  24.550  0.00  0.00    -0.392 OA
ATOM     35  H   UNL     1       4.525   0.719  23.771  0.00  0.00    +0.210 HD
ENDBRANCH  33  34
ENDBRANCH  23  33
ENDBRANCH  20  21
ENDBRANCH  16  20
ENDBRANCH   1  13
BRANCH  11  36
ATOM     36  O   UNL     1      10.616  -0.355  22.965  0.00  0.00    -0.501 OA
ATOM     37  H   UNL     1      10.187   0.101  22.222  0.00  0.00    +0.292 HD
ENDBRANCH  11  36
BRANCH   5  38
ATOM     38  O   UNL     1       9.906  -5.107  24.772  0.00  0.00    -0.506 OA
ATOM     39  H   UNL     1       9.417  -5.795  24.264  0.00  0.00    +0.292 HD
ENDBRANCH   5  38
BRANCH   7  40
ATOM     40  O   UNL     1       6.234  -4.638  27.801  0.00  0.00    -0.461 OA
BRANCH  40  41
ATOM     41  C   UNL     1       5.625  -5.852  27.286  0.00  0.00    +0.339 C 
ATOM     42  O   UNL     1       4.435  -5.519  26.557  0.00  0.00    -0.331 OA
ATOM     43  C   UNL     1       3.357  -5.149  27.436  0.00  0.00    +0.179 C 
ATOM     44  C   UNL     1       2.894  -6.423  28.153  0.00  0.00    +0.177 C 
ATOM     45  C   UNL     1       4.038  -6.897  29.063  0.00  0.00    +0.180 C 
ATOM     46  C   UNL     1       5.368  -6.996  28.302  0.00  0.00    +0.214 C 
BRANCH  46  47
ATOM     47  O   UNL     1       6.470  -7.193  29.193  0.00  0.00    -0.383 OA
ATOM     48  H   UNL     1       6.731  -8.131  29.133  0.00  0.00    +0.210 HD
ENDBRANCH  46  47
BRANCH  45  49
ATOM     49  O   UNL     1       4.180  -6.064  30.219  0.00  0.00    -0.386 OA
ATOM     50  H   UNL     1       5.130  -5.973  30.430  0.00  0.00    +0.210 HD
ENDBRANCH  45  49
BRANCH  44  51
ATOM     51  O   UNL     1       2.616  -7.449  27.193  0.00  0.00    -0.386 OA
ATOM     52  H   UNL     1       2.293  -8.234  27.666  0.00  0.00    +0.210 HD
ENDBRANCH  44  51
BRANCH  43  53
ATOM     53  C   UNL     1       2.276  -4.451  26.604  0.00  0.00    +0.190 C 
BRANCH  53  54
ATOM     54  O   UNL     1       1.790  -5.264  25.546  0.00  0.00    -0.392 OA
ATOM     55  H   UNL     1       2.532  -5.341  24.914  0.00  0.00    +0.210 HD
ENDBRANCH  53  54
ENDBRANCH  43  53
ENDBRANCH  40  41
ENDBRANCH   7  40
TORSDOF 18
ENDMDL
MODEL 9
REMARK VINA RESULT:      -6.4      1.761      2.978
REMARK  Name = 
REMARK  18 active torsions:
REMARK  status: ('A' for Active; 'I' for Inactive)
REMARK    1  A    between atoms: C_3  and  O_36
REMARK    2  A    between atoms: C_4  and  O_35
REMARK    3  A    between atoms: C_6  and  C_7
REMARK    4  A    between atoms: C_8  and  O_34
REMARK    5  A    between atoms: C_12  and  O_33
REMARK    6  A    between atoms: C_14  and  O_18
REMARK    7  A    between atoms: O_18  and  C_19
REMARK    8  A    between atoms: C_21  and  O_32
REMARK    9  A    between atoms: C_22  and  O_31
REMARK   10  A    between atoms: C_24  and  O_30
REMARK   11  A    between atoms: C_26  and  C_28
REMARK   12  A    between atoms: C_28  and  O_29
REMARK   13  A    between atoms: O_36  and  C_37
REMARK   14  A    between atoms: C_39  and  O_50
REMARK   15  A    between atoms: C_40  and  O_49
REMARK   16  A    between atoms: C_42  and  O_48
REMARK   17  A    between atoms: C_44  and  C_46
REMARK   18  A    between atoms: C_46  and  O_47
REMARK                            x       y       z     vdW  Elec       q    Type
REMARK                         _______ _______ _______ _____ _____    ______ ____
ROOT
ATOM      1  C   UNL     1       7.091  -4.021  24.116  0.00  0.00    +0.181 A 
ATOM      2  O   UNL     1       6.418  -2.836  23.776  0.00  0.00    -0.451 OA
ATOM      3  C   UNL     1       7.167  -1.723  23.416  0.00  0.00    +0.147 A 
ATOM      4  C   UNL     1       8.563  -1.743  23.438  0.00  0.00    +0.109 A 
ATOM      5  C   UNL     1       9.286  -0.607  23.103  0.00  0.00    +0.135 A 
ATOM      6  C   UNL     1       8.637   0.547  22.737  0.00  0.00    +0.092 A 
ATOM      7  C   UNL     1       7.237   0.624  22.715  0.00  0.00    +0.131 A 
ATOM      8  C   UNL     1       9.261  -2.961  23.805  0.00  0.00    +0.238 A 
ATOM      9  O   UNL     1      10.487  -2.970  23.869  0.00  0.00    -0.283 OA
ATOM     10  C   UNL     1       6.499  -0.536  23.031  0.00  0.00    +0.093 A 
ATOM     11  C   UNL     1       8.440  -4.153  24.075  0.00  0.00    +0.208 A 
ENDROOT
BRANCH   1  13
ATOM     12  C   UNL     1       5.319  -5.713  23.613  0.00  0.00    +0.015 A 
ATOM     13  C   UNL     1       6.236  -5.174  24.533  0.00  0.00    +0.025 A 
ATOM     14  C   UNL     1       6.235  -5.730  25.819  0.00  0.00    +0.060 A 
ATOM     15  C   UNL     1       5.227  -6.643  26.199  0.00  0.00    +0.159 A 
ATOM     16  C   UNL     1       4.190  -7.004  25.329  0.00  0.00    +0.165 A 
ATOM     17  C   UNL     1       4.300  -6.580  24.008  0.00  0.00    +0.050 A 
BRANCH  15  18
ATOM     18  O   UNL     1       5.270  -7.147  27.471  0.00  0.00    -0.503 OA
ATOM     19  H   UNL     1       4.843  -6.475  28.035  0.00  0.00    +0.292 HD
ENDBRANCH  15  18
BRANCH  16  20
ATOM     20  O   UNL     1       3.109  -7.715  25.843  0.00  0.00    -0.457 OA
BRANCH  20  21
ATOM     21  C   UNL     1       1.891  -6.929  25.907  0.00  0.00    +0.339 C 
ATOM     22  O   UNL     1       2.167  -5.539  25.708  0.00  0.00    -0.331 OA
ATOM     23  C   UNL     1       2.701  -4.881  26.867  0.00  0.00    +0.179 C 
ATOM     24  C   UNL     1       1.593  -4.816  27.927  0.00  0.00    +0.177 C 
ATOM     25  C   UNL     1       1.243  -6.248  28.350  0.00  0.00    +0.180 C 
ATOM     26  C   UNL     1       0.982  -7.167  27.146  0.00  0.00    +0.214 C 
BRANCH  26  27
ATOM     27  O   UNL     1       0.947  -8.542  27.544  0.00  0.00    -0.383 OA
ATOM     28  H   UNL     1       1.371  -8.602  28.422  0.00  0.00    +0.210 HD
ENDBRANCH  26  27
BRANCH  25  29
ATOM     29  O   UNL     1       2.246  -6.807  29.204  0.00  0.00    -0.386 OA
ATOM     30  H   UNL     1       1.812  -7.332  29.901  0.00  0.00    +0.210 HD
ENDBRANCH  25  29
BRANCH  24  31
ATOM     31  O   UNL     1       0.444  -4.170  27.367  0.00  0.00    -0.386 OA
ATOM     32  H   UNL     1      -0.349  -4.691  27.577  0.00  0.00    +0.210 HD
ENDBRANCH  24  31
BRANCH  23  33
ATOM     33  C   UNL     1       3.190  -3.486  26.453  0.00  0.00    +0.190 C 
BRANCH  33  34
ATOM     34  O   UNL     1       2.308  -2.901  25.486  0.00  0.00    -0.392 OA
ATOM     35  H   UNL     1       1.415  -2.876  25.869  0.00  0.00    +0.210 HD
ENDBRANCH  33  34
ENDBRANCH  23  33
ENDBRANCH  20  21
ENDBRANCH  16  20
ENDBRANCH   1  13
BRANCH  11  36
ATOM     36  O   UNL     1       9.155  -5.320  24.280  0.00  0.00    -0.501 OA
ATOM     37  H   UNL     1       9.711  -5.496  23.503  0.00  0.00    +0.292 HD
ENDBRANCH  11  36
BRANCH   5  38
ATOM     38  O   UNL     1      10.657  -0.549  23.126  0.00  0.00    -0.506 OA
ATOM     39  H   UNL     1      10.989  -0.746  22.219  0.00  0.00    +0.292 HD
ENDBRANCH   5  38
BRANCH   7  40
ATOM     40  O   UNL     1       6.549   1.803  22.432  0.00  0.00    -0.461 OA
BRANCH  40  41
ATOM     41  C   UNL     1       6.121   2.502  23.630  0.00  0.00    +0.339 C 
ATOM     42  O   UNL     1       4.688   2.571  23.659  0.00  0.00    -0.331 OA
ATOM     43  C   UNL     1       4.181   3.529  22.713  0.00  0.00    +0.179 C 
ATOM     44  C   UNL     1       4.534   4.925  23.242  0.00  0.00    +0.177 C 
ATOM     45  C   UNL     1       6.064   5.070  23.212  0.00  0.00    +0.180 C 
ATOM     46  C   UNL     1       6.762   3.889  23.902  0.00  0.00    +0.214 C 
BRANCH  46  47
ATOM     47  O   UNL     1       8.171   3.897  23.658  0.00  0.00    -0.383 OA
ATOM     48  H   UNL     1       8.332   4.475  22.889  0.00  0.00    +0.210 HD
ENDBRANCH  46  47
BRANCH  45  49
ATOM     49  O   UNL     1       6.557   5.236  21.878  0.00  0.00    -0.386 OA
ATOM     50  H   UNL     1       6.312   6.127  21.558  0.00  0.00    +0.210 HD
ENDBRANCH  45  49
BRANCH  44  51
ATOM     51  O   UNL     1       4.086   5.061  24.595  0.00  0.00    -0.386 OA
ATOM     52  H   UNL     1       4.746   4.652  25.180  0.00  0.00    +0.210 HD
ENDBRANCH  44  51
BRANCH  43  53
ATOM     53  C   UNL     1       2.682   3.274  22.525  0.00  0.00    +0.190 C 
BRANCH  53  54
ATOM     54  O   UNL     1       2.046   2.848  23.722  0.00  0.00    -0.392 OA
ATOM     55  H   UNL     1       2.194   3.568  24.366  0.00  0.00    +0.210 HD
ENDBRANCH  53  54
ENDBRANCH  43  53
ENDBRANCH  40  41
ENDBRANCH   7  40
TORSDOF 18
ENDMDL
