MODEL 1
REMARK VINA RESULT:      -8.1      0.000      0.000
REMARK  Name = 
REMARK  12 active torsions:
REMARK  status: ('A' for Active; 'I' for Inactive)
REMARK    1  A    between atoms: C_3  and  O_36
REMARK    2  A    between atoms: C_4  and  O_35
REMARK    3  A    between atoms: C_6  and  C_7
REMARK    4  A    between atoms: C_8  and  O_34
REMARK    5  A    between atoms: C_15  and  O_33
REMARK    6  A    between atoms: C_17  and  O_18
REMARK    7  A    between atoms: O_18  and  C_19
REMARK    8  A    between atoms: C_21  and  O_32
REMARK    9  A    between atoms: C_22  and  O_31
REMARK   10  A    between atoms: C_24  and  O_30
REMARK   11  A    between atoms: C_26  and  C_28
REMARK   12  A    between atoms: C_28  and  O_29
REMARK                            x       y       z     vdW  Elec       q    Type
REMARK                         _______ _______ _______ _____ _____    ______ ____
ROOT
ATOM      1  C   UNL     1       8.347  -0.416  23.639  0.00  0.00    +0.181 A 
ATOM      2  O   UNL     1       9.288  -1.385  23.970  0.00  0.00    -0.451 OA
ATOM      3  C   UNL     1       8.858  -2.668  24.227  0.00  0.00    +0.147 A 
ATOM      4  C   UNL     1       9.798  -3.537  24.775  0.00  0.00    +0.092 A 
ATOM      5  C   UNL     1       9.401  -4.833  25.098  0.00  0.00    +0.124 A 
ATOM      6  C   UNL     1       8.100  -5.278  24.857  0.00  0.00    +0.092 A 
ATOM      7  C   UNL     1       7.167  -4.441  24.238  0.00  0.00    +0.142 A 
ATOM      8  C   UNL     1       7.557  -3.115  23.957  0.00  0.00    +0.110 A 
ATOM      9  C   UNL     1       6.622  -2.120  23.414  0.00  0.00    +0.238 A 
ATOM     10  O   UNL     1       5.512  -2.392  22.957  0.00  0.00    -0.283 OA
ATOM     11  C   UNL     1       7.049  -0.701  23.426  0.00  0.00    +0.208 A 
ENDROOT
BRANCH   1  13
ATOM     12  C   UNL     1       9.911   1.149  22.447  0.00  0.00    +0.015 A 
ATOM     13  C   UNL     1       8.926   0.941  23.438  0.00  0.00    +0.025 A 
ATOM     14  C   UNL     1       8.614   2.014  24.288  0.00  0.00    +0.060 A 
ATOM     15  C   UNL     1       9.298   3.224  24.158  0.00  0.00    +0.159 A 
ATOM     16  C   UNL     1      10.288   3.393  23.194  0.00  0.00    +0.158 A 
ATOM     17  C   UNL     1      10.586   2.366  22.316  0.00  0.00    +0.050 A 
BRANCH  15  18
ATOM     18  O   UNL     1       9.015   4.256  25.013  0.00  0.00    -0.503 OA
ATOM     19  H   UNL     1       8.112   4.535  24.767  0.00  0.00    +0.292 HD
ENDBRANCH  15  18
BRANCH  16  20
ATOM     20  O   UNL     1      10.962   4.582  23.163  0.00  0.00    -0.503 OA
ATOM     21  H   UNL     1      11.663   4.545  23.837  0.00  0.00    +0.292 HD
ENDBRANCH  16  20
ENDBRANCH   1  13
BRANCH   5  22
ATOM     22  O   UNL     1      10.271  -5.718  25.658  0.00  0.00    -0.507 OA
ATOM     23  H   UNL     1      10.930  -5.235  26.187  0.00  0.00    +0.292 HD
ENDBRANCH   5  22
BRANCH  11  24
ATOM     24  O   UNL     1       6.077   0.243  23.147  0.00  0.00    -0.501 OA
ATOM     25  H   UNL     1       6.061   0.305  22.169  0.00  0.00    +0.292 HD
ENDBRANCH  11  24
BRANCH   7  26
ATOM     26  O   UNL     1       5.911  -4.846  23.854  0.00  0.00    -0.460 OA
BRANCH  26  27
ATOM     27  C   UNL     1       4.795  -4.582  24.725  0.00  0.00    +0.339 C 
ATOM     28  O   UNL     1       5.089  -4.846  26.101  0.00  0.00    -0.331 OA
ATOM     29  C   UNL     1       5.257  -6.243  26.429  0.00  0.00    +0.179 C 
ATOM     30  C   UNL     1       4.034  -7.097  26.042  0.00  0.00    +0.177 C 
ATOM     31  C   UNL     1       3.692  -6.885  24.565  0.00  0.00    +0.180 C 
ATOM     32  C   UNL     1       3.558  -5.385  24.263  0.00  0.00    +0.214 C 
BRANCH  30  33
ATOM     33  O   UNL     1       2.907  -6.735  26.850  0.00  0.00    -0.386 OA
ATOM     34  H   UNL     1       2.943  -7.265  27.667  0.00  0.00    +0.210 HD
ENDBRANCH  30  33
BRANCH  31  35
ATOM     35  O   UNL     1       4.647  -7.531  23.717  0.00  0.00    -0.386 OA
ATOM     36  H   UNL     1       5.405  -6.939  23.546  0.00  0.00    +0.210 HD
ENDBRANCH  31  35
BRANCH  32  37
ATOM     37  O   UNL     1       3.277  -5.182  22.873  0.00  0.00    -0.383 OA
ATOM     38  H   UNL     1       3.353  -4.220  22.717  0.00  0.00    +0.210 HD
ENDBRANCH  32  37
BRANCH  29  39
ATOM     39  C   UNL     1       5.509  -6.299  27.941  0.00  0.00    +0.190 C 
BRANCH  39  40
ATOM     40  O   UNL     1       5.252  -7.625  28.411  0.00  0.00    -0.392 OA
ATOM     41  H   UNL     1       4.509  -7.532  29.039  0.00  0.00    +0.210 HD
ENDBRANCH  39  40
ENDBRANCH  29  39
ENDBRANCH  26  27
ENDBRANCH   7  26
TORSDOF 12
ENDMDL
MODEL 2
REMARK VINA RESULT:      -8.1      2.004      3.388
REMARK  Name = 
REMARK  12 active torsions:
REMARK  status: ('A' for Active; 'I' for Inactive)
REMARK    1  A    between atoms: C_3  and  O_36
REMARK    2  A    between atoms: C_4  and  O_35
REMARK    3  A    between atoms: C_6  and  C_7
REMARK    4  A    between atoms: C_8  and  O_34
REMARK    5  A    between atoms: C_15  and  O_33
REMARK    6  A    between atoms: C_17  and  O_18
REMARK    7  A    between atoms: O_18  and  C_19
REMARK    8  A    between atoms: C_21  and  O_32
REMARK    9  A    between atoms: C_22  and  O_31
REMARK   10  A    between atoms: C_24  and  O_30
REMARK   11  A    between atoms: C_26  and  C_28
REMARK   12  A    between atoms: C_28  and  O_29
REMARK                            x       y       z     vdW  Elec       q    Type
REMARK                         _______ _______ _______ _____ _____    ______ ____
ROOT
ATOM      1  C   UNL     1       8.096  -1.729  24.117  0.00  0.00    +0.181 A 
ATOM      2  O   UNL     1       7.709  -2.449  22.992  0.00  0.00    -0.451 OA
ATOM      3  C   UNL     1       6.924  -3.569  23.158  0.00  0.00    +0.147 A 
ATOM      4  C   UNL     1       6.759  -4.379  22.038  0.00  0.00    +0.092 A 
ATOM      5  C   UNL     1       6.012  -5.549  22.165  0.00  0.00    +0.124 A 
ATOM      6  C   UNL     1       5.411  -5.902  23.374  0.00  0.00    +0.092 A 
ATOM      7  C   UNL     1       5.505  -5.061  24.485  0.00  0.00    +0.142 A 
ATOM      8  C   UNL     1       6.301  -3.903  24.369  0.00  0.00    +0.110 A 
ATOM      9  C   UNL     1       6.562  -3.010  25.507  0.00  0.00    +0.238 A 
ATOM     10  O   UNL     1       5.953  -3.058  26.576  0.00  0.00    -0.283 OA
ATOM     11  C   UNL     1       7.630  -1.995  25.351  0.00  0.00    +0.208 A 
ENDROOT
BRANCH   1  13
ATOM     12  C   UNL     1      10.024  -0.229  24.709  0.00  0.00    +0.015 A 
ATOM     13  C   UNL     1       8.986  -0.574  23.815  0.00  0.00    +0.025 A 
ATOM     14  C   UNL     1       8.757   0.273  22.719  0.00  0.00    +0.060 A 
ATOM     15  C   UNL     1       9.520   1.431  22.565  0.00  0.00    +0.159 A 
ATOM     16  C   UNL     1      10.517   1.765  23.479  0.00  0.00    +0.158 A 
ATOM     17  C   UNL     1      10.792   0.927  24.545  0.00  0.00    +0.050 A 
BRANCH  15  18
ATOM     18  O   UNL     1       9.268   2.273  21.514  0.00  0.00    -0.503 OA
ATOM     19  H   UNL     1       9.286   3.167  21.910  0.00  0.00    +0.292 HD
ENDBRANCH  15  18
BRANCH  16  20
ATOM     20  O   UNL     1      11.184   2.945  23.303  0.00  0.00    -0.503 OA
ATOM     21  H   UNL     1      12.116   2.736  23.118  0.00  0.00    +0.292 HD
ENDBRANCH  16  20
ENDBRANCH   1  13
BRANCH   5  22
ATOM     22  O   UNL     1       5.838  -6.392  21.110  0.00  0.00    -0.507 OA
ATOM     23  H   UNL     1       6.570  -7.031  21.080  0.00  0.00    +0.292 HD
ENDBRANCH   5  22
BRANCH  11  24
ATOM     24  O   UNL     1       8.031  -1.334  26.499  0.00  0.00    -0.501 OA
ATOM     25  H   UNL     1       7.496  -1.733  27.217  0.00  0.00    +0.292 HD
ENDBRANCH  11  24
BRANCH   7  26
ATOM     26  O   UNL     1       4.838  -5.276  25.668  0.00  0.00    -0.460 OA
BRANCH  26  27
ATOM     27  C   UNL     1       4.841  -6.596  26.242  0.00  0.00    +0.339 C 
ATOM     28  O   UNL     1       3.534  -7.176  26.310  0.00  0.00    -0.331 OA
ATOM     29  C   UNL     1       2.644  -6.558  27.265  0.00  0.00    +0.179 C 
ATOM     30  C   UNL     1       3.220  -6.543  28.694  0.00  0.00    +0.177 C 
ATOM     31  C   UNL     1       4.608  -5.897  28.693  0.00  0.00    +0.180 C 
ATOM     32  C   UNL     1       5.503  -6.567  27.640  0.00  0.00    +0.214 C 
BRANCH  30  33
ATOM     33  O   UNL     1       3.315  -7.881  29.199  0.00  0.00    -0.386 OA
ATOM     34  H   UNL     1       2.429  -8.282  29.151  0.00  0.00    +0.210 HD
ENDBRANCH  30  33
BRANCH  31  35
ATOM     35  O   UNL     1       4.517  -4.480  28.513  0.00  0.00    -0.386 OA
ATOM     36  H   UNL     1       4.049  -4.071  29.266  0.00  0.00    +0.210 HD
ENDBRANCH  31  35
BRANCH  32  37
ATOM     37  O   UNL     1       6.789  -5.940  27.609  0.00  0.00    -0.383 OA
ATOM     38  H   UNL     1       7.342  -6.478  27.008  0.00  0.00    +0.210 HD
ENDBRANCH  32  37
BRANCH  29  39
ATOM     39  C   UNL     1       1.336  -7.358  27.210  0.00  0.00    +0.190 C 
BRANCH  39  40
ATOM     40  O   UNL     1       1.626  -8.708  26.837  0.00  0.00    -0.392 OA
ATOM     41  H   UNL     1       2.495  -8.901  27.240  0.00  0.00    +0.210 HD
ENDBRANCH  39  40
ENDBRANCH  29  39
ENDBRANCH  26  27
ENDBRANCH   7  26
TORSDOF 12
ENDMDL
MODEL 3
REMARK VINA RESULT:      -8.0      1.573      2.493
REMARK  Name = 
REMARK  12 active torsions:
REMARK  status: ('A' for Active; 'I' for Inactive)
REMARK    1  A    between atoms: C_3  and  O_36
REMARK    2  A    between atoms: C_4  and  O_35
REMARK    3  A    between atoms: C_6  and  C_7
REMARK    4  A    between atoms: C_8  and  O_34
REMARK    5  A    between atoms: C_15  and  O_33
REMARK    6  A    between atoms: C_17  and  O_18
REMARK    7  A    between atoms: O_18  and  C_19
REMARK    8  A    between atoms: C_21  and  O_32
REMARK    9  A    between atoms: C_22  and  O_31
REMARK   10  A    between atoms: C_24  and  O_30
REMARK   11  A    between atoms: C_26  and  C_28
REMARK   12  A    between atoms: C_28  and  O_29
REMARK                            x       y       z     vdW  Elec       q    Type
REMARK                         _______ _______ _______ _____ _____    ______ ____
ROOT
ATOM      1  C   UNL     1       7.542  -0.410  24.165  0.00  0.00    +0.181 A 
ATOM      2  O   UNL     1       8.576  -1.339  24.098  0.00  0.00    -0.451 OA
ATOM      3  C   UNL     1       8.334  -2.632  24.505  0.00  0.00    +0.147 A 
ATOM      4  C   UNL     1       9.447  -3.457  24.638  0.00  0.00    +0.092 A 
ATOM      5  C   UNL     1       9.262  -4.762  25.093  0.00  0.00    +0.124 A 
ATOM      6  C   UNL     1       7.991  -5.257  25.385  0.00  0.00    +0.092 A 
ATOM      7  C   UNL     1       6.857  -4.466  25.184  0.00  0.00    +0.142 A 
ATOM      8  C   UNL     1       7.051  -3.131  24.771  0.00  0.00    +0.110 A 
ATOM      9  C   UNL     1       5.939  -2.179  24.641  0.00  0.00    +0.238 A 
ATOM     10  O   UNL     1       4.750  -2.499  24.659  0.00  0.00    -0.283 OA
ATOM     11  C   UNL     1       6.279  -0.746  24.483  0.00  0.00    +0.208 A 
ENDROOT
BRANCH   1  13
ATOM     12  C   UNL     1       9.008   1.617  24.405  0.00  0.00    +0.015 A 
ATOM     13  C   UNL     1       7.940   0.963  23.751  0.00  0.00    +0.025 A 
ATOM     14  C   UNL     1       7.207   1.694  22.802  0.00  0.00    +0.060 A 
ATOM     15  C   UNL     1       7.523   3.032  22.561  0.00  0.00    +0.159 A 
ATOM     16  C   UNL     1       8.561   3.662  23.242  0.00  0.00    +0.158 A 
ATOM     17  C   UNL     1       9.326   2.954  24.153  0.00  0.00    +0.050 A 
BRANCH  15  18
ATOM     18  O   UNL     1       6.782   3.750  21.661  0.00  0.00    -0.503 OA
ATOM     19  H   UNL     1       5.880   3.756  22.038  0.00  0.00    +0.292 HD
ENDBRANCH  15  18
BRANCH  16  20
ATOM     20  O   UNL     1       8.776   4.991  23.004  0.00  0.00    -0.503 OA
ATOM     21  H   UNL     1       9.051   5.087  22.076  0.00  0.00    +0.292 HD
ENDBRANCH  16  20
ENDBRANCH   1  13
BRANCH   5  22
ATOM     22  O   UNL     1      10.317  -5.604  25.265  0.00  0.00    -0.507 OA
ATOM     23  H   UNL     1      10.350  -6.239  24.528  0.00  0.00    +0.292 HD
ENDBRANCH   5  22
BRANCH  11  24
ATOM     24  O   UNL     1       5.238   0.157  24.609  0.00  0.00    -0.501 OA
ATOM     25  H   UNL     1       4.434  -0.352  24.374  0.00  0.00    +0.292 HD
ENDBRANCH  11  24
BRANCH   7  26
ATOM     26  O   UNL     1       5.568  -4.922  25.328  0.00  0.00    -0.460 OA
BRANCH  26  27
ATOM     27  C   UNL     1       5.333  -6.128  26.077  0.00  0.00    +0.339 C 
ATOM     28  O   UNL     1       4.510  -7.067  25.376  0.00  0.00    -0.331 OA
ATOM     29  C   UNL     1       3.130  -6.669  25.223  0.00  0.00    +0.179 C 
ATOM     30  C   UNL     1       2.445  -6.364  26.569  0.00  0.00    +0.177 C 
ATOM     31  C   UNL     1       3.262  -5.334  27.352  0.00  0.00    +0.180 C 
ATOM     32  C   UNL     1       4.725  -5.788  27.457  0.00  0.00    +0.214 C 
BRANCH  30  33
ATOM     33  O   UNL     1       2.324  -7.565  27.341  0.00  0.00    -0.386 OA
ATOM     34  H   UNL     1       2.430  -8.321  26.736  0.00  0.00    +0.210 HD
ENDBRANCH  30  33
BRANCH  31  35
ATOM     35  O   UNL     1       3.134  -4.029  26.777  0.00  0.00    -0.386 OA
ATOM     36  H   UNL     1       3.664  -3.381  27.281  0.00  0.00    +0.210 HD
ENDBRANCH  31  35
BRANCH  32  37
ATOM     37  O   UNL     1       5.501  -4.807  28.155  0.00  0.00    -0.383 OA
ATOM     38  H   UNL     1       6.248  -5.289  28.562  0.00  0.00    +0.210 HD
ENDBRANCH  32  37
BRANCH  29  39
ATOM     39  C   UNL     1       2.429  -7.827  24.501  0.00  0.00    +0.190 C 
BRANCH  39  40
ATOM     40  O   UNL     1       2.790  -9.060  25.128  0.00  0.00    -0.392 OA
ATOM     41  H   UNL     1       1.961  -9.398  25.519  0.00  0.00    +0.210 HD
ENDBRANCH  39  40
ENDBRANCH  29  39
ENDBRANCH  26  27
ENDBRANCH   7  26
TORSDOF 12
ENDMDL
MODEL 4
REMARK VINA RESULT:      -7.9      1.787      3.179
REMARK  Name = 
REMARK  12 active torsions:
REMARK  status: ('A' for Active; 'I' for Inactive)
REMARK    1  A    between atoms: C_3  and  O_36
REMARK    2  A    between atoms: C_4  and  O_35
REMARK    3  A    between atoms: C_6  and  C_7
REMARK    4  A    between atoms: C_8  and  O_34
REMARK    5  A    between atoms: C_15  and  O_33
REMARK    6  A    between atoms: C_17  and  O_18
REMARK    7  A    between atoms: O_18  and  C_19
REMARK    8  A    between atoms: C_21  and  O_32
REMARK    9  A    between atoms: C_22  and  O_31
REMARK   10  A    between atoms: C_24  and  O_30
REMARK   11  A    between atoms: C_26  and  C_28
REMARK   12  A    between atoms: C_28  and  O_29
REMARK                            x       y       z     vdW  Elec       q    Type
REMARK                         _______ _______ _______ _____ _____    ______ ____
ROOT
ATOM      1  C   UNL     1       8.323   0.126  24.083  0.00  0.00    +0.181 A 
ATOM      2  O   UNL     1       7.666  -0.413  22.983  0.00  0.00    -0.451 OA
ATOM      3  C   UNL     1       7.099  -1.663  23.095  0.00  0.00    +0.147 A 
ATOM      4  C   UNL     1       6.659  -2.251  21.912  0.00  0.00    +0.092 A 
ATOM      5  C   UNL     1       6.121  -3.536  21.964  0.00  0.00    +0.124 A 
ATOM      6  C   UNL     1       5.988  -4.221  23.172  0.00  0.00    +0.092 A 
ATOM      7  C   UNL     1       6.354  -3.614  24.376  0.00  0.00    +0.142 A 
ATOM      8  C   UNL     1       6.944  -2.335  24.316  0.00  0.00    +0.110 A 
ATOM      9  C   UNL     1       7.470  -1.654  25.508  0.00  0.00    +0.238 A 
ATOM     10  O   UNL     1       7.253  -2.020  26.663  0.00  0.00    -0.283 OA
ATOM     11  C   UNL     1       8.317  -0.458  25.296  0.00  0.00    +0.208 A 
ENDROOT
BRANCH   1  13
ATOM     12  C   UNL     1      10.300   1.541  23.448  0.00  0.00    +0.015 A 
ATOM     13  C   UNL     1       8.941   1.455  23.823  0.00  0.00    +0.025 A 
ATOM     14  C   UNL     1       8.248   2.654  24.055  0.00  0.00    +0.060 A 
ATOM     15  C   UNL     1       8.917   3.874  23.948  0.00  0.00    +0.159 A 
ATOM     16  C   UNL     1      10.266   3.931  23.608  0.00  0.00    +0.158 A 
ATOM     17  C   UNL     1      10.962   2.767  23.333  0.00  0.00    +0.050 A 
BRANCH  15  18
ATOM     18  O   UNL     1       8.246   5.039  24.211  0.00  0.00    -0.503 OA
ATOM     19  H   UNL     1       8.886   5.581  24.712  0.00  0.00    +0.292 HD
ENDBRANCH  15  18
BRANCH  16  20
ATOM     20  O   UNL     1      10.875   5.154  23.583  0.00  0.00    -0.503 OA
ATOM     21  H   UNL     1      10.861   5.513  24.487  0.00  0.00    +0.292 HD
ENDBRANCH  16  20
ENDBRANCH   1  13
BRANCH   5  22
ATOM     22  O   UNL     1       5.698  -4.169  20.835  0.00  0.00    -0.507 OA
ATOM     23  H   UNL     1       4.832  -3.814  20.568  0.00  0.00    +0.292 HD
ENDBRANCH   5  22
BRANCH  11  24
ATOM     24  O   UNL     1       9.002   0.022  26.399  0.00  0.00    -0.501 OA
ATOM     25  H   UNL     1       9.281   0.927  26.145  0.00  0.00    +0.292 HD
ENDBRANCH  11  24
BRANCH   7  26
ATOM     26  O   UNL     1       6.137  -4.173  25.613  0.00  0.00    -0.460 OA
BRANCH  26  27
ATOM     27  C   UNL     1       6.383  -5.579  25.797  0.00  0.00    +0.339 C 
ATOM     28  O   UNL     1       5.187  -6.365  25.737  0.00  0.00    -0.331 OA
ATOM     29  C   UNL     1       4.284  -6.184  26.850  0.00  0.00    +0.179 C 
ATOM     30  C   UNL     1       4.954  -6.460  28.210  0.00  0.00    +0.177 C 
ATOM     31  C   UNL     1       6.224  -5.617  28.351  0.00  0.00    +0.180 C 
ATOM     32  C   UNL     1       7.131  -5.820  27.129  0.00  0.00    +0.214 C 
BRANCH  30  33
ATOM     33  O   UNL     1       5.287  -7.850  28.321  0.00  0.00    -0.386 OA
ATOM     34  H   UNL     1       5.439  -8.046  29.263  0.00  0.00    +0.210 HD
ENDBRANCH  30  33
BRANCH  31  35
ATOM     35  O   UNL     1       5.906  -4.240  28.574  0.00  0.00    -0.386 OA
ATOM     36  H   UNL     1       6.557  -3.664  28.128  0.00  0.00    +0.210 HD
ENDBRANCH  31  35
BRANCH  32  37
ATOM     37  O   UNL     1       8.302  -5.003  27.238  0.00  0.00    -0.383 OA
ATOM     38  H   UNL     1       8.520  -4.715  26.330  0.00  0.00    +0.210 HD
ENDBRANCH  32  37
BRANCH  29  39
ATOM     39  C   UNL     1       3.113  -7.145  26.611  0.00  0.00    +0.190 C 
BRANCH  39  40
ATOM     40  O   UNL     1       3.503  -8.132  25.652  0.00  0.00    -0.392 OA
ATOM     41  H   UNL     1       4.193  -8.660  26.098  0.00  0.00    +0.210 HD
ENDBRANCH  39  40
ENDBRANCH  29  39
ENDBRANCH  26  27
ENDBRANCH   7  26
TORSDOF 12
ENDMDL
MODEL 5
REMARK VINA RESULT:      -7.9      2.091      8.821
REMARK  Name = 
REMARK  12 active torsions:
REMARK  status: ('A' for Active; 'I' for Inactive)
REMARK    1  A    between atoms: C_3  and  O_36
REMARK    2  A    between atoms: C_4  and  O_35
REMARK    3  A    between atoms: C_6  and  C_7
REMARK    4  A    between atoms: C_8  and  O_34
REMARK    5  A    between atoms: C_15  and  O_33
REMARK    6  A    between atoms: C_17  and  O_18
REMARK    7  A    between atoms: O_18  and  C_19
REMARK    8  A    between atoms: C_21  and  O_32
REMARK    9  A    between atoms: C_22  and  O_31
REMARK   10  A    between atoms: C_24  and  O_30
REMARK   11  A    between atoms: C_26  and  C_28
REMARK   12  A    between atoms: C_28  and  O_29
REMARK                            x       y       z     vdW  Elec       q    Type
REMARK                         _______ _______ _______ _____ _____    ______ ____
ROOT
ATOM      1  C   UNL     1       5.810  -3.526  24.399  0.00  0.00    +0.181 A 
ATOM      2  O   UNL     1       7.067  -3.563  23.806  0.00  0.00    -0.451 OA
ATOM      3  C   UNL     1       7.680  -2.375  23.476  0.00  0.00    +0.147 A 
ATOM      4  C   UNL     1       8.820  -2.467  22.682  0.00  0.00    +0.092 A 
ATOM      5  C   UNL     1       9.452  -1.292  22.280  0.00  0.00    +0.124 A 
ATOM      6  C   UNL     1       8.983  -0.040  22.680  0.00  0.00    +0.092 A 
ATOM      7  C   UNL     1       7.886   0.066  23.538  0.00  0.00    +0.142 A 
ATOM      8  C   UNL     1       7.219  -1.122  23.904  0.00  0.00    +0.110 A 
ATOM      9  C   UNL     1       5.988  -1.118  24.707  0.00  0.00    +0.238 A 
ATOM     10  O   UNL     1       5.559  -0.132  25.307  0.00  0.00    -0.283 OA
ATOM     11  C   UNL     1       5.220  -2.381  24.790  0.00  0.00    +0.208 A 
ENDROOT
BRANCH   1  13
ATOM     12  C   UNL     1       4.327  -5.442  23.732  0.00  0.00    +0.015 A 
ATOM     13  C   UNL     1       5.227  -4.871  24.659  0.00  0.00    +0.025 A 
ATOM     14  C   UNL     1       5.448  -5.556  25.865  0.00  0.00    +0.060 A 
ATOM     15  C   UNL     1       4.757  -6.739  26.128  0.00  0.00    +0.159 A 
ATOM     16  C   UNL     1       3.850  -7.265  25.211  0.00  0.00    +0.158 A 
ATOM     17  C   UNL     1       3.645  -6.633  23.997  0.00  0.00    +0.050 A 
BRANCH  15  18
ATOM     18  O   UNL     1       4.948  -7.384  27.321  0.00  0.00    -0.503 OA
ATOM     19  H   UNL     1       5.191  -6.672  27.946  0.00  0.00    +0.292 HD
ENDBRANCH  15  18
BRANCH  16  20
ATOM     20  O   UNL     1       3.161  -8.393  25.558  0.00  0.00    -0.503 OA
ATOM     21  H   UNL     1       3.211  -9.015  24.812  0.00  0.00    +0.292 HD
ENDBRANCH  16  20
ENDBRANCH   1  13
BRANCH   5  22
ATOM     22  O   UNL     1      10.556  -1.322  21.483  0.00  0.00    -0.507 OA
ATOM     23  H   UNL     1      10.485  -0.630  20.804  0.00  0.00    +0.292 HD
ENDBRANCH   5  22
BRANCH  11  24
ATOM     24  O   UNL     1       3.950  -2.302  25.335  0.00  0.00    -0.501 OA
ATOM     25  H   UNL     1       3.717  -3.227  25.563  0.00  0.00    +0.292 HD
ENDBRANCH  11  24
BRANCH   7  26
ATOM     26  O   UNL     1       7.444   1.252  24.075  0.00  0.00    -0.460 OA
BRANCH  26  27
ATOM     27  C   UNL     1       7.168   2.357  23.196  0.00  0.00    +0.339 C 
ATOM     28  O   UNL     1       8.186   3.363  23.230  0.00  0.00    -0.331 OA
ATOM     29  C   UNL     1       8.258   4.115  24.462  0.00  0.00    +0.179 C 
ATOM     30  C   UNL     1       6.922   4.794  24.822  0.00  0.00    +0.177 C 
ATOM     31  C   UNL     1       5.795   3.758  24.840  0.00  0.00    +0.180 C 
ATOM     32  C   UNL     1       5.785   2.966  23.524  0.00  0.00    +0.214 C 
BRANCH  30  33
ATOM     33  O   UNL     1       6.618   5.817  23.867  0.00  0.00    -0.386 OA
ATOM     34  H   UNL     1       5.693   5.696  23.584  0.00  0.00    +0.210 HD
ENDBRANCH  30  33
BRANCH  31  35
ATOM     35  O   UNL     1       5.891   2.911  25.989  0.00  0.00    -0.386 OA
ATOM     36  H   UNL     1       5.507   3.353  26.771  0.00  0.00    +0.210 HD
ENDBRANCH  31  35
BRANCH  32  37
ATOM     37  O   UNL     1       4.756   1.970  23.552  0.00  0.00    -0.383 OA
ATOM     38  H   UNL     1       3.910   2.452  23.633  0.00  0.00    +0.210 HD
ENDBRANCH  32  37
BRANCH  29  39
ATOM     39  C   UNL     1       9.366   5.156  24.263  0.00  0.00    +0.190 C 
BRANCH  39  40
ATOM     40  O   UNL     1       9.324   5.637  22.917  0.00  0.00    -0.392 OA
ATOM     41  H   UNL     1      10.097   5.232  22.478  0.00  0.00    +0.210 HD
ENDBRANCH  39  40
ENDBRANCH  29  39
ENDBRANCH  26  27
ENDBRANCH   7  26
TORSDOF 12
ENDMDL
MODEL 6
REMARK VINA RESULT:      -7.8      2.531      9.127
REMARK  Name = 
REMARK  12 active torsions:
REMARK  status: ('A' for Active; 'I' for Inactive)
REMARK    1  A    between atoms: C_3  and  O_36
REMARK    2  A    between atoms: C_4  and  O_35
REMARK    3  A    between atoms: C_6  and  C_7
REMARK    4  A    between atoms: C_8  and  O_34
REMARK    5  A    between atoms: C_15  and  O_33
REMARK    6  A    between atoms: C_17  and  O_18
REMARK    7  A    between atoms: O_18  and  C_19
REMARK    8  A    between atoms: C_21  and  O_32
REMARK    9  A    between atoms: C_22  and  O_31
REMARK   10  A    between atoms: C_24  and  O_30
REMARK   11  A    between atoms: C_26  and  C_28
REMARK   12  A    between atoms: C_28  and  O_29
REMARK                            x       y       z     vdW  Elec       q    Type
REMARK                         _______ _______ _______ _____ _____    ______ ____
ROOT
ATOM      1  C   UNL     1       4.242  -4.792  23.869  0.00  0.00    +0.181 A 
ATOM      2  O   UNL     1       3.983  -3.992  24.976  0.00  0.00    -0.451 OA
ATOM      3  C   UNL     1       4.801  -2.912  25.221  0.00  0.00    +0.147 A 
ATOM      4  C   UNL     1       4.646  -2.286  26.455  0.00  0.00    +0.092 A 
ATOM      5  C   UNL     1       5.482  -1.217  26.772  0.00  0.00    +0.124 A 
ATOM      6  C   UNL     1       6.441  -0.751  25.872  0.00  0.00    +0.092 A 
ATOM      7  C   UNL     1       6.557  -1.320  24.602  0.00  0.00    +0.142 A 
ATOM      8  C   UNL     1       5.744  -2.432  24.301  0.00  0.00    +0.110 A 
ATOM      9  C   UNL     1       5.865  -3.177  23.040  0.00  0.00    +0.238 A 
ATOM     10  O   UNL     1       6.505  -2.785  22.065  0.00  0.00    -0.283 OA
ATOM     11  C   UNL     1       5.174  -4.484  22.948  0.00  0.00    +0.208 A 
ENDROOT
BRANCH   1  13
ATOM     12  C   UNL     1       2.176  -5.867  22.924  0.00  0.00    +0.015 A 
ATOM     13  C   UNL     1       3.325  -5.958  23.741  0.00  0.00    +0.025 A 
ATOM     14  C   UNL     1       3.495  -7.123  24.506  0.00  0.00    +0.060 A 
ATOM     15  C   UNL     1       2.524  -8.125  24.469  0.00  0.00    +0.159 A 
ATOM     16  C   UNL     1       1.384  -7.997  23.680  0.00  0.00    +0.158 A 
ATOM     17  C   UNL     1       1.212  -6.878  22.884  0.00  0.00    +0.050 A 
BRANCH  15  18
ATOM     18  O   UNL     1       2.677  -9.244  25.244  0.00  0.00    -0.503 OA
ATOM     19  H   UNL     1       2.871  -9.958  24.606  0.00  0.00    +0.292 HD
ENDBRANCH  15  18
BRANCH  16  20
ATOM     20  O   UNL     1       0.443  -8.987  23.739  0.00  0.00    -0.503 OA
ATOM     21  H   UNL     1       0.857  -9.768  24.147  0.00  0.00    +0.292 HD
ENDBRANCH  16  20
ENDBRANCH   1  13
BRANCH   5  22
ATOM     22  O   UNL     1       5.391  -0.584  27.974  0.00  0.00    -0.507 OA
ATOM     23  H   UNL     1       4.517  -0.164  28.055  0.00  0.00    +0.292 HD
ENDBRANCH   5  22
BRANCH  11  24
ATOM     24  O   UNL     1       5.494  -5.282  21.863  0.00  0.00    -0.501 OA
ATOM     25  H   UNL     1       5.318  -6.197  22.164  0.00  0.00    +0.292 HD
ENDBRANCH  11  24
BRANCH   7  26
ATOM     26  O   UNL     1       7.387  -0.836  23.618  0.00  0.00    -0.460 OA
BRANCH  26  27
ATOM     27  C   UNL     1       8.334   0.196  23.947  0.00  0.00    +0.339 C 
ATOM     28  O   UNL     1       7.927   1.491  23.491  0.00  0.00    -0.331 OA
ATOM     29  C   UNL     1       7.950   1.665  22.057  0.00  0.00    +0.179 C 
ATOM     30  C   UNL     1       9.332   1.370  21.444  0.00  0.00    +0.177 C 
ATOM     31  C   UNL     1       9.808  -0.022  21.867  0.00  0.00    +0.180 C 
ATOM     32  C   UNL     1       9.731  -0.166  23.394  0.00  0.00    +0.214 C 
BRANCH  30  33
ATOM     33  O   UNL     1      10.282   2.352  21.879  0.00  0.00    -0.386 OA
ATOM     34  H   UNL     1       9.859   3.227  21.810  0.00  0.00    +0.210 HD
ENDBRANCH  30  33
BRANCH  31  35
ATOM     35  O   UNL     1       9.077  -1.046  21.183  0.00  0.00    -0.386 OA
ATOM     36  H   UNL     1       8.306  -0.663  20.722  0.00  0.00    +0.210 HD
ENDBRANCH  31  35
BRANCH  32  37
ATOM     37  O   UNL     1      10.138  -1.481  23.790  0.00  0.00    -0.383 OA
ATOM     38  H   UNL     1       9.861  -1.584  24.722  0.00  0.00    +0.210 HD
ENDBRANCH  32  37
BRANCH  29  39
ATOM     39  C   UNL     1       7.533   3.118  21.797  0.00  0.00    +0.190 C 
BRANCH  39  40
ATOM     40  O   UNL     1       8.273   3.982  22.664  0.00  0.00    -0.392 OA
ATOM     41  H   UNL     1       7.725   4.065  23.468  0.00  0.00    +0.210 HD
ENDBRANCH  39  40
ENDBRANCH  29  39
ENDBRANCH  26  27
ENDBRANCH   7  26
TORSDOF 12
ENDMDL
MODEL 7
REMARK VINA RESULT:      -7.7      1.958      8.718
REMARK  Name = 
REMARK  12 active torsions:
REMARK  status: ('A' for Active; 'I' for Inactive)
REMARK    1  A    between atoms: C_3  and  O_36
REMARK    2  A    between atoms: C_4  and  O_35
REMARK    3  A    between atoms: C_6  and  C_7
REMARK    4  A    between atoms: C_8  and  O_34
REMARK    5  A    between atoms: C_15  and  O_33
REMARK    6  A    between atoms: C_17  and  O_18
REMARK    7  A    between atoms: O_18  and  C_19
REMARK    8  A    between atoms: C_21  and  O_32
REMARK    9  A    between atoms: C_22  and  O_31
REMARK   10  A    between atoms: C_24  and  O_30
REMARK   11  A    between atoms: C_26  and  C_28
REMARK   12  A    between atoms: C_28  and  O_29
REMARK                            x       y       z     vdW  Elec       q    Type
REMARK                         _______ _______ _______ _____ _____    ______ ____
ROOT
ATOM      1  C   UNL     1       4.728  -5.357  24.821  0.00  0.00    +0.181 A 
ATOM      2  O   UNL     1       5.878  -5.658  25.544  0.00  0.00    -0.451 OA
ATOM      3  C   UNL     1       7.054  -5.021  25.215  0.00  0.00    +0.147 A 
ATOM      4  C   UNL     1       8.213  -5.520  25.805  0.00  0.00    +0.092 A 
ATOM      5  C   UNL     1       9.435  -4.941  25.470  0.00  0.00    +0.124 A 
ATOM      6  C   UNL     1       9.513  -3.864  24.586  0.00  0.00    +0.092 A 
ATOM      7  C   UNL     1       8.353  -3.305  24.046  0.00  0.00    +0.142 A 
ATOM      8  C   UNL     1       7.121  -3.922  24.347  0.00  0.00    +0.110 A 
ATOM      9  C   UNL     1       5.855  -3.487  23.743  0.00  0.00    +0.238 A 
ATOM     10  O   UNL     1       5.714  -2.439  23.112  0.00  0.00    -0.283 OA
ATOM     11  C   UNL     1       4.679  -4.375  23.903  0.00  0.00    +0.208 A 
ENDROOT
BRANCH   1  13
ATOM     12  C   UNL     1       2.559  -5.570  26.073  0.00  0.00    +0.015 A 
ATOM     13  C   UNL     1       3.536  -6.148  25.232  0.00  0.00    +0.025 A 
ATOM     14  C   UNL     1       3.400  -7.508  24.908  0.00  0.00    +0.060 A 
ATOM     15  C   UNL     1       2.345  -8.247  25.446  0.00  0.00    +0.159 A 
ATOM     16  C   UNL     1       1.414  -7.661  26.299  0.00  0.00    +0.158 A 
ATOM     17  C   UNL     1       1.500  -6.313  26.600  0.00  0.00    +0.050 A 
BRANCH  15  18
ATOM     18  O   UNL     1       2.238  -9.582  25.157  0.00  0.00    -0.503 OA
ATOM     19  H   UNL     1       1.283  -9.772  25.239  0.00  0.00    +0.292 HD
ENDBRANCH  15  18
BRANCH  16  20
ATOM     20  O   UNL     1       0.443  -8.456  26.840  0.00  0.00    -0.503 OA
ATOM     21  H   UNL     1      -0.390  -7.953  26.840  0.00  0.00    +0.292 HD
ENDBRANCH  16  20
ENDBRANCH   1  13
BRANCH   5  22
ATOM     22  O   UNL     1      10.602  -5.404  25.997  0.00  0.00    -0.507 OA
ATOM     23  H   UNL     1      10.912  -6.168  25.480  0.00  0.00    +0.292 HD
ENDBRANCH   5  22
BRANCH  11  24
ATOM     24  O   UNL     1       3.569  -4.082  23.129  0.00  0.00    -0.501 OA
ATOM     25  H   UNL     1       3.102  -3.374  23.620  0.00  0.00    +0.292 HD
ENDBRANCH  11  24
BRANCH   7  26
ATOM     26  O   UNL     1       8.338  -2.168  23.271  0.00  0.00    -0.460 OA
BRANCH  26  27
ATOM     27  C   UNL     1       8.995  -0.984  23.757  0.00  0.00    +0.339 C 
ATOM     28  O   UNL     1       8.101   0.123  23.917  0.00  0.00    -0.331 OA
ATOM     29  C   UNL     1       7.596   0.680  22.683  0.00  0.00    +0.179 C 
ATOM     30  C   UNL     1       8.720   1.125  21.728  0.00  0.00    +0.177 C 
ATOM     31  C   UNL     1       9.693  -0.031  21.486  0.00  0.00    +0.180 C 
ATOM     32  C   UNL     1      10.172  -0.608  22.827  0.00  0.00    +0.214 C 
BRANCH  30  33
ATOM     33  O   UNL     1       9.428   2.238  22.288  0.00  0.00    -0.386 OA
ATOM     34  H   UNL     1       8.892   3.038  22.142  0.00  0.00    +0.210 HD
ENDBRANCH  30  33
BRANCH  31  35
ATOM     35  O   UNL     1       9.110  -1.027  20.639  0.00  0.00    -0.386 OA
ATOM     36  H   UNL     1       8.257  -1.329  21.006  0.00  0.00    +0.210 HD
ENDBRANCH  31  35
BRANCH  32  37
ATOM     37  O   UNL     1      11.052  -1.716  22.605  0.00  0.00    -0.383 OA
ATOM     38  H   UNL     1      10.482  -2.475  22.371  0.00  0.00    +0.210 HD
ENDBRANCH  32  37
BRANCH  29  39
ATOM     39  C   UNL     1       6.712   1.868  23.081  0.00  0.00    +0.190 C 
BRANCH  39  40
ATOM     40  O   UNL     1       6.596   2.761  21.970  0.00  0.00    -0.392 OA
ATOM     41  H   UNL     1       6.424   3.638  22.366  0.00  0.00    +0.210 HD
ENDBRANCH  39  40
ENDBRANCH  29  39
ENDBRANCH  26  27
ENDBRANCH   7  26
TORSDOF 12
ENDMDL
MODEL 8
REMARK VINA RESULT:      -7.6      2.201      3.335
REMARK  Name = 
REMARK  12 active torsions:
REMARK  status: ('A' for Active; 'I' for Inactive)
REMARK    1  A    between atoms: C_3  and  O_36
REMARK    2  A    between atoms: C_4  and  O_35
REMARK    3  A    between atoms: C_6  and  C_7
REMARK    4  A    between atoms: C_8  and  O_34
REMARK    5  A    between atoms: C_15  and  O_33
REMARK    6  A    between atoms: C_17  and  O_18
REMARK    7  A    between atoms: O_18  and  C_19
REMARK    8  A    between atoms: C_21  and  O_32
REMARK    9  A    between atoms: C_22  and  O_31
REMARK   10  A    between atoms: C_24  and  O_30
REMARK   11  A    between atoms: C_26  and  C_28
REMARK   12  A    between atoms: C_28  and  O_29
REMARK                            x       y       z     vdW  Elec       q    Type
REMARK                         _______ _______ _______ _____ _____    ______ ____
ROOT
ATOM      1  C   UNL     1       7.383  -1.194  24.756  0.00  0.00    +0.181 A 
ATOM      2  O   UNL     1       7.983  -2.375  25.181  0.00  0.00    -0.451 OA
ATOM      3  C   UNL     1       7.234  -3.276  25.905  0.00  0.00    +0.147 A 
ATOM      4  C   UNL     1       7.933  -4.322  26.502  0.00  0.00    +0.092 A 
ATOM      5  C   UNL     1       7.230  -5.235  27.285  0.00  0.00    +0.124 A 
ATOM      6  C   UNL     1       5.849  -5.136  27.455  0.00  0.00    +0.092 A 
ATOM      7  C   UNL     1       5.123  -4.137  26.802  0.00  0.00    +0.142 A 
ATOM      8  C   UNL     1       5.843  -3.185  26.050  0.00  0.00    +0.110 A 
ATOM      9  C   UNL     1       5.194  -2.028  25.418  0.00  0.00    +0.238 A 
ATOM     10  O   UNL     1       3.975  -1.901  25.296  0.00  0.00    -0.283 OA
ATOM     11  C   UNL     1       6.068  -0.949  24.902  0.00  0.00    +0.208 A 
ENDROOT
BRANCH   1  13
ATOM     12  C   UNL     1       9.326   0.400  24.736  0.00  0.00    +0.015 A 
ATOM     13  C   UNL     1       8.306  -0.278  24.031  0.00  0.00    +0.025 A 
ATOM     14  C   UNL     1       8.126   0.037  22.674  0.00  0.00    +0.060 A 
ATOM     15  C   UNL     1       8.918   1.019  22.079  0.00  0.00    +0.159 A 
ATOM     16  C   UNL     1       9.896   1.696  22.804  0.00  0.00    +0.158 A 
ATOM     17  C   UNL     1      10.123   1.376  24.131  0.00  0.00    +0.050 A 
BRANCH  15  18
ATOM     18  O   UNL     1       8.714   1.349  20.765  0.00  0.00    -0.503 OA
ATOM     19  H   UNL     1       8.057   2.071  20.795  0.00  0.00    +0.292 HD
ENDBRANCH  15  18
BRANCH  16  20
ATOM     20  O   UNL     1      10.593   2.690  22.176  0.00  0.00    -0.503 OA
ATOM     21  H   UNL     1      11.521   2.629  22.461  0.00  0.00    +0.292 HD
ENDBRANCH  16  20
ENDBRANCH   1  13
BRANCH   5  22
ATOM     22  O   UNL     1       7.866  -6.263  27.911  0.00  0.00    -0.507 OA
ATOM     23  H   UNL     1       8.115  -5.991  28.811  0.00  0.00    +0.292 HD
ENDBRANCH   5  22
BRANCH  11  24
ATOM     24  O   UNL     1       5.448   0.233  24.538  0.00  0.00    -0.501 OA
ATOM     25  H   UNL     1       4.504  -0.005  24.420  0.00  0.00    +0.292 HD
ENDBRANCH  11  24
BRANCH   7  26
ATOM     26  O   UNL     1       3.751  -4.050  26.818  0.00  0.00    -0.460 OA
BRANCH  26  27
ATOM     27  C   UNL     1       2.973  -5.250  26.655  0.00  0.00    +0.339 C 
ATOM     28  O   UNL     1       3.287  -5.958  25.451  0.00  0.00    -0.331 OA
ATOM     29  C   UNL     1       2.874  -5.299  24.234  0.00  0.00    +0.179 C 
ATOM     30  C   UNL     1       1.365  -4.987  24.209  0.00  0.00    +0.177 C 
ATOM     31  C   UNL     1       0.972  -4.195  25.459  0.00  0.00    +0.180 C 
ATOM     32  C   UNL     1       1.464  -4.920  26.720  0.00  0.00    +0.214 C 
BRANCH  30  33
ATOM     33  O   UNL     1       0.612  -6.205  24.158  0.00  0.00    -0.386 OA
ATOM     34  H   UNL     1       1.240  -6.939  24.029  0.00  0.00    +0.210 HD
ENDBRANCH  30  33
BRANCH  31  35
ATOM     35  O   UNL     1       1.445  -2.846  25.384  0.00  0.00    -0.386 OA
ATOM     36  H   UNL     1       0.750  -2.262  25.022  0.00  0.00    +0.210 HD
ENDBRANCH  31  35
BRANCH  32  37
ATOM     37  O   UNL     1       1.133  -4.162  27.889  0.00  0.00    -0.383 OA
ATOM     38  H   UNL     1       1.080  -4.804  28.625  0.00  0.00    +0.210 HD
ENDBRANCH  32  37
BRANCH  29  39
ATOM     39  C   UNL     1       3.257  -6.242  23.086  0.00  0.00    +0.190 C 
BRANCH  39  40
ATOM     40  O   UNL     1       3.277  -7.588  23.570  0.00  0.00    -0.392 OA
ATOM     41  H   UNL     1       2.394  -7.729  23.963  0.00  0.00    +0.210 HD
ENDBRANCH  39  40
ENDBRANCH  29  39
ENDBRANCH  26  27
ENDBRANCH   7  26
TORSDOF 12
ENDMDL
MODEL 9
REMARK VINA RESULT:      -7.6      1.689      2.733
REMARK  Name = 
REMARK  12 active torsions:
REMARK  status: ('A' for Active; 'I' for Inactive)
REMARK    1  A    between atoms: C_3  and  O_36
REMARK    2  A    between atoms: C_4  and  O_35
REMARK    3  A    between atoms: C_6  and  C_7
REMARK    4  A    between atoms: C_8  and  O_34
REMARK    5  A    between atoms: C_15  and  O_33
REMARK    6  A    between atoms: C_17  and  O_18
REMARK    7  A    between atoms: O_18  and  C_19
REMARK    8  A    between atoms: C_21  and  O_32
REMARK    9  A    between atoms: C_22  and  O_31
REMARK   10  A    between atoms: C_24  and  O_30
REMARK   11  A    between atoms: C_26  and  C_28
REMARK   12  A    between atoms: C_28  and  O_29
REMARK                            x       y       z     vdW  Elec       q    Type
REMARK                         _______ _______ _______ _____ _____    ______ ____
ROOT
ATOM      1  C   UNL     1       7.497  -0.182  24.366  0.00  0.00    +0.181 A 
ATOM      2  O   UNL     1       8.504  -1.133  24.245  0.00  0.00    -0.451 OA
ATOM      3  C   UNL     1       8.270  -2.410  24.704  0.00  0.00    +0.147 A 
ATOM      4  C   UNL     1       9.375  -3.255  24.773  0.00  0.00    +0.092 A 
ATOM      5  C   UNL     1       9.201  -4.543  25.275  0.00  0.00    +0.124 A 
ATOM      6  C   UNL     1       7.947  -5.004  25.678  0.00  0.00    +0.092 A 
ATOM      7  C   UNL     1       6.817  -4.195  25.544  0.00  0.00    +0.142 A 
ATOM      8  C   UNL     1       7.002  -2.876  25.081  0.00  0.00    +0.110 A 
ATOM      9  C   UNL     1       5.902  -1.905  25.011  0.00  0.00    +0.238 A 
ATOM     10  O   UNL     1       4.712  -2.199  25.130  0.00  0.00    -0.283 OA
ATOM     11  C   UNL     1       6.255  -0.483  24.789  0.00  0.00    +0.208 A 
ENDROOT
BRANCH   1  13
ATOM     12  C   UNL     1       8.948   1.864  24.509  0.00  0.00    +0.015 A 
ATOM     13  C   UNL     1       7.887   1.172  23.885  0.00  0.00    +0.025 A 
ATOM     14  C   UNL     1       7.152   1.850  22.899  0.00  0.00    +0.060 A 
ATOM     15  C   UNL     1       7.460   3.176  22.592  0.00  0.00    +0.159 A 
ATOM     16  C   UNL     1       8.492   3.846  23.245  0.00  0.00    +0.158 A 
ATOM     17  C   UNL     1       9.258   3.190  24.191  0.00  0.00    +0.050 A 
BRANCH  15  18
ATOM     18  O   UNL     1       6.717   3.844  21.655  0.00  0.00    -0.503 OA
ATOM     19  H   UNL     1       6.148   4.443  22.178  0.00  0.00    +0.292 HD
ENDBRANCH  15  18
BRANCH  16  20
ATOM     20  O   UNL     1       8.699   5.163  22.942  0.00  0.00    -0.503 OA
ATOM     21  H   UNL     1       8.153   5.697  23.544  0.00  0.00    +0.292 HD
ENDBRANCH  16  20
ENDBRANCH   1  13
BRANCH   5  22
ATOM     22  O   UNL     1      10.251  -5.403  25.388  0.00  0.00    -0.507 OA
ATOM     23  H   UNL     1      10.627  -5.341  26.283  0.00  0.00    +0.292 HD
ENDBRANCH   5  22
BRANCH  11  24
ATOM     24  O   UNL     1       5.244   0.445  24.971  0.00  0.00    -0.501 OA
ATOM     25  H   UNL     1       5.709   1.290  25.144  0.00  0.00    +0.292 HD
ENDBRANCH  11  24
BRANCH   7  26
ATOM     26  O   UNL     1       5.534  -4.620  25.799  0.00  0.00    -0.460 OA
BRANCH  26  27
ATOM     27  C   UNL     1       5.145  -5.946  25.395  0.00  0.00    +0.339 C 
ATOM     28  O   UNL     1       5.527  -6.252  24.050  0.00  0.00    -0.331 OA
ATOM     29  C   UNL     1       4.803  -5.526  23.032  0.00  0.00    +0.179 C 
ATOM     30  C   UNL     1       3.278  -5.714  23.137  0.00  0.00    +0.177 C 
ATOM     31  C   UNL     1       2.801  -5.364  24.548  0.00  0.00    +0.180 C 
ATOM     32  C   UNL     1       3.623  -6.137  25.591  0.00  0.00    +0.214 C 
BRANCH  30  33
ATOM     33  O   UNL     1       2.929  -7.072  22.837  0.00  0.00    -0.386 OA
ATOM     34  H   UNL     1       2.021  -7.076  22.485  0.00  0.00    +0.210 HD
ENDBRANCH  30  33
BRANCH  31  35
ATOM     35  O   UNL     1       2.830  -3.950  24.766  0.00  0.00    -0.386 OA
ATOM     36  H   UNL     1       2.637  -3.746  25.702  0.00  0.00    +0.210 HD
ENDBRANCH  31  35
BRANCH  32  37
ATOM     37  O   UNL     1       3.206  -5.782  26.914  0.00  0.00    -0.383 OA
ATOM     38  H   UNL     1       3.967  -5.329  27.328  0.00  0.00    +0.210 HD
ENDBRANCH  32  37
BRANCH  29  39
ATOM     39  C   UNL     1       5.328  -6.040  21.686  0.00  0.00    +0.190 C 
BRANCH  39  40
ATOM     40  O   UNL     1       6.503  -6.824  21.908  0.00  0.00    -0.392 OA
ATOM     41  H   UNL     1       7.159  -6.485  21.268  0.00  0.00    +0.210 HD
ENDBRANCH  39  40
ENDBRANCH  29  39
ENDBRANCH  26  27
ENDBRANCH   7  26
TORSDOF 12
ENDMDL
