MODEL 1
REMARK VINA RESULT:      -8.2      0.000      0.000
REMARK  Name = 
REMARK  23 active torsions:
REMARK  status: ('A' for Active; 'I' for Inactive)
REMARK    1  A    between atoms: C_1  and  C_2
REMARK    2  A    between atoms: C_3  and  O_62
REMARK    3  A    between atoms: C_5  and  O_47
REMARK    4  A    between atoms: C_7  and  O_46
REMARK    5  A    between atoms: C_8  and  O_11
REMARK    6  A    between atoms: O_11  and  C_12
REMARK    7  A    between atoms: C_12  and  C_13
REMARK    8  A    between atoms: C_14  and  O_45
REMARK    9  A    between atoms: C_16  and  O_44
REMARK   10  A    between atoms: C_17  and  O_43
REMARK   11  A    between atoms: C_18  and  O_21
REMARK   12  A    between atoms: O_21  and  C_22
REMARK   13  A    between atoms: C_23  and  C_35
REMARK   14  A    between atoms: C_27  and  O_34
REMARK   15  A    between atoms: C_29  and  O_33
REMARK   16  A    between atoms: C_37  and  O_42
REMARK   17  A    between atoms: C_38  and  O_41
REMARK   18  A    between atoms: O_47  and  C_48
REMARK   19  A    between atoms: C_50  and  O_61
REMARK   20  A    between atoms: C_51  and  O_60
REMARK   21  A    between atoms: C_53  and  O_59
REMARK   22  A    between atoms: C_55  and  C_57
REMARK   23  A    between atoms: C_57  and  O_58
REMARK                            x       y       z     vdW  Elec       q    Type
REMARK                         _______ _______ _______ _____ _____    ______ ____
ROOT
ATOM      1  C   UNL     1      10.194  -0.574  23.956  0.00  0.00    +0.179 C 
ATOM      2  O   UNL     1       9.802   0.720  24.467  0.00  0.00    -0.331 OA
ATOM      3  C   UNL     1       8.694   1.386  23.830  0.00  0.00    +0.340 C 
ATOM      4  C   UNL     1       8.828   1.435  22.295  0.00  0.00    +0.214 C 
ATOM      5  C   UNL     1       9.009   0.008  21.781  0.00  0.00    +0.180 C 
ATOM      6  C   UNL     1      10.289  -0.580  22.403  0.00  0.00    +0.177 C 
ENDROOT
BRANCH   4   7
ATOM      7  O   UNL     1       9.958   2.217  21.849  0.00  0.00    -0.383 OA
ATOM      8  H   UNL     1      10.341   1.767  21.072  0.00  0.00    +0.210 HD
ENDBRANCH   4   7
BRANCH   6   9
ATOM      9  O   UNL     1      10.521  -1.893  21.896  0.00  0.00    -0.386 OA
ATOM     10  H   UNL     1      11.431  -2.148  22.131  0.00  0.00    +0.210 HD
ENDBRANCH   6   9
BRANCH   5  11
ATOM     11  O   UNL     1       9.078   0.026  20.351  0.00  0.00    -0.386 OA
ATOM     12  H   UNL     1       8.193  -0.231  20.029  0.00  0.00    +0.210 HD
ENDBRANCH   5  11
BRANCH   3  13
ATOM     13  O   UNL     1       8.623   2.746  24.324  0.00  0.00    -0.453 OA
BRANCH  13  14
ATOM     14  C   UNL     1       7.674   3.620  23.854  0.00  0.00    +0.214 A 
ATOM     15  C   UNL     1       6.247   3.285  23.722  0.00  0.00    +0.238 A 
ATOM     16  O   UNL     1       5.748   2.274  24.192  0.00  0.00    -0.283 OA
ATOM     17  C   UNL     1       5.381   4.285  23.093  0.00  0.00    +0.109 A 
ATOM     18  C   UNL     1       5.733   5.622  23.076  0.00  0.00    +0.147 A 
ATOM     19  C   UNL     1       4.795   6.626  22.815  0.00  0.00    +0.092 A 
ATOM     20  C   UNL     1       3.501   6.237  22.506  0.00  0.00    +0.124 A 
ATOM     21  C   UNL     1       3.204   4.897  22.292  0.00  0.00    +0.091 A 
ATOM     22  O   UNL     1       7.012   5.959  23.346  0.00  0.00    -0.451 OA
ATOM     23  C   UNL     1       4.148   3.924  22.634  0.00  0.00    +0.135 A 
ATOM     24  C   UNL     1       7.895   4.946  23.664  0.00  0.00    +0.181 A 
BRANCH  24  25
ATOM     25  C   UNL     1       9.106   5.581  24.105  0.00  0.00    +0.025 A 
ATOM     26  C   UNL     1      10.184   5.433  23.232  0.00  0.00    +0.015 A 
ATOM     27  C   UNL     1      11.446   5.810  23.653  0.00  0.00    +0.050 A 
ATOM     28  C   UNL     1      11.567   6.375  24.922  0.00  0.00    +0.158 A 
ATOM     29  C   UNL     1      10.479   6.506  25.794  0.00  0.00    +0.159 A 
ATOM     30  C   UNL     1       9.234   6.052  25.409  0.00  0.00    +0.060 A 
BRANCH  29  31
ATOM     31  O   UNL     1      10.634   7.108  27.007  0.00  0.00    -0.503 OA
ATOM     32  H   UNL     1      11.371   7.742  26.959  0.00  0.00    +0.292 HD
ENDBRANCH  29  31
BRANCH  28  33
ATOM     33  O   UNL     1      12.788   6.884  25.273  0.00  0.00    -0.503 OA
ATOM     34  H   UNL     1      13.138   6.229  25.902  0.00  0.00    +0.292 HD
ENDBRANCH  28  33
ENDBRANCH  24  25
BRANCH  23  35
ATOM     35  O   UNL     1       3.794   2.603  22.634  0.00  0.00    -0.506 OA
ATOM     36  H   UNL     1       4.007   2.225  21.746  0.00  0.00    +0.292 HD
ENDBRANCH  23  35
BRANCH  20  37
ATOM     37  O   UNL     1       2.456   7.108  22.446  0.00  0.00    -0.507 OA
ATOM     38  H   UNL     1       2.587   7.821  23.093  0.00  0.00    +0.292 HD
ENDBRANCH  20  37
ENDBRANCH  13  14
ENDBRANCH   3  13
BRANCH   1  39
ATOM     39  C   UNL     1       9.392  -1.804  24.493  0.00  0.00    +0.197 C 
BRANCH  39  40
ATOM     40  O   UNL     1       8.101  -2.019  23.920  0.00  0.00    -0.346 OA
BRANCH  40  44
ATOM     41  C   UNL     1       7.679  -5.978  22.265  0.00  0.00    +0.041 C 
ATOM     42  C   UNL     1       6.615  -4.881  22.203  0.00  0.00    +0.149 C 
ATOM     43  O   UNL     1       7.192  -3.595  22.509  0.00  0.00    -0.343 OA
ATOM     44  C   UNL     1       7.491  -3.312  23.894  0.00  0.00    +0.282 C 
ATOM     45  C   UNL     1       6.181  -3.469  24.699  0.00  0.00    +0.202 C 
ATOM     46  C   UNL     1       5.710  -4.929  24.531  0.00  0.00    +0.186 C 
ATOM     47  C   UNL     1       5.394  -5.232  23.065  0.00  0.00    +0.174 C 
BRANCH  47  48
ATOM     48  O   UNL     1       4.235  -4.517  22.618  0.00  0.00    -0.387 OA
ATOM     49  H   UNL     1       4.167  -3.702  23.160  0.00  0.00    +0.210 HD
ENDBRANCH  47  48
BRANCH  45  50
ATOM     50  O   UNL     1       5.162  -2.559  24.236  0.00  0.00    -0.384 OA
ATOM     51  H   UNL     1       5.484  -1.654  24.420  0.00  0.00    +0.210 HD
ENDBRANCH  45  50
BRANCH  46  52
ATOM     52  O   UNL     1       4.624  -5.170  25.425  0.00  0.00    -0.340 OA
BRANCH  52  53
ATOM     53  C   UNL     1       4.770  -6.237  26.378  0.00  0.00    +0.282 C 
ATOM     54  O   UNL     1       4.142  -7.412  25.800  0.00  0.00    -0.341 OA
ATOM     55  C   UNL     1       2.757  -7.144  25.529  0.00  0.00    +0.178 C 
ATOM     56  C   UNL     1       2.060  -6.883  26.877  0.00  0.00    +0.177 C 
ATOM     57  C   UNL     1       2.654  -5.738  27.685  0.00  0.00    +0.179 C 
ATOM     58  C   UNL     1       4.161  -5.920  27.784  0.00  0.00    +0.201 C 
BRANCH  58  59
ATOM     59  O   UNL     1       4.719  -4.773  28.447  0.00  0.00    -0.384 OA
ATOM     60  H   UNL     1       4.159  -4.616  29.235  0.00  0.00    +0.210 HD
ENDBRANCH  58  59
BRANCH  57  61
ATOM     61  O   UNL     1       2.320  -4.427  27.214  0.00  0.00    -0.386 OA
ATOM     62  H   UNL     1       1.497  -4.468  26.683  0.00  0.00    +0.210 HD
ENDBRANCH  57  61
BRANCH  56  63
ATOM     63  O   UNL     1       2.033  -8.054  27.693  0.00  0.00    -0.386 OA
ATOM     64  H   UNL     1       1.959  -8.813  27.084  0.00  0.00    +0.210 HD
ENDBRANCH  56  63
BRANCH  55  65
ATOM     65  C   UNL     1       2.015  -8.221  24.691  0.00  0.00    +0.190 C 
BRANCH  65  66
ATOM     66  O   UNL     1       2.315  -9.559  25.087  0.00  0.00    -0.392 OA
ATOM     67  H   UNL     1       2.015  -9.669  26.005  0.00  0.00    +0.210 HD
ENDBRANCH  65  66
ENDBRANCH  55  65
ENDBRANCH  52  53
ENDBRANCH  46  52
ENDBRANCH  40  44
ENDBRANCH  39  40
ENDBRANCH   1  39
TORSDOF 22
ENDMDL
MODEL 2
REMARK VINA RESULT:      -8.1      1.634      3.068
REMARK  Name = 
REMARK  23 active torsions:
REMARK  status: ('A' for Active; 'I' for Inactive)
REMARK    1  A    between atoms: C_1  and  C_2
REMARK    2  A    between atoms: C_3  and  O_62
REMARK    3  A    between atoms: C_5  and  O_47
REMARK    4  A    between atoms: C_7  and  O_46
REMARK    5  A    between atoms: C_8  and  O_11
REMARK    6  A    between atoms: O_11  and  C_12
REMARK    7  A    between atoms: C_12  and  C_13
REMARK    8  A    between atoms: C_14  and  O_45
REMARK    9  A    between atoms: C_16  and  O_44
REMARK   10  A    between atoms: C_17  and  O_43
REMARK   11  A    between atoms: C_18  and  O_21
REMARK   12  A    between atoms: O_21  and  C_22
REMARK   13  A    between atoms: C_23  and  C_35
REMARK   14  A    between atoms: C_27  and  O_34
REMARK   15  A    between atoms: C_29  and  O_33
REMARK   16  A    between atoms: C_37  and  O_42
REMARK   17  A    between atoms: C_38  and  O_41
REMARK   18  A    between atoms: O_47  and  C_48
REMARK   19  A    between atoms: C_50  and  O_61
REMARK   20  A    between atoms: C_51  and  O_60
REMARK   21  A    between atoms: C_53  and  O_59
REMARK   22  A    between atoms: C_55  and  C_57
REMARK   23  A    between atoms: C_57  and  O_58
REMARK                            x       y       z     vdW  Elec       q    Type
REMARK                         _______ _______ _______ _____ _____    ______ ____
ROOT
ATOM      1  C   UNL     1       8.808  -1.440  25.438  0.00  0.00    +0.179 C 
ATOM      2  O   UNL     1       8.636  -0.015  25.601  0.00  0.00    -0.331 OA
ATOM      3  C   UNL     1       8.286   0.757  24.436  0.00  0.00    +0.340 C 
ATOM      4  C   UNL     1       9.196   0.462  23.226  0.00  0.00    +0.214 C 
ATOM      5  C   UNL     1       9.158  -1.040  22.951  0.00  0.00    +0.180 C 
ATOM      6  C   UNL     1       9.679  -1.782  24.195  0.00  0.00    +0.177 C 
ENDROOT
BRANCH   4   7
ATOM      7  O   UNL     1      10.573   0.841  23.447  0.00  0.00    -0.383 OA
ATOM      8  H   UNL     1      11.128   0.062  23.255  0.00  0.00    +0.210 HD
ENDBRANCH   4   7
BRANCH   6   9
ATOM      9  O   UNL     1       9.714  -3.186  23.949  0.00  0.00    -0.386 OA
ATOM     10  H   UNL     1      10.608  -3.506  24.163  0.00  0.00    +0.210 HD
ENDBRANCH   6   9
BRANCH   5  11
ATOM     11  O   UNL     1       9.953  -1.328  21.794  0.00  0.00    -0.386 OA
ATOM     12  H   UNL     1       9.921  -2.297  21.673  0.00  0.00    +0.210 HD
ENDBRANCH   5  11
BRANCH   3  13
ATOM     13  O   UNL     1       8.401   2.165  24.758  0.00  0.00    -0.453 OA
BRANCH  13  14
ATOM     14  C   UNL     1       7.590   3.097  24.157  0.00  0.00    +0.214 A 
ATOM     15  C   UNL     1       6.126   2.974  24.072  0.00  0.00    +0.238 A 
ATOM     16  O   UNL     1       5.485   2.136  24.689  0.00  0.00    -0.283 OA
ATOM     17  C   UNL     1       5.414   3.991  23.295  0.00  0.00    +0.109 A 
ATOM     18  C   UNL     1       5.970   5.238  23.077  0.00  0.00    +0.147 A 
ATOM     19  C   UNL     1       5.194   6.325  22.663  0.00  0.00    +0.092 A 
ATOM     20  C   UNL     1       3.850   6.103  22.412  0.00  0.00    +0.124 A 
ATOM     21  C   UNL     1       3.343   4.810  22.402  0.00  0.00    +0.091 A 
ATOM     22  O   UNL     1       7.290   5.407  23.297  0.00  0.00    -0.451 OA
ATOM     23  C   UNL     1       4.130   3.763  22.892  0.00  0.00    +0.135 A 
ATOM     24  C   UNL     1       8.011   4.327  23.769  0.00  0.00    +0.181 A 
BRANCH  24  25
ATOM     25  C   UNL     1       9.315   4.823  24.113  0.00  0.00    +0.025 A 
ATOM     26  C   UNL     1       9.304   5.916  24.980  0.00  0.00    +0.015 A 
ATOM     27  C   UNL     1      10.480   6.609  25.202  0.00  0.00    +0.050 A 
ATOM     28  C   UNL     1      11.639   6.140  24.583  0.00  0.00    +0.158 A 
ATOM     29  C   UNL     1      11.633   5.050  23.705  0.00  0.00    +0.159 A 
ATOM     30  C   UNL     1      10.446   4.409  23.413  0.00  0.00    +0.060 A 
BRANCH  29  31
ATOM     31  O   UNL     1      12.797   4.597  23.159  0.00  0.00    -0.503 OA
ATOM     32  H   UNL     1      13.475   5.291  23.227  0.00  0.00    +0.292 HD
ENDBRANCH  29  31
BRANCH  28  33
ATOM     33  O   UNL     1      12.822   6.735  24.926  0.00  0.00    -0.503 OA
ATOM     34  H   UNL     1      13.143   6.198  25.672  0.00  0.00    +0.292 HD
ENDBRANCH  28  33
ENDBRANCH  24  25
BRANCH  23  35
ATOM     35  O   UNL     1       3.575   2.530  23.091  0.00  0.00    -0.506 OA
ATOM     36  H   UNL     1       3.781   2.243  24.015  0.00  0.00    +0.292 HD
ENDBRANCH  23  35
BRANCH  20  37
ATOM     37  O   UNL     1       2.952   7.108  22.217  0.00  0.00    -0.507 OA
ATOM     38  H   UNL     1       2.992   7.732  22.960  0.00  0.00    +0.292 HD
ENDBRANCH  20  37
ENDBRANCH  13  14
ENDBRANCH   3  13
BRANCH   1  39
ATOM     39  C   UNL     1       7.506  -2.306  25.491  0.00  0.00    +0.197 C 
BRANCH  39  40
ATOM     40  O   UNL     1       7.487  -3.364  26.451  0.00  0.00    -0.346 OA
BRANCH  40  44
ATOM     41  C   UNL     1       4.559  -4.133  29.519  0.00  0.00    +0.041 C 
ATOM     42  C   UNL     1       5.460  -5.190  28.880  0.00  0.00    +0.149 C 
ATOM     43  O   UNL     1       6.554  -4.567  28.178  0.00  0.00    -0.343 OA
ATOM     44  C   UNL     1       6.265  -3.954  26.902  0.00  0.00    +0.282 C 
ATOM     45  C   UNL     1       5.647  -5.037  25.989  0.00  0.00    +0.202 C 
ATOM     46  C   UNL     1       4.348  -5.523  26.667  0.00  0.00    +0.186 C 
ATOM     47  C   UNL     1       4.652  -6.172  28.019  0.00  0.00    +0.174 C 
BRANCH  47  48
ATOM     48  O   UNL     1       5.360  -7.409  27.862  0.00  0.00    -0.387 OA
ATOM     49  H   UNL     1       4.710  -8.134  27.982  0.00  0.00    +0.210 HD
ENDBRANCH  47  48
BRANCH  45  50
ATOM     50  O   UNL     1       6.551  -6.143  25.791  0.00  0.00    -0.384 OA
ATOM     51  H   UNL     1       6.001  -6.939  25.648  0.00  0.00    +0.210 HD
ENDBRANCH  45  50
BRANCH  46  52
ATOM     52  O   UNL     1       3.642  -6.367  25.759  0.00  0.00    -0.340 OA
BRANCH  52  53
ATOM     53  C   UNL     1       2.305  -5.981  25.395  0.00  0.00    +0.282 C 
ATOM     54  O   UNL     1       1.469  -7.162  25.530  0.00  0.00    -0.341 OA
ATOM     55  C   UNL     1       1.959  -8.209  24.677  0.00  0.00    +0.178 C 
ATOM     56  C   UNL     1       1.817  -7.726  23.221  0.00  0.00    +0.177 C 
ATOM     57  C   UNL     1       2.549  -6.429  22.911  0.00  0.00    +0.179 C 
ATOM     58  C   UNL     1       2.187  -5.383  23.953  0.00  0.00    +0.201 C 
BRANCH  58  59
ATOM     59  O   UNL     1       2.974  -4.204  23.715  0.00  0.00    -0.384 OA
ATOM     60  H   UNL     1       2.396  -3.587  23.222  0.00  0.00    +0.210 HD
ENDBRANCH  58  59
BRANCH  57  61
ATOM     61  O   UNL     1       3.970  -6.553  22.772  0.00  0.00    -0.386 OA
ATOM     62  H   UNL     1       4.389  -6.542  23.658  0.00  0.00    +0.210 HD
ENDBRANCH  57  61
BRANCH  56  63
ATOM     63  O   UNL     1       0.448  -7.582  22.843  0.00  0.00    -0.386 OA
ATOM     64  H   UNL     1       0.089  -6.849  23.377  0.00  0.00    +0.210 HD
ENDBRANCH  56  63
BRANCH  55  65
ATOM     65  C   UNL     1       1.316  -9.606  24.890  0.00  0.00    +0.190 C 
BRANCH  65  66
ATOM     66  O   UNL     1       2.188 -10.545  25.518  0.00  0.00    -0.392 OA
ATOM     67  H   UNL     1       2.377 -11.249  24.874  0.00  0.00    +0.210 HD
ENDBRANCH  65  66
ENDBRANCH  55  65
ENDBRANCH  52  53
ENDBRANCH  46  52
ENDBRANCH  40  44
ENDBRANCH  39  40
ENDBRANCH   1  39
TORSDOF 22
ENDMDL
MODEL 3
REMARK VINA RESULT:      -8.1      2.823      9.715
REMARK  Name = 
REMARK  23 active torsions:
REMARK  status: ('A' for Active; 'I' for Inactive)
REMARK    1  A    between atoms: C_1  and  C_2
REMARK    2  A    between atoms: C_3  and  O_62
REMARK    3  A    between atoms: C_5  and  O_47
REMARK    4  A    between atoms: C_7  and  O_46
REMARK    5  A    between atoms: C_8  and  O_11
REMARK    6  A    between atoms: O_11  and  C_12
REMARK    7  A    between atoms: C_12  and  C_13
REMARK    8  A    between atoms: C_14  and  O_45
REMARK    9  A    between atoms: C_16  and  O_44
REMARK   10  A    between atoms: C_17  and  O_43
REMARK   11  A    between atoms: C_18  and  O_21
REMARK   12  A    between atoms: O_21  and  C_22
REMARK   13  A    between atoms: C_23  and  C_35
REMARK   14  A    between atoms: C_27  and  O_34
REMARK   15  A    between atoms: C_29  and  O_33
REMARK   16  A    between atoms: C_37  and  O_42
REMARK   17  A    between atoms: C_38  and  O_41
REMARK   18  A    between atoms: O_47  and  C_48
REMARK   19  A    between atoms: C_50  and  O_61
REMARK   20  A    between atoms: C_51  and  O_60
REMARK   21  A    between atoms: C_53  and  O_59
REMARK   22  A    between atoms: C_55  and  C_57
REMARK   23  A    between atoms: C_57  and  O_58
REMARK                            x       y       z     vdW  Elec       q    Type
REMARK                         _______ _______ _______ _____ _____    ______ ____
ROOT
ATOM      1  C   UNL     1       8.547  -3.622  23.962  0.00  0.00    +0.179 C 
ATOM      2  O   UNL     1       7.183  -3.154  24.045  0.00  0.00    -0.331 OA
ATOM      3  C   UNL     1       6.599  -3.015  25.355  0.00  0.00    +0.340 C 
ATOM      4  C   UNL     1       6.789  -4.270  26.231  0.00  0.00    +0.214 C 
ATOM      5  C   UNL     1       8.282  -4.588  26.300  0.00  0.00    +0.180 C 
ATOM      6  C   UNL     1       8.794  -4.858  24.874  0.00  0.00    +0.177 C 
ENDROOT
BRANCH   4   7
ATOM      7  O   UNL     1       6.109  -5.434  25.710  0.00  0.00    -0.383 OA
ATOM      8  H   UNL     1       5.188  -5.176  25.518  0.00  0.00    +0.210 HD
ENDBRANCH   4   7
BRANCH   6   9
ATOM      9  O   UNL     1      10.173  -5.218  24.909  0.00  0.00    -0.386 OA
ATOM     10  H   UNL     1      10.346  -5.817  24.161  0.00  0.00    +0.210 HD
ENDBRANCH   6   9
BRANCH   5  11
ATOM     11  O   UNL     1       8.485  -5.718  27.156  0.00  0.00    -0.386 OA
ATOM     12  H   UNL     1       7.781  -5.682  27.832  0.00  0.00    +0.210 HD
ENDBRANCH   5  11
BRANCH   3  13
ATOM     13  O   UNL     1       5.178  -2.775  25.209  0.00  0.00    -0.453 OA
BRANCH  13  14
ATOM     14  C   UNL     1       4.500  -1.977  26.097  0.00  0.00    +0.214 A 
ATOM     15  C   UNL     1       4.520  -0.505  26.055  0.00  0.00    +0.238 A 
ATOM     16  O   UNL     1       4.981   0.134  25.122  0.00  0.00    -0.283 OA
ATOM     17  C   UNL     1       3.844   0.203  27.144  0.00  0.00    +0.109 A 
ATOM     18  C   UNL     1       2.842  -0.407  27.877  0.00  0.00    +0.147 A 
ATOM     19  C   UNL     1       1.950   0.332  28.660  0.00  0.00    +0.092 A 
ATOM     20  C   UNL     1       2.138   1.703  28.735  0.00  0.00    +0.124 A 
ATOM     21  C   UNL     1       3.277   2.285  28.194  0.00  0.00    +0.091 A 
ATOM     22  O   UNL     1       2.714  -1.749  27.807  0.00  0.00    -0.451 OA
ATOM     23  C   UNL     1       4.103   1.526  27.359  0.00  0.00    +0.135 A 
ATOM     24  C   UNL     1       3.571  -2.438  26.972  0.00  0.00    +0.181 A 
BRANCH  24  25
ATOM     25  C   UNL     1       3.093  -3.792  26.922  0.00  0.00    +0.025 A 
ATOM     26  C   UNL     1       3.527  -4.595  27.977  0.00  0.00    +0.015 A 
ATOM     27  C   UNL     1       3.313  -5.960  27.915  0.00  0.00    +0.050 A 
ATOM     28  C   UNL     1       2.617  -6.461  26.815  0.00  0.00    +0.158 A 
ATOM     29  C   UNL     1       2.198  -5.646  25.756  0.00  0.00    +0.159 A 
ATOM     30  C   UNL     1       2.487  -4.295  25.774  0.00  0.00    +0.060 A 
BRANCH  29  31
ATOM     31  O   UNL     1       1.480  -6.170  24.723  0.00  0.00    -0.503 OA
ATOM     32  H   UNL     1       0.926  -6.898  25.054  0.00  0.00    +0.292 HD
ENDBRANCH  29  31
BRANCH  28  33
ATOM     33  O   UNL     1       2.276  -7.785  26.833  0.00  0.00    -0.503 OA
ATOM     34  H   UNL     1       1.858  -7.904  27.704  0.00  0.00    +0.292 HD
ENDBRANCH  28  33
ENDBRANCH  24  25
BRANCH  23  35
ATOM     35  O   UNL     1       5.099   2.136  26.649  0.00  0.00    -0.506 OA
ATOM     36  H   UNL     1       5.474   2.863  27.203  0.00  0.00    +0.292 HD
ENDBRANCH  23  35
BRANCH  20  37
ATOM     37  O   UNL     1       1.223   2.551  29.279  0.00  0.00    -0.507 OA
ATOM     38  H   UNL     1       0.336   2.333  28.949  0.00  0.00    +0.292 HD
ENDBRANCH  20  37
ENDBRANCH  13  14
ENDBRANCH   3  13
BRANCH   1  39
ATOM     39  C   UNL     1       9.663  -2.540  24.136  0.00  0.00    +0.197 C 
BRANCH  39  40
ATOM     40  O   UNL     1       9.290  -1.350  24.832  0.00  0.00    -0.346 OA
BRANCH  40  44
ATOM     41  C   UNL     1      10.574   1.854  22.249  0.00  0.00    +0.041 C 
ATOM     42  C   UNL     1      10.261   1.998  23.739  0.00  0.00    +0.149 C 
ATOM     43  O   UNL     1      10.222   0.705  24.377  0.00  0.00    -0.343 OA
ATOM     44  C   UNL     1       9.056  -0.115  24.149  0.00  0.00    +0.282 C 
ATOM     45  C   UNL     1       7.817   0.693  24.597  0.00  0.00    +0.202 C 
ATOM     46  C   UNL     1       7.763   1.969  23.732  0.00  0.00    +0.186 C 
ATOM     47  C   UNL     1       8.998   2.839  23.970  0.00  0.00    +0.174 C 
BRANCH  47  48
ATOM     48  O   UNL     1       8.999   3.402  25.289  0.00  0.00    -0.387 OA
ATOM     49  H   UNL     1       9.227   2.682  25.914  0.00  0.00    +0.210 HD
ENDBRANCH  47  48
BRANCH  45  50
ATOM     50  O   UNL     1       7.889   1.041  25.996  0.00  0.00    -0.384 OA
ATOM     51  H   UNL     1       7.947   0.202  26.495  0.00  0.00    +0.210 HD
ENDBRANCH  45  50
BRANCH  46  52
ATOM     52  O   UNL     1       6.524   2.635  23.968  0.00  0.00    -0.340 OA
BRANCH  52  53
ATOM     53  C   UNL     1       5.683   2.901  22.831  0.00  0.00    +0.282 C 
ATOM     54  O   UNL     1       6.345   3.925  22.042  0.00  0.00    -0.341 OA
ATOM     55  C   UNL     1       6.536   5.108  22.835  0.00  0.00    +0.178 C 
ATOM     56  C   UNL     1       5.142   5.655  23.198  0.00  0.00    +0.177 C 
ATOM     57  C   UNL     1       4.254   4.674  23.948  0.00  0.00    +0.179 C 
ATOM     58  C   UNL     1       4.230   3.345  23.208  0.00  0.00    +0.201 C 
BRANCH  58  59
ATOM     59  O   UNL     1       3.484   2.397  23.988  0.00  0.00    -0.384 OA
ATOM     60  H   UNL     1       2.836   1.992  23.376  0.00  0.00    +0.210 HD
ENDBRANCH  58  59
BRANCH  57  61
ATOM     61  O   UNL     1       4.585   4.491  25.330  0.00  0.00    -0.386 OA
ATOM     62  H   UNL     1       4.122   3.700  25.678  0.00  0.00    +0.210 HD
ENDBRANCH  57  61
BRANCH  56  63
ATOM     63  O   UNL     1       4.442   6.120  22.045  0.00  0.00    -0.386 OA
ATOM     64  H   UNL     1       4.521   7.092  22.046  0.00  0.00    +0.210 HD
ENDBRANCH  56  63
BRANCH  55  65
ATOM     65  C   UNL     1       7.442   6.199  22.206  0.00  0.00    +0.190 C 
BRANCH  65  66
ATOM     66  O   UNL     1       6.857   6.845  21.075  0.00  0.00    -0.392 OA
ATOM     67  H   UNL     1       6.027   6.384  20.868  0.00  0.00    +0.210 HD
ENDBRANCH  65  66
ENDBRANCH  55  65
ENDBRANCH  52  53
ENDBRANCH  46  52
ENDBRANCH  40  44
ENDBRANCH  39  40
ENDBRANCH   1  39
TORSDOF 22
ENDMDL
MODEL 4
REMARK VINA RESULT:      -8.0      1.864      2.688
REMARK  Name = 
REMARK  23 active torsions:
REMARK  status: ('A' for Active; 'I' for Inactive)
REMARK    1  A    between atoms: C_1  and  C_2
REMARK    2  A    between atoms: C_3  and  O_62
REMARK    3  A    between atoms: C_5  and  O_47
REMARK    4  A    between atoms: C_7  and  O_46
REMARK    5  A    between atoms: C_8  and  O_11
REMARK    6  A    between atoms: O_11  and  C_12
REMARK    7  A    between atoms: C_12  and  C_13
REMARK    8  A    between atoms: C_14  and  O_45
REMARK    9  A    between atoms: C_16  and  O_44
REMARK   10  A    between atoms: C_17  and  O_43
REMARK   11  A    between atoms: C_18  and  O_21
REMARK   12  A    between atoms: O_21  and  C_22
REMARK   13  A    between atoms: C_23  and  C_35
REMARK   14  A    between atoms: C_27  and  O_34
REMARK   15  A    between atoms: C_29  and  O_33
REMARK   16  A    between atoms: C_37  and  O_42
REMARK   17  A    between atoms: C_38  and  O_41
REMARK   18  A    between atoms: O_47  and  C_48
REMARK   19  A    between atoms: C_50  and  O_61
REMARK   20  A    between atoms: C_51  and  O_60
REMARK   21  A    between atoms: C_53  and  O_59
REMARK   22  A    between atoms: C_55  and  C_57
REMARK   23  A    between atoms: C_57  and  O_58
REMARK                            x       y       z     vdW  Elec       q    Type
REMARK                         _______ _______ _______ _____ _____    ______ ____
ROOT
ATOM      1  C   UNL     1       9.503   0.857  24.662  0.00  0.00    +0.179 C 
ATOM      2  O   UNL     1       8.953   2.143  24.298  0.00  0.00    -0.331 OA
ATOM      3  C   UNL     1       8.146   2.215  23.107  0.00  0.00    +0.340 C 
ATOM      4  C   UNL     1       8.819   1.557  21.886  0.00  0.00    +0.214 C 
ATOM      5  C   UNL     1       9.173   0.116  22.251  0.00  0.00    +0.180 C 
ATOM      6  C   UNL     1      10.147   0.136  23.443  0.00  0.00    +0.177 C 
ENDROOT
BRANCH   4   7
ATOM      7  O   UNL     1      10.033   2.226  21.479  0.00  0.00    -0.383 OA
ATOM      8  H   UNL     1      10.705   1.539  21.307  0.00  0.00    +0.210 HD
ENDBRANCH   4   7
BRANCH   6   9
ATOM      9  O   UNL     1      10.546  -1.194  23.771  0.00  0.00    -0.386 OA
ATOM     10  H   UNL     1      10.075  -1.804  23.176  0.00  0.00    +0.210 HD
ENDBRANCH   6   9
BRANCH   5  11
ATOM     11  O   UNL     1       9.749  -0.532  21.110  0.00  0.00    -0.386 OA
ATOM     12  H   UNL     1      10.532  -1.017  21.436  0.00  0.00    +0.210 HD
ENDBRANCH   5  11
BRANCH   3  13
ATOM     13  O   UNL     1       7.901   3.609  22.794  0.00  0.00    -0.453 OA
BRANCH  13  14
ATOM     14  C   UNL     1       7.099   4.384  23.596  0.00  0.00    +0.214 A 
ATOM     15  C   UNL     1       5.696   4.060  23.907  0.00  0.00    +0.238 A 
ATOM     16  O   UNL     1       5.180   2.985  23.639  0.00  0.00    -0.283 OA
ATOM     17  C   UNL     1       4.939   5.047  24.678  0.00  0.00    +0.109 A 
ATOM     18  C   UNL     1       5.583   5.966  25.487  0.00  0.00    +0.147 A 
ATOM     19  C   UNL     1       4.903   6.666  26.488  0.00  0.00    +0.092 A 
ATOM     20  C   UNL     1       3.538   6.462  26.608  0.00  0.00    +0.124 A 
ATOM     21  C   UNL     1       2.853   5.724  25.651  0.00  0.00    +0.091 A 
ATOM     22  O   UNL     1       6.906   6.165  25.315  0.00  0.00    -0.451 OA
ATOM     23  C   UNL     1       3.576   4.983  24.712  0.00  0.00    +0.135 A 
ATOM     24  C   UNL     1       7.557   5.406  24.361  0.00  0.00    +0.181 A 
BRANCH  24  25
ATOM     25  C   UNL     1       8.961   5.657  24.527  0.00  0.00    +0.025 A 
ATOM     26  C   UNL     1       9.290   6.339  25.699  0.00  0.00    +0.015 A 
ATOM     27  C   UNL     1      10.575   6.824  25.855  0.00  0.00    +0.050 A 
ATOM     28  C   UNL     1      11.500   6.556  24.846  0.00  0.00    +0.158 A 
ATOM     29  C   UNL     1      11.154   5.882  23.669  0.00  0.00    +0.159 A 
ATOM     30  C   UNL     1       9.851   5.471  23.471  0.00  0.00    +0.060 A 
BRANCH  29  31
ATOM     31  O   UNL     1      12.101   5.600  22.730  0.00  0.00    -0.503 OA
ATOM     32  H   UNL     1      12.767   6.309  22.723  0.00  0.00    +0.292 HD
ENDBRANCH  29  31
BRANCH  28  33
ATOM     33  O   UNL     1      12.803   6.905  25.075  0.00  0.00    -0.503 OA
ATOM     34  H   UNL     1      12.785   7.879  25.070  0.00  0.00    +0.292 HD
ENDBRANCH  28  33
ENDBRANCH  24  25
BRANCH  23  35
ATOM     35  O   UNL     1       2.929   4.086  23.908  0.00  0.00    -0.506 OA
ATOM     36  H   UNL     1       2.067   4.485  23.630  0.00  0.00    +0.292 HD
ENDBRANCH  23  35
BRANCH  20  37
ATOM     37  O   UNL     1       2.808   6.911  27.666  0.00  0.00    -0.507 OA
ATOM     38  H   UNL     1       3.116   7.795  27.926  0.00  0.00    +0.292 HD
ENDBRANCH  20  37
ENDBRANCH  13  14
ENDBRANCH   3  13
BRANCH   1  39
ATOM     39  C   UNL     1       8.563  -0.096  25.471  0.00  0.00    +0.197 C 
BRANCH  39  40
ATOM     40  O   UNL     1       7.771  -1.005  24.705  0.00  0.00    -0.346 OA
BRANCH  40  44
ATOM     41  C   UNL     1       9.275  -4.629  26.490  0.00  0.00    +0.041 C 
ATOM     42  C   UNL     1       8.977  -4.440  25.002  0.00  0.00    +0.149 C 
ATOM     43  O   UNL     1       8.847  -3.040  24.683  0.00  0.00    -0.343 OA
ATOM     44  C   UNL     1       7.624  -2.378  25.075  0.00  0.00    +0.282 C 
ATOM     45  C   UNL     1       6.447  -3.142  24.427  0.00  0.00    +0.202 C 
ATOM     46  C   UNL     1       6.483  -4.587  24.968  0.00  0.00    +0.186 C 
ATOM     47  C   UNL     1       7.778  -5.289  24.556  0.00  0.00    +0.174 C 
BRANCH  47  48
ATOM     48  O   UNL     1       7.822  -5.525  23.143  0.00  0.00    -0.387 OA
ATOM     49  H   UNL     1       8.548  -4.976  22.777  0.00  0.00    +0.210 HD
ENDBRANCH  47  48
BRANCH  45  50
ATOM     50  O   UNL     1       6.547  -3.146  22.987  0.00  0.00    -0.384 OA
ATOM     51  H   UNL     1       7.150  -2.415  22.742  0.00  0.00    +0.210 HD
ENDBRANCH  45  50
BRANCH  46  52
ATOM     52  O   UNL     1       5.295  -5.263  24.559  0.00  0.00    -0.340 OA
BRANCH  52  53
ATOM     53  C   UNL     1       4.039  -4.749  25.035  0.00  0.00    +0.282 C 
ATOM     54  O   UNL     1       3.995  -4.991  26.467  0.00  0.00    -0.341 OA
ATOM     55  C   UNL     1       4.115  -6.398  26.730  0.00  0.00    +0.178 C 
ATOM     56  C   UNL     1       2.881  -7.092  26.123  0.00  0.00    +0.177 C 
ATOM     57  C   UNL     1       2.699  -6.864  24.629  0.00  0.00    +0.179 C 
ATOM     58  C   UNL     1       2.790  -5.376  24.330  0.00  0.00    +0.201 C 
BRANCH  58  59
ATOM     59  O   UNL     1       2.733  -5.189  22.906  0.00  0.00    -0.384 OA
ATOM     60  H   UNL     1       3.661  -5.093  22.609  0.00  0.00    +0.210 HD
ENDBRANCH  58  59
BRANCH  57  61
ATOM     61  O   UNL     1       3.584  -7.616  23.790  0.00  0.00    -0.386 OA
ATOM     62  H   UNL     1       3.983  -7.025  23.119  0.00  0.00    +0.210 HD
ENDBRANCH  57  61
BRANCH  56  63
ATOM     63  O   UNL     1       1.679  -6.714  26.794  0.00  0.00    -0.386 OA
ATOM     64  H   UNL     1       1.891  -6.685  27.746  0.00  0.00    +0.210 HD
ENDBRANCH  56  63
BRANCH  55  65
ATOM     65  C   UNL     1       4.326  -6.788  28.218  0.00  0.00    +0.190 C 
BRANCH  65  66
ATOM     66  O   UNL     1       5.485  -7.592  28.439  0.00  0.00    -0.392 OA
ATOM     67  H   UNL     1       5.950  -7.679  27.589  0.00  0.00    +0.210 HD
ENDBRANCH  65  66
ENDBRANCH  55  65
ENDBRANCH  52  53
ENDBRANCH  46  52
ENDBRANCH  40  44
ENDBRANCH  39  40
ENDBRANCH   1  39
TORSDOF 22
ENDMDL
MODEL 5
REMARK VINA RESULT:      -8.0      2.873      6.521
REMARK  Name = 
REMARK  23 active torsions:
REMARK  status: ('A' for Active; 'I' for Inactive)
REMARK    1  A    between atoms: C_1  and  C_2
REMARK    2  A    between atoms: C_3  and  O_62
REMARK    3  A    between atoms: C_5  and  O_47
REMARK    4  A    between atoms: C_7  and  O_46
REMARK    5  A    between atoms: C_8  and  O_11
REMARK    6  A    between atoms: O_11  and  C_12
REMARK    7  A    between atoms: C_12  and  C_13
REMARK    8  A    between atoms: C_14  and  O_45
REMARK    9  A    between atoms: C_16  and  O_44
REMARK   10  A    between atoms: C_17  and  O_43
REMARK   11  A    between atoms: C_18  and  O_21
REMARK   12  A    between atoms: O_21  and  C_22
REMARK   13  A    between atoms: C_23  and  C_35
REMARK   14  A    between atoms: C_27  and  O_34
REMARK   15  A    between atoms: C_29  and  O_33
REMARK   16  A    between atoms: C_37  and  O_42
REMARK   17  A    between atoms: C_38  and  O_41
REMARK   18  A    between atoms: O_47  and  C_48
REMARK   19  A    between atoms: C_50  and  O_61
REMARK   20  A    between atoms: C_51  and  O_60
REMARK   21  A    between atoms: C_53  and  O_59
REMARK   22  A    between atoms: C_55  and  C_57
REMARK   23  A    between atoms: C_57  and  O_58
REMARK                            x       y       z     vdW  Elec       q    Type
REMARK                         _______ _______ _______ _____ _____    ______ ____
ROOT
ATOM      1  C   UNL     1       4.546   0.928  26.484  0.00  0.00    +0.179 C 
ATOM      2  O   UNL     1       5.761   0.262  26.077  0.00  0.00    -0.331 OA
ATOM      3  C   UNL     1       6.878   0.287  26.986  0.00  0.00    +0.340 C 
ATOM      4  C   UNL     1       7.194   1.704  27.509  0.00  0.00    +0.214 C 
ATOM      5  C   UNL     1       5.926   2.276  28.142  0.00  0.00    +0.180 C 
ATOM      6  C   UNL     1       4.827   2.343  27.067  0.00  0.00    +0.177 C 
ENDROOT
BRANCH   4   7
ATOM      7  O   UNL     1       7.621   2.610  26.468  0.00  0.00    -0.383 OA
ATOM      8  H   UNL     1       7.622   2.115  25.627  0.00  0.00    +0.210 HD
ENDBRANCH   4   7
BRANCH   6   9
ATOM      9  O   UNL     1       3.646   2.931  27.611  0.00  0.00    -0.386 OA
ATOM     10  H   UNL     1       3.277   3.535  26.943  0.00  0.00    +0.210 HD
ENDBRANCH   6   9
BRANCH   5  11
ATOM     11  O   UNL     1       6.213   3.570  28.685  0.00  0.00    -0.386 OA
ATOM     12  H   UNL     1       6.682   3.417  29.528  0.00  0.00    +0.210 HD
ENDBRANCH   5  11
BRANCH   3  13
ATOM     13  O   UNL     1       8.051  -0.214  26.298  0.00  0.00    -0.453 OA
BRANCH  13  14
ATOM     14  C   UNL     1       7.934  -1.095  25.251  0.00  0.00    +0.214 A 
ATOM     15  C   UNL     1       7.510  -2.497  25.404  0.00  0.00    +0.238 A 
ATOM     16  O   UNL     1       7.044  -2.948  26.440  0.00  0.00    -0.283 OA
ATOM     17  C   UNL     1       7.550  -3.341  24.209  0.00  0.00    +0.109 A 
ATOM     18  C   UNL     1       7.496  -2.786  22.943  0.00  0.00    +0.147 A 
ATOM     19  C   UNL     1       7.175  -3.553  21.818  0.00  0.00    +0.092 A 
ATOM     20  C   UNL     1       6.974  -4.912  21.997  0.00  0.00    +0.124 A 
ATOM     21  C   UNL     1       7.258  -5.507  23.220  0.00  0.00    +0.091 A 
ATOM     22  O   UNL     1       7.734  -1.466  22.804  0.00  0.00    -0.451 OA
ATOM     23  C   UNL     1       7.503  -4.699  24.334  0.00  0.00    +0.135 A 
ATOM     24  C   UNL     1       7.982  -0.728  23.945  0.00  0.00    +0.181 A 
BRANCH  24  25
ATOM     25  C   UNL     1       7.991   0.652  23.548  0.00  0.00    +0.025 A 
ATOM     26  C   UNL     1       6.800   1.093  22.971  0.00  0.00    +0.015 A 
ATOM     27  C   UNL     1       6.769   2.330  22.355  0.00  0.00    +0.050 A 
ATOM     28  C   UNL     1       7.928   3.105  22.391  0.00  0.00    +0.158 A 
ATOM     29  C   UNL     1       9.121   2.645  22.962  0.00  0.00    +0.159 A 
ATOM     30  C   UNL     1       9.180   1.376  23.501  0.00  0.00    +0.060 A 
BRANCH  29  31
ATOM     31  O   UNL     1      10.217   3.454  23.016  0.00  0.00    -0.503 OA
ATOM     32  H   UNL     1      11.021   2.908  22.973  0.00  0.00    +0.292 HD
ENDBRANCH  29  31
BRANCH  28  33
ATOM     33  O   UNL     1       7.847   4.385  21.916  0.00  0.00    -0.503 OA
ATOM     34  H   UNL     1       8.754   4.725  22.012  0.00  0.00    +0.292 HD
ENDBRANCH  28  33
ENDBRANCH  24  25
BRANCH  23  35
ATOM     35  O   UNL     1       7.568  -5.258  25.580  0.00  0.00    -0.506 OA
ATOM     36  H   UNL     1       7.684  -6.235  25.476  0.00  0.00    +0.292 HD
ENDBRANCH  23  35
BRANCH  20  37
ATOM     37  O   UNL     1       6.450  -5.720  21.035  0.00  0.00    -0.507 OA
ATOM     38  H   UNL     1       6.756  -6.633  21.172  0.00  0.00    +0.292 HD
ENDBRANCH  20  37
ENDBRANCH  13  14
ENDBRANCH   3  13
BRANCH   1  39
ATOM     39  C   UNL     1       3.577   0.106  27.396  0.00  0.00    +0.197 C 
BRANCH  39  40
ATOM     40  O   UNL     1       2.805  -0.907  26.749  0.00  0.00    -0.346 OA
BRANCH  40  44
ATOM     41  C   UNL     1       2.968  -3.808  29.934  0.00  0.00    +0.041 C 
ATOM     42  C   UNL     1       4.022  -3.645  28.839  0.00  0.00    +0.149 C 
ATOM     43  O   UNL     1       3.866  -2.379  28.167  0.00  0.00    -0.343 OA
ATOM     44  C   UNL     1       2.779  -2.256  27.223  0.00  0.00    +0.282 C 
ATOM     45  C   UNL     1       2.953  -3.362  26.158  0.00  0.00    +0.202 C 
ATOM     46  C   UNL     1       2.889  -4.720  26.888  0.00  0.00    +0.186 C 
ATOM     47  C   UNL     1       4.038  -4.851  27.890  0.00  0.00    +0.174 C 
BRANCH  47  48
ATOM     48  O   UNL     1       5.305  -4.957  27.226  0.00  0.00    -0.387 OA
ATOM     49  H   UNL     1       5.990  -5.064  27.920  0.00  0.00    +0.210 HD
ENDBRANCH  47  48
BRANCH  45  50
ATOM     50  O   UNL     1       4.208  -3.230  25.458  0.00  0.00    -0.384 OA
ATOM     51  H   UNL     1       4.356  -4.070  24.978  0.00  0.00    +0.210 HD
ENDBRANCH  45  50
BRANCH  46  52
ATOM     52  O   UNL     1       2.835  -5.764  25.918  0.00  0.00    -0.340 OA
BRANCH  52  53
ATOM     53  C   UNL     1       1.835  -5.666  24.890  0.00  0.00    +0.282 C 
ATOM     54  O   UNL     1       0.816  -6.656  25.191  0.00  0.00    -0.341 OA
ATOM     55  C   UNL     1       1.401  -7.968  25.224  0.00  0.00    +0.178 C 
ATOM     56  C   UNL     1       1.922  -8.280  23.808  0.00  0.00    +0.177 C 
ATOM     57  C   UNL     1       2.936  -7.281  23.273  0.00  0.00    +0.179 C 
ATOM     58  C   UNL     1       2.393  -5.871  23.441  0.00  0.00    +0.201 C 
BRANCH  58  59
ATOM     59  O   UNL     1       3.408  -4.936  23.040  0.00  0.00    -0.384 OA
ATOM     60  H   UNL     1       2.955  -4.075  22.928  0.00  0.00    +0.210 HD
ENDBRANCH  58  59
BRANCH  57  61
ATOM     61  O   UNL     1       4.253  -7.399  23.826  0.00  0.00    -0.386 OA
ATOM     62  H   UNL     1       4.194  -7.489  24.800  0.00  0.00    +0.210 HD
ENDBRANCH  57  61
BRANCH  56  63
ATOM     63  O   UNL     1       0.855  -8.400  22.868  0.00  0.00    -0.386 OA
ATOM     64  H   UNL     1       0.294  -9.135  23.178  0.00  0.00    +0.210 HD
ENDBRANCH  56  63
BRANCH  55  65
ATOM     65  C   UNL     1       0.487  -9.098  25.769  0.00  0.00    +0.190 C 
BRANCH  65  66
ATOM     66  O   UNL     1       0.665 -10.348  25.102  0.00  0.00    -0.392 OA
ATOM     67  H   UNL     1       0.156 -11.018  25.589  0.00  0.00    +0.210 HD
ENDBRANCH  65  66
ENDBRANCH  55  65
ENDBRANCH  52  53
ENDBRANCH  46  52
ENDBRANCH  40  44
ENDBRANCH  39  40
ENDBRANCH   1  39
TORSDOF 22
ENDMDL
MODEL 6
REMARK VINA RESULT:      -7.8      2.398      9.646
REMARK  Name = 
REMARK  23 active torsions:
REMARK  status: ('A' for Active; 'I' for Inactive)
REMARK    1  A    between atoms: C_1  and  C_2
REMARK    2  A    between atoms: C_3  and  O_62
REMARK    3  A    between atoms: C_5  and  O_47
REMARK    4  A    between atoms: C_7  and  O_46
REMARK    5  A    between atoms: C_8  and  O_11
REMARK    6  A    between atoms: O_11  and  C_12
REMARK    7  A    between atoms: C_12  and  C_13
REMARK    8  A    between atoms: C_14  and  O_45
REMARK    9  A    between atoms: C_16  and  O_44
REMARK   10  A    between atoms: C_17  and  O_43
REMARK   11  A    between atoms: C_18  and  O_21
REMARK   12  A    between atoms: O_21  and  C_22
REMARK   13  A    between atoms: C_23  and  C_35
REMARK   14  A    between atoms: C_27  and  O_34
REMARK   15  A    between atoms: C_29  and  O_33
REMARK   16  A    between atoms: C_37  and  O_42
REMARK   17  A    between atoms: C_38  and  O_41
REMARK   18  A    between atoms: O_47  and  C_48
REMARK   19  A    between atoms: C_50  and  O_61
REMARK   20  A    between atoms: C_51  and  O_60
REMARK   21  A    between atoms: C_53  and  O_59
REMARK   22  A    between atoms: C_55  and  C_57
REMARK   23  A    between atoms: C_57  and  O_58
REMARK                            x       y       z     vdW  Elec       q    Type
REMARK                         _______ _______ _______ _____ _____    ______ ____
ROOT
ATOM      1  C   UNL     1       5.225  -3.486  28.370  0.00  0.00    +0.179 C 
ATOM      2  O   UNL     1       6.293  -3.250  27.427  0.00  0.00    -0.331 OA
ATOM      3  C   UNL     1       6.467  -4.201  26.358  0.00  0.00    +0.340 C 
ATOM      4  C   UNL     1       6.504  -5.660  26.855  0.00  0.00    +0.214 C 
ATOM      5  C   UNL     1       5.231  -5.928  27.657  0.00  0.00    +0.180 C 
ATOM      6  C   UNL     1       5.194  -4.963  28.857  0.00  0.00    +0.177 C 
ENDROOT
BRANCH   4   7
ATOM      7  O   UNL     1       7.636  -5.941  27.707  0.00  0.00    -0.383 OA
ATOM      8  H   UNL     1       8.426  -6.003  27.138  0.00  0.00    +0.210 HD
ENDBRANCH   4   7
BRANCH   6   9
ATOM      9  O   UNL     1       4.047  -5.228  29.662  0.00  0.00    -0.386 OA
ATOM     10  H   UNL     1       4.291  -5.905  30.318  0.00  0.00    +0.210 HD
ENDBRANCH   6   9
BRANCH   5  11
ATOM     11  O   UNL     1       5.219  -7.296  28.080  0.00  0.00    -0.386 OA
ATOM     12  H   UNL     1       4.400  -7.416  28.599  0.00  0.00    +0.210 HD
ENDBRANCH   5  11
BRANCH   3  13
ATOM     13  O   UNL     1       7.718  -3.919  25.684  0.00  0.00    -0.453 OA
BRANCH  13  14
ATOM     14  C   UNL     1       7.861  -2.806  24.893  0.00  0.00    +0.214 A 
ATOM     15  C   UNL     1       8.980  -1.856  25.011  0.00  0.00    +0.238 A 
ATOM     16  O   UNL     1       9.975  -2.072  25.686  0.00  0.00    -0.283 OA
ATOM     17  C   UNL     1       8.927  -0.654  24.176  0.00  0.00    +0.109 A 
ATOM     18  C   UNL     1       8.178  -0.627  23.014  0.00  0.00    +0.147 A 
ATOM     19  C   UNL     1       8.383   0.346  22.031  0.00  0.00    +0.092 A 
ATOM     20  C   UNL     1       9.322   1.333  22.283  0.00  0.00    +0.124 A 
ATOM     21  C   UNL     1       9.902   1.443  23.541  0.00  0.00    +0.091 A 
ATOM     22  O   UNL     1       7.247  -1.584  22.820  0.00  0.00    -0.451 OA
ATOM     23  C   UNL     1       9.728   0.412  24.467  0.00  0.00    +0.135 A 
ATOM     24  C   UNL     1       7.119  -2.567  23.782  0.00  0.00    +0.181 A 
BRANCH  24  25
ATOM     25  C   UNL     1       6.228  -3.556  23.242  0.00  0.00    +0.025 A 
ATOM     26  C   UNL     1       4.899  -3.412  23.642  0.00  0.00    +0.015 A 
ATOM     27  C   UNL     1       4.001  -4.426  23.364  0.00  0.00    +0.050 A 
ATOM     28  C   UNL     1       4.463  -5.527  22.643  0.00  0.00    +0.158 A 
ATOM     29  C   UNL     1       5.802  -5.664  22.258  0.00  0.00    +0.159 A 
ATOM     30  C   UNL     1       6.720  -4.694  22.609  0.00  0.00    +0.060 A 
BRANCH  29  31
ATOM     31  O   UNL     1       6.201  -6.734  21.514  0.00  0.00    -0.503 OA
ATOM     32  H   UNL     1       7.172  -6.743  21.459  0.00  0.00    +0.292 HD
ENDBRANCH  29  31
BRANCH  28  33
ATOM     33  O   UNL     1       3.539  -6.451  22.241  0.00  0.00    -0.503 OA
ATOM     34  H   UNL     1       4.077  -7.153  21.833  0.00  0.00    +0.292 HD
ENDBRANCH  28  33
ENDBRANCH  24  25
BRANCH  23  35
ATOM     35  O   UNL     1      10.463   0.400  25.620  0.00  0.00    -0.506 OA
ATOM     36  H   UNL     1       9.958   0.890  26.315  0.00  0.00    +0.292 HD
ENDBRANCH  23  35
BRANCH  20  37
ATOM     37  O   UNL     1       9.766   2.200  21.332  0.00  0.00    -0.507 OA
ATOM     38  H   UNL     1       9.028   2.462  20.757  0.00  0.00    +0.292 HD
ENDBRANCH  20  37
ENDBRANCH  13  14
ENDBRANCH   3  13
BRANCH   1  39
ATOM     39  C   UNL     1       3.804  -2.984  27.949  0.00  0.00    +0.197 C 
BRANCH  39  40
ATOM     40  O   UNL     1       3.594  -1.572  27.985  0.00  0.00    -0.346 OA
BRANCH  40  44
ATOM     41  C   UNL     1       7.598   0.013  27.795  0.00  0.00    +0.041 C 
ATOM     42  C   UNL     1       6.383   0.759  28.348  0.00  0.00    +0.149 C 
ATOM     43  O   UNL     1       5.299  -0.156  28.607  0.00  0.00    -0.343 OA
ATOM     44  C   UNL     1       4.557  -0.649  27.470  0.00  0.00    +0.282 C 
ATOM     45  C   UNL     1       3.997   0.574  26.708  0.00  0.00    +0.202 C 
ATOM     46  C   UNL     1       5.203   1.419  26.247  0.00  0.00    +0.186 C 
ATOM     47  C   UNL     1       5.992   1.941  27.449  0.00  0.00    +0.174 C 
BRANCH  47  48
ATOM     48  O   UNL     1       5.242   2.914  28.189  0.00  0.00    -0.387 OA
ATOM     49  H   UNL     1       4.307   2.620  28.193  0.00  0.00    +0.210 HD
ENDBRANCH  47  48
BRANCH  45  50
ATOM     50  O   UNL     1       3.124   1.364  27.542  0.00  0.00    -0.384 OA
ATOM     51  H   UNL     1       3.494   2.269  27.565  0.00  0.00    +0.210 HD
ENDBRANCH  45  50
BRANCH  46  52
ATOM     52  O   UNL     1       4.740   2.439  25.363  0.00  0.00    -0.340 OA
BRANCH  52  53
ATOM     53  C   UNL     1       5.034   2.291  23.963  0.00  0.00    +0.282 C 
ATOM     54  O   UNL     1       6.410   2.714  23.769  0.00  0.00    -0.341 OA
ATOM     55  C   UNL     1       6.568   4.078  24.192  0.00  0.00    +0.178 C 
ATOM     56  C   UNL     1       5.698   4.954  23.271  0.00  0.00    +0.177 C 
ATOM     57  C   UNL     1       4.221   4.589  23.262  0.00  0.00    +0.179 C 
ATOM     58  C   UNL     1       4.071   3.094  23.026  0.00  0.00    +0.201 C 
BRANCH  58  59
ATOM     59  O   UNL     1       2.681   2.748  23.136  0.00  0.00    -0.384 OA
ATOM     60  H   UNL     1       2.377   3.118  23.990  0.00  0.00    +0.210 HD
ENDBRANCH  58  59
BRANCH  57  61
ATOM     61  O   UNL     1       3.486   5.007  24.419  0.00  0.00    -0.386 OA
ATOM     62  H   UNL     1       4.016   4.835  25.225  0.00  0.00    +0.210 HD
ENDBRANCH  57  61
BRANCH  56  63
ATOM     63  O   UNL     1       6.181   4.949  21.928  0.00  0.00    -0.386 OA
ATOM     64  H   UNL     1       6.075   4.037  21.599  0.00  0.00    +0.210 HD
ENDBRANCH  56  63
BRANCH  55  65
ATOM     65  C   UNL     1       8.031   4.592  24.270  0.00  0.00    +0.190 C 
BRANCH  65  66
ATOM     66  O   UNL     1       8.678   4.668  23.000  0.00  0.00    -0.392 OA
ATOM     67  H   UNL     1       9.346   5.373  23.051  0.00  0.00    +0.210 HD
ENDBRANCH  65  66
ENDBRANCH  55  65
ENDBRANCH  52  53
ENDBRANCH  46  52
ENDBRANCH  40  44
ENDBRANCH  39  40
ENDBRANCH   1  39
TORSDOF 22
ENDMDL
MODEL 7
REMARK VINA RESULT:      -7.8      2.916      6.200
REMARK  Name = 
REMARK  23 active torsions:
REMARK  status: ('A' for Active; 'I' for Inactive)
REMARK    1  A    between atoms: C_1  and  C_2
REMARK    2  A    between atoms: C_3  and  O_62
REMARK    3  A    between atoms: C_5  and  O_47
REMARK    4  A    between atoms: C_7  and  O_46
REMARK    5  A    between atoms: C_8  and  O_11
REMARK    6  A    between atoms: O_11  and  C_12
REMARK    7  A    between atoms: C_12  and  C_13
REMARK    8  A    between atoms: C_14  and  O_45
REMARK    9  A    between atoms: C_16  and  O_44
REMARK   10  A    between atoms: C_17  and  O_43
REMARK   11  A    between atoms: C_18  and  O_21
REMARK   12  A    between atoms: O_21  and  C_22
REMARK   13  A    between atoms: C_23  and  C_35
REMARK   14  A    between atoms: C_27  and  O_34
REMARK   15  A    between atoms: C_29  and  O_33
REMARK   16  A    between atoms: C_37  and  O_42
REMARK   17  A    between atoms: C_38  and  O_41
REMARK   18  A    between atoms: O_47  and  C_48
REMARK   19  A    between atoms: C_50  and  O_61
REMARK   20  A    between atoms: C_51  and  O_60
REMARK   21  A    between atoms: C_53  and  O_59
REMARK   22  A    between atoms: C_55  and  C_57
REMARK   23  A    between atoms: C_57  and  O_58
REMARK                            x       y       z     vdW  Elec       q    Type
REMARK                         _______ _______ _______ _____ _____    ______ ____
ROOT
ATOM      1  C   UNL     1       8.478  -4.137  25.171  0.00  0.00    +0.179 C 
ATOM      2  O   UNL     1       7.726  -2.914  25.013  0.00  0.00    -0.331 OA
ATOM      3  C   UNL     1       6.410  -3.004  24.433  0.00  0.00    +0.340 C 
ATOM      4  C   UNL     1       6.388  -3.818  23.124  0.00  0.00    +0.214 C 
ATOM      5  C   UNL     1       6.985  -5.196  23.404  0.00  0.00    +0.180 C 
ATOM      6  C   UNL     1       8.436  -5.014  23.886  0.00  0.00    +0.177 C 
ENDROOT
BRANCH   4   7
ATOM      7  O   UNL     1       7.154  -3.207  22.062  0.00  0.00    -0.383 OA
ATOM      8  H   UNL     1       8.060  -3.566  22.107  0.00  0.00    +0.210 HD
ENDBRANCH   4   7
BRANCH   6   9
ATOM      9  O   UNL     1       9.044  -6.287  24.099  0.00  0.00    -0.386 OA
ATOM     10  H   UNL     1       9.794  -6.368  23.483  0.00  0.00    +0.210 HD
ENDBRANCH   6   9
BRANCH   5  11
ATOM     11  O   UNL     1       6.922  -5.989  22.213  0.00  0.00    -0.386 OA
ATOM     12  H   UNL     1       7.159  -6.899  22.475  0.00  0.00    +0.210 HD
ENDBRANCH   5  11
BRANCH   3  13
ATOM     13  O   UNL     1       5.936  -1.665  24.144  0.00  0.00    -0.453 OA
BRANCH  13  14
ATOM     14  C   UNL     1       6.769  -0.580  24.259  0.00  0.00    +0.214 A 
ATOM     15  C   UNL     1       7.643  -0.100  23.175  0.00  0.00    +0.238 A 
ATOM     16  O   UNL     1       7.568  -0.503  22.024  0.00  0.00    -0.283 OA
ATOM     17  C   UNL     1       8.560   0.996  23.492  0.00  0.00    +0.109 A 
ATOM     18  C   UNL     1       8.302   1.860  24.541  0.00  0.00    +0.147 A 
ATOM     19  C   UNL     1       8.942   3.098  24.647  0.00  0.00    +0.092 A 
ATOM     20  C   UNL     1       9.901   3.415  23.698  0.00  0.00    +0.124 A 
ATOM     21  C   UNL     1      10.328   2.457  22.787  0.00  0.00    +0.091 A 
ATOM     22  O   UNL     1       7.388   1.500  25.466  0.00  0.00    -0.451 OA
ATOM     23  C   UNL     1       9.614   1.261  22.666  0.00  0.00    +0.135 A 
ATOM     24  C   UNL     1       6.728   0.299  25.292  0.00  0.00    +0.181 A 
BRANCH  24  25
ATOM     25  C   UNL     1       5.683   0.259  26.277  0.00  0.00    +0.025 A 
ATOM     26  C   UNL     1       5.870  -0.697  27.275  0.00  0.00    +0.015 A 
ATOM     27  C   UNL     1       4.830  -0.973  28.143  0.00  0.00    +0.050 A 
ATOM     28  C   UNL     1       3.654  -0.235  28.008  0.00  0.00    +0.158 A 
ATOM     29  C   UNL     1       3.475   0.713  26.993  0.00  0.00    +0.159 A 
ATOM     30  C   UNL     1       4.480   0.930  26.071  0.00  0.00    +0.060 A 
BRANCH  29  31
ATOM     31  O   UNL     1       2.327   1.445  26.927  0.00  0.00    -0.503 OA
ATOM     32  H   UNL     1       2.462   2.199  26.326  0.00  0.00    +0.292 HD
ENDBRANCH  29  31
BRANCH  28  33
ATOM     33  O   UNL     1       2.688  -0.406  28.961  0.00  0.00    -0.503 OA
ATOM     34  H   UNL     1       1.868  -0.140  28.509  0.00  0.00    +0.292 HD
ENDBRANCH  28  33
ENDBRANCH  24  25
BRANCH  23  35
ATOM     35  O   UNL     1       9.885   0.408  21.633  0.00  0.00    -0.506 OA
ATOM     36  H   UNL     1      10.281   0.931  20.894  0.00  0.00    +0.292 HD
ENDBRANCH  23  35
BRANCH  20  37
ATOM     37  O   UNL     1      10.434   4.660  23.564  0.00  0.00    -0.507 OA
ATOM     38  H   UNL     1      10.989   4.695  22.767  0.00  0.00    +0.292 HD
ENDBRANCH  20  37
ENDBRANCH  13  14
ENDBRANCH   3  13
BRANCH   1  39
ATOM     39  C   UNL     1       8.176  -4.976  26.456  0.00  0.00    +0.197 C 
BRANCH  39  40
ATOM     40  O   UNL     1       7.522  -4.288  27.524  0.00  0.00    -0.346 OA
BRANCH  40  44
ATOM     41  C   UNL     1       4.123  -3.975  30.156  0.00  0.00    +0.041 C 
ATOM     42  C   UNL     1       4.770  -5.286  29.709  0.00  0.00    +0.149 C 
ATOM     43  O   UNL     1       6.076  -5.043  29.148  0.00  0.00    -0.343 OA
ATOM     44  C   UNL     1       6.137  -4.487  27.816  0.00  0.00    +0.282 C 
ATOM     45  C   UNL     1       5.366  -5.439  26.874  0.00  0.00    +0.202 C 
ATOM     46  C   UNL     1       3.907  -5.499  27.374  0.00  0.00    +0.186 C 
ATOM     47  C   UNL     1       3.841  -6.086  28.785  0.00  0.00    +0.174 C 
BRANCH  47  48
ATOM     48  O   UNL     1       4.190  -7.476  28.794  0.00  0.00    -0.387 OA
ATOM     49  H   UNL     1       3.854  -7.856  29.634  0.00  0.00    +0.210 HD
ENDBRANCH  47  48
BRANCH  45  50
ATOM     50  O   UNL     1       5.945  -6.761  26.866  0.00  0.00    -0.384 OA
ATOM     51  H   UNL     1       5.346  -7.337  27.382  0.00  0.00    +0.210 HD
ENDBRANCH  45  50
BRANCH  46  52
ATOM     52  O   UNL     1       3.118  -6.197  26.412  0.00  0.00    -0.340 OA
BRANCH  52  53
ATOM     53  C   UNL     1       3.314  -5.870  25.025  0.00  0.00    +0.282 C 
ATOM     54  O   UNL     1       2.759  -4.544  24.817  0.00  0.00    -0.341 OA
ATOM     55  C   UNL     1       1.364  -4.538  25.160  0.00  0.00    +0.178 C 
ATOM     56  C   UNL     1       0.640  -5.483  24.183  0.00  0.00    +0.177 C 
ATOM     57  C   UNL     1       1.161  -6.912  24.184  0.00  0.00    +0.179 C 
ATOM     58  C   UNL     1       2.674  -6.899  24.035  0.00  0.00    +0.201 C 
BRANCH  58  59
ATOM     59  O   UNL     1       3.160  -8.247  24.154  0.00  0.00    -0.384 OA
ATOM     60  H   UNL     1       3.718  -8.405  23.366  0.00  0.00    +0.210 HD
ENDBRANCH  58  59
BRANCH  57  61
ATOM     61  O   UNL     1       0.757  -7.704  25.308  0.00  0.00    -0.386 OA
ATOM     62  H   UNL     1      -0.102  -7.378  25.648  0.00  0.00    +0.210 HD
ENDBRANCH  57  61
BRANCH  56  63
ATOM     63  O   UNL     1       0.671  -4.984  22.846  0.00  0.00    -0.386 OA
ATOM     64  H   UNL     1       1.485  -4.452  22.768  0.00  0.00    +0.210 HD
ENDBRANCH  56  63
BRANCH  55  65
ATOM     65  C   UNL     1       0.693  -3.139  25.219  0.00  0.00    +0.190 C 
BRANCH  65  66
ATOM     66  O   UNL     1       1.448  -2.174  25.951  0.00  0.00    -0.392 OA
ATOM     67  H   UNL     1       1.171  -2.226  26.882  0.00  0.00    +0.210 HD
ENDBRANCH  65  66
ENDBRANCH  55  65
ENDBRANCH  52  53
ENDBRANCH  46  52
ENDBRANCH  40  44
ENDBRANCH  39  40
ENDBRANCH   1  39
TORSDOF 22
ENDMDL
MODEL 8
REMARK VINA RESULT:      -7.8      2.560      3.518
REMARK  Name = 
REMARK  23 active torsions:
REMARK  status: ('A' for Active; 'I' for Inactive)
REMARK    1  A    between atoms: C_1  and  C_2
REMARK    2  A    between atoms: C_3  and  O_62
REMARK    3  A    between atoms: C_5  and  O_47
REMARK    4  A    between atoms: C_7  and  O_46
REMARK    5  A    between atoms: C_8  and  O_11
REMARK    6  A    between atoms: O_11  and  C_12
REMARK    7  A    between atoms: C_12  and  C_13
REMARK    8  A    between atoms: C_14  and  O_45
REMARK    9  A    between atoms: C_16  and  O_44
REMARK   10  A    between atoms: C_17  and  O_43
REMARK   11  A    between atoms: C_18  and  O_21
REMARK   12  A    between atoms: O_21  and  C_22
REMARK   13  A    between atoms: C_23  and  C_35
REMARK   14  A    between atoms: C_27  and  O_34
REMARK   15  A    between atoms: C_29  and  O_33
REMARK   16  A    between atoms: C_37  and  O_42
REMARK   17  A    between atoms: C_38  and  O_41
REMARK   18  A    between atoms: O_47  and  C_48
REMARK   19  A    between atoms: C_50  and  O_61
REMARK   20  A    between atoms: C_51  and  O_60
REMARK   21  A    between atoms: C_53  and  O_59
REMARK   22  A    between atoms: C_55  and  C_57
REMARK   23  A    between atoms: C_57  and  O_58
REMARK                            x       y       z     vdW  Elec       q    Type
REMARK                         _______ _______ _______ _____ _____    ______ ____
ROOT
ATOM      1  C   UNL     1      10.137  -0.894  24.034  0.00  0.00    +0.179 C 
ATOM      2  O   UNL     1       9.619   0.093  24.954  0.00  0.00    -0.331 OA
ATOM      3  C   UNL     1       8.426   0.804  24.575  0.00  0.00    +0.340 C 
ATOM      4  C   UNL     1       8.504   1.390  23.150  0.00  0.00    +0.214 C 
ATOM      5  C   UNL     1       8.827   0.254  22.180  0.00  0.00    +0.180 C 
ATOM      6  C   UNL     1      10.183  -0.359  22.574  0.00  0.00    +0.177 C 
ENDROOT
BRANCH   4   7
ATOM      7  O   UNL     1       9.526   2.401  23.009  0.00  0.00    -0.383 OA
ATOM      8  H   UNL     1       9.939   2.528  23.884  0.00  0.00    +0.210 HD
ENDBRANCH   4   7
BRANCH   6   9
ATOM      9  O   UNL     1      10.543  -1.384  21.650  0.00  0.00    -0.386 OA
ATOM     10  H   UNL     1      11.307  -1.068  21.135  0.00  0.00    +0.210 HD
ENDBRANCH   6   9
BRANCH   5  11
ATOM     11  O   UNL     1       8.849   0.768  20.843  0.00  0.00    -0.386 OA
ATOM     12  H   UNL     1       8.111   1.404  20.781  0.00  0.00    +0.210 HD
ENDBRANCH   5  11
BRANCH   3  13
ATOM     13  O   UNL     1       8.219   1.896  25.504  0.00  0.00    -0.453 OA
BRANCH  13  14
ATOM     14  C   UNL     1       6.980   2.142  26.044  0.00  0.00    +0.214 A 
ATOM     15  C   UNL     1       6.509   1.556  27.310  0.00  0.00    +0.238 A 
ATOM     16  O   UNL     1       7.238   0.956  28.085  0.00  0.00    -0.283 OA
ATOM     17  C   UNL     1       5.120   1.819  27.691  0.00  0.00    +0.109 A 
ATOM     18  C   UNL     1       4.443   2.920  27.199  0.00  0.00    +0.147 A 
ATOM     19  C   UNL     1       3.273   3.393  27.801  0.00  0.00    +0.092 A 
ATOM     20  C   UNL     1       2.768   2.683  28.879  0.00  0.00    +0.124 A 
ATOM     21  C   UNL     1       3.311   1.452  29.224  0.00  0.00    +0.091 A 
ATOM     22  O   UNL     1       4.946   3.563  26.125  0.00  0.00    -0.451 OA
ATOM     23  C   UNL     1       4.520   1.052  28.647  0.00  0.00    +0.135 A 
ATOM     24  C   UNL     1       6.139   3.108  25.597  0.00  0.00    +0.181 A 
BRANCH  24  25
ATOM     25  C   UNL     1       6.551   4.076  24.619  0.00  0.00    +0.025 A 
ATOM     26  C   UNL     1       6.002   3.881  23.351  0.00  0.00    +0.015 A 
ATOM     27  C   UNL     1       6.495   4.613  22.287  0.00  0.00    +0.050 A 
ATOM     28  C   UNL     1       7.488   5.557  22.549  0.00  0.00    +0.158 A 
ATOM     29  C   UNL     1       8.039   5.733  23.824  0.00  0.00    +0.159 A 
ATOM     30  C   UNL     1       7.610   4.943  24.872  0.00  0.00    +0.060 A 
BRANCH  29  31
ATOM     31  O   UNL     1       8.974   6.700  24.045  0.00  0.00    -0.503 OA
ATOM     32  H   UNL     1       9.011   7.293  23.274  0.00  0.00    +0.292 HD
ENDBRANCH  29  31
BRANCH  28  33
ATOM     33  O   UNL     1       7.862   6.381  21.524  0.00  0.00    -0.503 OA
ATOM     34  H   UNL     1       7.587   7.265  21.825  0.00  0.00    +0.292 HD
ENDBRANCH  28  33
ENDBRANCH  24  25
BRANCH  23  35
ATOM     35  O   UNL     1       5.175  -0.046  29.132  0.00  0.00    -0.506 OA
ATOM     36  H   UNL     1       6.044   0.249  29.500  0.00  0.00    +0.292 HD
ENDBRANCH  23  35
BRANCH  20  37
ATOM     37  O   UNL     1       1.772   3.153  29.679  0.00  0.00    -0.507 OA
ATOM     38  H   UNL     1       0.937   2.708  29.459  0.00  0.00    +0.292 HD
ENDBRANCH  20  37
ENDBRANCH  13  14
ENDBRANCH   3  13
BRANCH   1  39
ATOM     39  C   UNL     1       9.493  -2.318  24.110  0.00  0.00    +0.197 C 
BRANCH  39  40
ATOM     40  O   UNL     1       8.608  -2.671  23.047  0.00  0.00    -0.346 OA
BRANCH  40  44
ATOM     41  C   UNL     1       6.603  -6.084  21.339  0.00  0.00    +0.041 C 
ATOM     42  C   UNL     1       5.914  -4.797  21.795  0.00  0.00    +0.149 C 
ATOM     43  O   UNL     1       6.877  -3.738  21.966  0.00  0.00    -0.343 OA
ATOM     44  C   UNL     1       7.712  -3.781  23.145  0.00  0.00    +0.282 C 
ATOM     45  C   UNL     1       6.783  -3.807  24.379  0.00  0.00    +0.202 C 
ATOM     46  C   UNL     1       5.917  -5.081  24.277  0.00  0.00    +0.186 C 
ATOM     47  C   UNL     1       5.034  -5.038  23.029  0.00  0.00    +0.174 C 
BRANCH  47  48
ATOM     48  O   UNL     1       4.022  -4.028  23.135  0.00  0.00    -0.387 OA
ATOM     49  H   UNL     1       3.186  -4.415  22.798  0.00  0.00    +0.210 HD
ENDBRANCH  47  48
BRANCH  45  50
ATOM     50  O   UNL     1       5.942  -2.636  24.433  0.00  0.00    -0.384 OA
ATOM     51  H   UNL     1       5.032  -2.928  24.223  0.00  0.00    +0.210 HD
ENDBRANCH  45  50
BRANCH  46  52
ATOM     52  O   UNL     1       5.199  -5.249  25.498  0.00  0.00    -0.340 OA
BRANCH  52  53
ATOM     53  C   UNL     1       5.599  -6.326  26.363  0.00  0.00    +0.282 C 
ATOM     54  O   UNL     1       4.423  -7.146  26.596  0.00  0.00    -0.341 OA
ATOM     55  C   UNL     1       3.385  -6.354  27.197  0.00  0.00    +0.178 C 
ATOM     56  C   UNL     1       3.890  -5.896  28.578  0.00  0.00    +0.177 C 
ATOM     57  C   UNL     1       5.186  -5.101  28.545  0.00  0.00    +0.179 C 
ATOM     58  C   UNL     1       6.220  -5.852  27.720  0.00  0.00    +0.201 C 
BRANCH  58  59
ATOM     59  O   UNL     1       7.396  -5.035  27.601  0.00  0.00    -0.384 OA
ATOM     60  H   UNL     1       7.097  -4.183  27.221  0.00  0.00    +0.210 HD
ENDBRANCH  58  59
BRANCH  57  61
ATOM     61  O   UNL     1       5.054  -3.745  28.101  0.00  0.00    -0.386 OA
ATOM     62  H   UNL     1       4.142  -3.430  28.273  0.00  0.00    +0.210 HD
ENDBRANCH  57  61
BRANCH  56  63
ATOM     63  O   UNL     1       4.050  -6.997  29.473  0.00  0.00    -0.386 OA
ATOM     64  H   UNL     1       4.136  -7.795  28.919  0.00  0.00    +0.210 HD
ENDBRANCH  56  63
BRANCH  55  65
ATOM     65  C   UNL     1       1.990  -7.030  27.284  0.00  0.00    +0.190 C 
BRANCH  65  66
ATOM     66  O   UNL     1       1.970  -8.195  28.108  0.00  0.00    -0.392 OA
ATOM     67  H   UNL     1       2.849  -8.285  28.514  0.00  0.00    +0.210 HD
ENDBRANCH  65  66
ENDBRANCH  55  65
ENDBRANCH  52  53
ENDBRANCH  46  52
ENDBRANCH  40  44
ENDBRANCH  39  40
ENDBRANCH   1  39
TORSDOF 22
ENDMDL
MODEL 9
REMARK VINA RESULT:      -7.8      2.620      9.580
REMARK  Name = 
REMARK  23 active torsions:
REMARK  status: ('A' for Active; 'I' for Inactive)
REMARK    1  A    between atoms: C_1  and  C_2
REMARK    2  A    between atoms: C_3  and  O_62
REMARK    3  A    between atoms: C_5  and  O_47
REMARK    4  A    between atoms: C_7  and  O_46
REMARK    5  A    between atoms: C_8  and  O_11
REMARK    6  A    between atoms: O_11  and  C_12
REMARK    7  A    between atoms: C_12  and  C_13
REMARK    8  A    between atoms: C_14  and  O_45
REMARK    9  A    between atoms: C_16  and  O_44
REMARK   10  A    between atoms: C_17  and  O_43
REMARK   11  A    between atoms: C_18  and  O_21
REMARK   12  A    between atoms: O_21  and  C_22
REMARK   13  A    between atoms: C_23  and  C_35
REMARK   14  A    between atoms: C_27  and  O_34
REMARK   15  A    between atoms: C_29  and  O_33
REMARK   16  A    between atoms: C_37  and  O_42
REMARK   17  A    between atoms: C_38  and  O_41
REMARK   18  A    between atoms: O_47  and  C_48
REMARK   19  A    between atoms: C_50  and  O_61
REMARK   20  A    between atoms: C_51  and  O_60
REMARK   21  A    between atoms: C_53  and  O_59
REMARK   22  A    between atoms: C_55  and  C_57
REMARK   23  A    between atoms: C_57  and  O_58
REMARK                            x       y       z     vdW  Elec       q    Type
REMARK                         _______ _______ _______ _____ _____    ______ ____
ROOT
ATOM      1  C   UNL     1       6.691  -4.194  23.645  0.00  0.00    +0.179 C 
ATOM      2  O   UNL     1       6.274  -3.715  24.943  0.00  0.00    -0.331 OA
ATOM      3  C   UNL     1       7.295  -3.477  25.931  0.00  0.00    +0.340 C 
ATOM      4  C   UNL     1       8.268  -4.664  26.086  0.00  0.00    +0.214 C 
ATOM      5  C   UNL     1       8.861  -4.982  24.714  0.00  0.00    +0.180 C 
ATOM      6  C   UNL     1       7.715  -5.360  23.758  0.00  0.00    +0.177 C 
ENDROOT
BRANCH   4   7
ATOM      7  O   UNL     1       7.627  -5.860  26.583  0.00  0.00    -0.383 OA
ATOM      8  H   UNL     1       7.519  -6.472  25.831  0.00  0.00    +0.210 HD
ENDBRANCH   4   7
BRANCH   6   9
ATOM      9  O   UNL     1       8.241  -5.722  22.483  0.00  0.00    -0.386 OA
ATOM     10  H   UNL     1       7.540  -6.183  21.989  0.00  0.00    +0.210 HD
ENDBRANCH   6   9
BRANCH   5  11
ATOM     11  O   UNL     1       9.810  -6.047  24.846  0.00  0.00    -0.386 OA
ATOM     12  H   UNL     1       9.320  -6.875  24.680  0.00  0.00    +0.210 HD
ENDBRANCH   5  11
BRANCH   3  13
ATOM     13  O   UNL     1       6.659  -3.242  27.211  0.00  0.00    -0.453 OA
BRANCH  13  14
ATOM     14  C   UNL     1       5.596  -2.379  27.325  0.00  0.00    +0.214 A 
ATOM     15  C   UNL     1       5.691  -0.929  27.087  0.00  0.00    +0.238 A 
ATOM     16  O   UNL     1       6.667  -0.393  26.586  0.00  0.00    -0.283 OA
ATOM     17  C   UNL     1       4.497  -0.128  27.366  0.00  0.00    +0.109 A 
ATOM     18  C   UNL     1       3.238  -0.700  27.364  0.00  0.00    +0.147 A 
ATOM     19  C   UNL     1       2.079   0.075  27.269  0.00  0.00    +0.092 A 
ATOM     20  C   UNL     1       2.222   1.453  27.242  0.00  0.00    +0.124 A 
ATOM     21  C   UNL     1       3.462   2.033  27.481  0.00  0.00    +0.091 A 
ATOM     22  O   UNL     1       3.138  -2.044  27.429  0.00  0.00    -0.451 OA
ATOM     23  C   UNL     1       4.603   1.227  27.497  0.00  0.00    +0.135 A 
ATOM     24  C   UNL     1       4.306  -2.781  27.454  0.00  0.00    +0.181 A 
BRANCH  24  25
ATOM     25  C   UNL     1       3.926  -4.159  27.311  0.00  0.00    +0.025 A 
ATOM     26  C   UNL     1       2.953  -4.388  26.338  0.00  0.00    +0.015 A 
ATOM     27  C   UNL     1       2.356  -5.633  26.266  0.00  0.00    +0.050 A 
ATOM     28  C   UNL     1       2.802  -6.621  27.144  0.00  0.00    +0.158 A 
ATOM     29  C   UNL     1       3.770  -6.374  28.125  0.00  0.00    +0.159 A 
ATOM     30  C   UNL     1       4.306  -5.108  28.256  0.00  0.00    +0.060 A 
BRANCH  29  31
ATOM     31  O   UNL     1       4.210  -7.381  28.931  0.00  0.00    -0.503 OA
ATOM     32  H   UNL     1       3.800  -7.291  29.809  0.00  0.00    +0.292 HD
ENDBRANCH  29  31
BRANCH  28  33
ATOM     33  O   UNL     1       2.317  -7.888  26.968  0.00  0.00    -0.503 OA
ATOM     34  H   UNL     1       1.351  -7.765  26.945  0.00  0.00    +0.292 HD
ENDBRANCH  28  33
ENDBRANCH  24  25
BRANCH  23  35
ATOM     35  O   UNL     1       5.843   1.802  27.512  0.00  0.00    -0.506 OA
ATOM     36  H   UNL     1       6.304   1.570  26.668  0.00  0.00    +0.292 HD
ENDBRANCH  23  35
BRANCH  20  37
ATOM     37  O   UNL     1       1.203   2.302  26.937  0.00  0.00    -0.507 OA
ATOM     38  H   UNL     1       1.164   2.435  25.975  0.00  0.00    +0.292 HD
ENDBRANCH  20  37
ENDBRANCH  13  14
ENDBRANCH   3  13
BRANCH   1  39
ATOM     39  C   UNL     1       7.159  -3.107  22.623  0.00  0.00    +0.197 C 
BRANCH  39  40
ATOM     40  O   UNL     1       6.747  -1.766  22.889  0.00  0.00    -0.346 OA
BRANCH  40  44
ATOM     41  C   UNL     1      10.709  -0.245  23.648  0.00  0.00    +0.041 C 
ATOM     42  C   UNL     1       9.477   0.044  24.507  0.00  0.00    +0.149 C 
ATOM     43  O   UNL     1       8.418  -0.888  24.207  0.00  0.00    -0.343 OA
ATOM     44  C   UNL     1       7.684  -0.689  22.979  0.00  0.00    +0.282 C 
ATOM     45  C   UNL     1       7.091   0.737  23.012  0.00  0.00    +0.202 C 
ATOM     46  C   UNL     1       8.272   1.725  23.106  0.00  0.00    +0.186 C 
ATOM     47  C   UNL     1       9.052   1.515  24.405  0.00  0.00    +0.174 C 
BRANCH  47  48
ATOM     48  O   UNL     1       8.281   1.901  25.550  0.00  0.00    -0.387 OA
ATOM     49  H   UNL     1       8.663   2.738  25.891  0.00  0.00    +0.210 HD
ENDBRANCH  47  48
BRANCH  45  50
ATOM     50  O   UNL     1       6.201   0.915  24.133  0.00  0.00    -0.384 OA
ATOM     51  H   UNL     1       6.022   0.026  24.499  0.00  0.00    +0.210 HD
ENDBRANCH  45  50
BRANCH  46  52
ATOM     52  O   UNL     1       7.780   3.052  22.926  0.00  0.00    -0.340 OA
BRANCH  52  53
ATOM     53  C   UNL     1       7.743   3.910  24.080  0.00  0.00    +0.282 C 
ATOM     54  O   UNL     1       6.412   3.801  24.650  0.00  0.00    -0.341 OA
ATOM     55  C   UNL     1       5.428   4.192  23.679  0.00  0.00    +0.178 C 
ATOM     56  C   UNL     1       5.656   5.682  23.361  0.00  0.00    +0.177 C 
ATOM     57  C   UNL     1       7.047   6.012  22.842  0.00  0.00    +0.179 C 
ATOM     58  C   UNL     1       8.089   5.405  23.768  0.00  0.00    +0.201 C 
BRANCH  58  59
ATOM     59  O   UNL     1       9.392   5.626  23.203  0.00  0.00    -0.384 OA
ATOM     60  H   UNL     1       9.793   6.353  23.722  0.00  0.00    +0.210 HD
ENDBRANCH  58  59
BRANCH  57  61
ATOM     61  O   UNL     1       7.288   5.645  21.478  0.00  0.00    -0.386 OA
ATOM     62  H   UNL     1       7.065   6.396  20.891  0.00  0.00    +0.210 HD
ENDBRANCH  57  61
BRANCH  56  63
ATOM     63  O   UNL     1       5.377   6.510  24.489  0.00  0.00    -0.386 OA
ATOM     64  H   UNL     1       4.819   5.982  25.090  0.00  0.00    +0.210 HD
ENDBRANCH  56  63
BRANCH  55  65
ATOM     65  C   UNL     1       3.952   3.898  24.061  0.00  0.00    +0.190 C 
BRANCH  65  66
ATOM     66  O   UNL     1       3.596   2.521  23.946  0.00  0.00    -0.392 OA
ATOM     67  H   UNL     1       3.028   2.427  23.162  0.00  0.00    +0.210 HD
ENDBRANCH  65  66
ENDBRANCH  55  65
ENDBRANCH  52  53
ENDBRANCH  46  52
ENDBRANCH  40  44
ENDBRANCH  39  40
ENDBRANCH   1  39
TORSDOF 22
ENDMDL
