MODEL 1
REMARK VINA RESULT:      -6.6      0.000      0.000
REMARK  Name = 
REMARK  27 active torsions:
REMARK  status: ('A' for Active; 'I' for Inactive)
REMARK    1  A    between atoms: C_2  and  O_73
REMARK    2  A    between atoms: C_4  and  O_72
REMARK    3  A    between atoms: C_5  and  O_59
REMARK    4  A    between atoms: C_6  and  O_9
REMARK    5  A    between atoms: O_9  and  C_10
REMARK    6  A    between atoms: C_11  and  O_58
REMARK    7  A    between atoms: C_13  and  O_57
REMARK    8  A    between atoms: C_15  and  C_55
REMARK    9  A    between atoms: C_17  and  O_19
REMARK   10  A    between atoms: O_19  and  C_20
REMARK   11  A    between atoms: C_21  and  C_47
REMARK   12  A    between atoms: C_25  and  O_32
REMARK   13  A    between atoms: C_27  and  O_31
REMARK   14  A    between atoms: O_32  and  C_33
REMARK   15  A    between atoms: C_35  and  O_46
REMARK   16  A    between atoms: C_36  and  O_45
REMARK   17  A    between atoms: C_37  and  O_44
REMARK   18  A    between atoms: C_39  and  C_42
REMARK   19  A    between atoms: C_42  and  O_43
REMARK   20  A    between atoms: C_49  and  O_54
REMARK   21  A    between atoms: C_50  and  O_53
REMARK   22  A    between atoms: C_55  and  O_56
REMARK   23  A    between atoms: O_59  and  C_60
REMARK   24  A    between atoms: C_60  and  C_62
REMARK   25  A    between atoms: C_63  and  C_64
REMARK   26  A    between atoms: C_66  and  O_71
REMARK   27  A    between atoms: C_67  and  O_70
REMARK                            x       y       z     vdW  Elec       q    Type
REMARK                         _______ _______ _______ _____ _____    ______ ____
ROOT
ATOM      1  O   UNL     1       6.964   3.086  25.700  0.00  0.00    -0.453 OA
ENDROOT
BRANCH   1   2
ATOM      2  C   UNL     1       6.507   1.758  25.658  0.00  0.00    +0.214 A 
ATOM      3  C   UNL     1       7.396   0.567  25.996  0.00  0.00    +0.238 A 
ATOM      4  O   UNL     1       8.602   0.681  26.178  0.00  0.00    -0.283 OA
ATOM      5  C   UNL     1       6.783  -0.785  25.987  0.00  0.00    +0.109 A 
ATOM      6  C   UNL     1       5.480  -0.880  25.551  0.00  0.00    +0.147 A 
ATOM      7  C   UNL     1       4.842  -2.118  25.408  0.00  0.00    +0.093 A 
ATOM      8  C   UNL     1       5.518  -3.305  25.680  0.00  0.00    +0.131 A 
ATOM      9  C   UNL     1       6.821  -3.222  26.178  0.00  0.00    +0.092 A 
ATOM     10  O   UNL     1       4.726   0.195  25.195  0.00  0.00    -0.451 OA
ATOM     11  C   UNL     1       7.444  -1.970  26.344  0.00  0.00    +0.135 A 
ATOM     12  C   UNL     1       5.250   1.480  25.240  0.00  0.00    +0.181 A 
BRANCH  12  13
ATOM     13  C   UNL     1       4.251   2.434  24.669  0.00  0.00    +0.025 A 
ATOM     14  C   UNL     1       3.030   2.631  25.370  0.00  0.00    +0.015 A 
ATOM     15  C   UNL     1       1.938   3.271  24.777  0.00  0.00    +0.050 A 
ATOM     16  C   UNL     1       2.055   3.725  23.483  0.00  0.00    +0.158 A 
ATOM     17  C   UNL     1       3.255   3.590  22.788  0.00  0.00    +0.159 A 
ATOM     18  C   UNL     1       4.354   2.951  23.371  0.00  0.00    +0.060 A 
BRANCH  16  19
ATOM     19  O   UNL     1       0.975   4.284  22.862  0.00  0.00    -0.503 OA
ATOM     20  H   UNL     1       1.362   4.848  22.167  0.00  0.00    +0.292 HD
ENDBRANCH  16  19
BRANCH  17  21
ATOM     21  O   UNL     1       3.289   4.046  21.493  0.00  0.00    -0.503 OA
ATOM     22  H   UNL     1       3.402   3.270  20.918  0.00  0.00    +0.292 HD
ENDBRANCH  17  21
ENDBRANCH  12  13
BRANCH  11  23
ATOM     23  O   UNL     1       8.708  -1.929  26.865  0.00  0.00    -0.506 OA
ATOM     24  H   UNL     1       9.255  -1.287  26.386  0.00  0.00    +0.292 HD
ENDBRANCH  11  23
BRANCH   8  25
ATOM     25  O   UNL     1       4.996  -4.568  25.502  0.00  0.00    -0.461 OA
BRANCH  25  26
ATOM     26  C   UNL     1       3.556  -4.665  25.457  0.00  0.00    +0.339 C 
ATOM     27  O   UNL     1       3.001  -5.159  26.674  0.00  0.00    -0.331 OA
ATOM     28  C   UNL     1       3.413  -6.500  26.996  0.00  0.00    +0.179 C 
ATOM     29  C   UNL     1       3.008  -7.495  25.896  0.00  0.00    +0.177 C 
ATOM     30  C   UNL     1       3.457  -7.011  24.517  0.00  0.00    +0.180 C 
ATOM     31  C   UNL     1       3.057  -5.549  24.292  0.00  0.00    +0.214 C 
BRANCH  31  32
ATOM     32  O   UNL     1       3.530  -5.147  22.998  0.00  0.00    -0.383 OA
ATOM     33  H   UNL     1       4.300  -4.564  23.125  0.00  0.00    +0.210 HD
ENDBRANCH  31  32
BRANCH  30  34
ATOM     34  O   UNL     1       2.819  -7.848  23.530  0.00  0.00    -0.386 OA
ATOM     35  H   UNL     1       2.681  -8.714  23.965  0.00  0.00    +0.210 HD
ENDBRANCH  30  34
BRANCH  29  36
ATOM     36  O   UNL     1       1.582  -7.665  25.867  0.00  0.00    -0.386 OA
ATOM     37  H   UNL     1       1.446  -8.605  25.624  0.00  0.00    +0.210 HD
ENDBRANCH  29  36
BRANCH  28  38
ATOM     38  C   UNL     1       2.776  -6.871  28.342  0.00  0.00    +0.190 C 
BRANCH  38  39
ATOM     39  O   UNL     1       3.656  -7.657  29.149  0.00  0.00    -0.392 OA
ATOM     40  H   UNL     1       3.905  -7.131  29.926  0.00  0.00    +0.210 HD
ENDBRANCH  38  39
ENDBRANCH  28  38
ENDBRANCH  25  26
ENDBRANCH   8  25
ENDBRANCH   1   2
BRANCH   1  42
ATOM     41  C   UNL     1       7.641   4.939  27.175  0.00  0.00    +0.221 C 
ATOM     42  C   UNL     1       6.524   3.926  26.781  0.00  0.00    +0.340 C 
ATOM     43  O   UNL     1       5.321   4.660  26.448  0.00  0.00    -0.331 OA
ATOM     44  C   UNL     1       4.793   5.424  27.564  0.00  0.00    +0.179 C 
ATOM     45  C   UNL     1       5.845   6.415  28.103  0.00  0.00    +0.177 C 
ATOM     46  C   UNL     1       7.134   5.655  28.439  0.00  0.00    +0.180 C 
BRANCH  46  47
ATOM     47  O   UNL     1       8.099   6.545  29.027  0.00  0.00    -0.386 OA
ATOM     48  H   UNL     1       8.941   6.054  29.081  0.00  0.00    +0.210 HD
ENDBRANCH  46  47
BRANCH  45  49
ATOM     49  O   UNL     1       5.384   7.108  29.264  0.00  0.00    -0.386 OA
ATOM     50  H   UNL     1       4.738   6.505  29.685  0.00  0.00    +0.210 HD
ENDBRANCH  45  49
BRANCH  44  51
ATOM     51  C   UNL     1       4.208   4.537  28.694  0.00  0.00    +0.190 C 
BRANCH  51  52
ATOM     52  O   UNL     1       3.071   5.135  29.308  0.00  0.00    -0.392 OA
ATOM     53  H   UNL     1       3.119   4.946  30.259  0.00  0.00    +0.210 HD
ENDBRANCH  51  52
ENDBRANCH  44  51
BRANCH  41  54
ATOM     54  O   UNL     1       7.936   5.832  26.054  0.00  0.00    -0.336 OA
BRANCH  54  57
ATOM     55  C   UNL     1      11.247   7.043  25.176  0.00  0.00    +0.197 C 
ATOM     56  O   UNL     1       9.819   7.106  25.327  0.00  0.00    -0.345 OA
ATOM     57  C   UNL     1       9.297   5.790  25.608  0.00  0.00    +0.294 C 
ATOM     58  C   UNL     1       9.493   4.918  24.356  0.00  0.00    +0.263 C 
ATOM     59  C   UNL     1      10.994   4.746  24.144  0.00  0.00    +0.191 C 
ATOM     60  C   UNL     1      11.690   6.111  24.035  0.00  0.00    +0.172 C 
BRANCH  60  61
ATOM     61  O   UNL     1      13.105   5.906  24.079  0.00  0.00    -0.387 OA
ATOM     62  H   UNL     1      13.281   5.037  24.477  0.00  0.00    +0.210 HD
ENDBRANCH  60  61
BRANCH  59  63
ATOM     63  O   UNL     1      11.220   3.929  22.989  0.00  0.00    -0.385 OA
ATOM     64  H   UNL     1      10.629   3.159  23.047  0.00  0.00    +0.210 HD
ENDBRANCH  59  63
BRANCH  58  65
ATOM     65  O   UNL     1       8.944   5.598  23.192  0.00  0.00    -0.450 OA
BRANCH  65  66
ATOM     66  C   UNL     1       7.891   5.014  22.577  0.00  0.00    +0.332 C 
ATOM     67  O   UNL     1       7.023   5.573  21.930  0.00  0.00    -0.246 OA
BRANCH  66  68
ATOM     68  C   UNL     1       7.946   3.566  22.872  0.00  0.00    +0.092 C 
ATOM     69  C   UNL     1       8.190   2.688  21.887  0.00  0.00    +0.015 C 
BRANCH  69  70
ATOM     70  C   UNL     1       8.260   1.225  22.050  0.00  0.00    -0.021 A 
ATOM     71  C   UNL     1       7.074   0.534  22.361  0.00  0.00    +0.012 A 
ATOM     72  C   UNL     1       7.066  -0.858  22.495  0.00  0.00    +0.050 A 
ATOM     73  C   UNL     1       8.243  -1.561  22.301  0.00  0.00    +0.158 A 
ATOM     74  C   UNL     1       9.421  -0.898  21.981  0.00  0.00    +0.159 A 
ATOM     75  C   UNL     1       9.439   0.490  21.854  0.00  0.00    +0.057 A 
BRANCH  74  76
ATOM     76  O   UNL     1      10.543  -1.656  21.788  0.00  0.00    -0.503 OA
ATOM     77  H   UNL     1      10.684  -2.185  22.592  0.00  0.00    +0.292 HD
ENDBRANCH  74  76
BRANCH  73  78
ATOM     78  O   UNL     1       8.233  -2.923  22.407  0.00  0.00    -0.503 OA
ATOM     79  H   UNL     1       9.137  -3.192  22.148  0.00  0.00    +0.292 HD
ENDBRANCH  73  78
ENDBRANCH  69  70
ENDBRANCH  66  68
ENDBRANCH  65  66
ENDBRANCH  58  65
ENDBRANCH  54  57
ENDBRANCH  41  54
ENDBRANCH   1  42
TORSDOF 27
ENDMDL
MODEL 2
REMARK VINA RESULT:      -5.6      1.143      2.108
REMARK  Name = 
REMARK  27 active torsions:
REMARK  status: ('A' for Active; 'I' for Inactive)
REMARK    1  A    between atoms: C_2  and  O_73
REMARK    2  A    between atoms: C_4  and  O_72
REMARK    3  A    between atoms: C_5  and  O_59
REMARK    4  A    between atoms: C_6  and  O_9
REMARK    5  A    between atoms: O_9  and  C_10
REMARK    6  A    between atoms: C_11  and  O_58
REMARK    7  A    between atoms: C_13  and  O_57
REMARK    8  A    between atoms: C_15  and  C_55
REMARK    9  A    between atoms: C_17  and  O_19
REMARK   10  A    between atoms: O_19  and  C_20
REMARK   11  A    between atoms: C_21  and  C_47
REMARK   12  A    between atoms: C_25  and  O_32
REMARK   13  A    between atoms: C_27  and  O_31
REMARK   14  A    between atoms: O_32  and  C_33
REMARK   15  A    between atoms: C_35  and  O_46
REMARK   16  A    between atoms: C_36  and  O_45
REMARK   17  A    between atoms: C_37  and  O_44
REMARK   18  A    between atoms: C_39  and  C_42
REMARK   19  A    between atoms: C_42  and  O_43
REMARK   20  A    between atoms: C_49  and  O_54
REMARK   21  A    between atoms: C_50  and  O_53
REMARK   22  A    between atoms: C_55  and  O_56
REMARK   23  A    between atoms: O_59  and  C_60
REMARK   24  A    between atoms: C_60  and  C_62
REMARK   25  A    between atoms: C_63  and  C_64
REMARK   26  A    between atoms: C_66  and  O_71
REMARK   27  A    between atoms: C_67  and  O_70
REMARK                            x       y       z     vdW  Elec       q    Type
REMARK                         _______ _______ _______ _____ _____    ______ ____
ROOT
ATOM      1  O   UNL     1       6.172   2.917  25.999  0.00  0.00    -0.453 OA
ENDROOT
BRANCH   1   2
ATOM      2  C   UNL     1       5.731   1.592  26.154  0.00  0.00    +0.214 A 
ATOM      3  C   UNL     1       6.687   0.407  26.244  0.00  0.00    +0.238 A 
ATOM      4  O   UNL     1       7.889   0.519  26.035  0.00  0.00    -0.283 OA
ATOM      5  C   UNL     1       6.108  -0.939  26.480  0.00  0.00    +0.109 A 
ATOM      6  C   UNL     1       4.735  -1.041  26.478  0.00  0.00    +0.147 A 
ATOM      7  C   UNL     1       4.090  -2.278  26.591  0.00  0.00    +0.093 A 
ATOM      8  C   UNL     1       4.822  -3.459  26.684  0.00  0.00    +0.131 A 
ATOM      9  C   UNL     1       6.216  -3.367  26.745  0.00  0.00    +0.092 A 
ATOM     10  O   UNL     1       3.902   0.026  26.334  0.00  0.00    -0.451 OA
ATOM     11  C   UNL     1       6.854  -2.114  26.659  0.00  0.00    +0.135 A 
ATOM     12  C   UNL     1       4.408   1.307  26.163  0.00  0.00    +0.181 A 
BRANCH  12  13
ATOM     13  C   UNL     1       3.276   2.247  25.896  0.00  0.00    +0.025 A 
ATOM     14  C   UNL     1       3.287   2.987  24.682  0.00  0.00    +0.015 A 
ATOM     15  C   UNL     1       2.440   4.080  24.481  0.00  0.00    +0.050 A 
ATOM     16  C   UNL     1       1.569   4.440  25.485  0.00  0.00    +0.158 A 
ATOM     17  C   UNL     1       1.501   3.704  26.666  0.00  0.00    +0.159 A 
ATOM     18  C   UNL     1       2.345   2.609  26.878  0.00  0.00    +0.060 A 
BRANCH  16  19
ATOM     19  O   UNL     1       0.788   5.550  25.336  0.00  0.00    -0.503 OA
ATOM     20  H   UNL     1       0.983   6.089  26.125  0.00  0.00    +0.292 HD
ENDBRANCH  16  19
BRANCH  17  21
ATOM     21  O   UNL     1       0.626   4.137  27.631  0.00  0.00    -0.503 OA
ATOM     22  H   UNL     1       0.902   3.735  28.472  0.00  0.00    +0.292 HD
ENDBRANCH  17  21
ENDBRANCH  12  13
BRANCH  11  23
ATOM     23  O   UNL     1       8.217  -2.064  26.756  0.00  0.00    -0.506 OA
ATOM     24  H   UNL     1       8.562  -2.885  27.142  0.00  0.00    +0.292 HD
ENDBRANCH  11  23
BRANCH   8  25
ATOM     25  O   UNL     1       4.276  -4.724  26.728  0.00  0.00    -0.461 OA
BRANCH  25  26
ATOM     26  C   UNL     1       4.730  -5.652  25.719  0.00  0.00    +0.339 C 
ATOM     27  O   UNL     1       4.207  -5.355  24.425  0.00  0.00    -0.331 OA
ATOM     28  C   UNL     1       2.774  -5.453  24.345  0.00  0.00    +0.179 C 
ATOM     29  C   UNL     1       2.283  -6.865  24.700  0.00  0.00    +0.177 C 
ATOM     30  C   UNL     1       2.873  -7.340  26.028  0.00  0.00    +0.180 C 
ATOM     31  C   UNL     1       4.388  -7.118  26.065  0.00  0.00    +0.214 C 
BRANCH  31  32
ATOM     32  O   UNL     1       4.877  -7.555  27.342  0.00  0.00    -0.383 OA
ATOM     33  H   UNL     1       4.179  -7.397  28.003  0.00  0.00    +0.210 HD
ENDBRANCH  31  32
BRANCH  30  34
ATOM     34  O   UNL     1       2.584  -8.748  26.158  0.00  0.00    -0.386 OA
ATOM     35  H   UNL     1       3.364  -9.141  26.599  0.00  0.00    +0.210 HD
ENDBRANCH  30  34
BRANCH  29  36
ATOM     36  O   UNL     1       2.663  -7.805  23.682  0.00  0.00    -0.386 OA
ATOM     37  H   UNL     1       2.645  -8.678  24.127  0.00  0.00    +0.210 HD
ENDBRANCH  29  36
BRANCH  28  38
ATOM     38  C   UNL     1       2.362  -5.065  22.918  0.00  0.00    +0.190 C 
BRANCH  38  39
ATOM     39  O   UNL     1       1.093  -5.617  22.562  0.00  0.00    -0.392 OA
ATOM     40  H   UNL     1       0.411  -4.948  22.737  0.00  0.00    +0.210 HD
ENDBRANCH  38  39
ENDBRANCH  28  38
ENDBRANCH  25  26
ENDBRANCH   8  25
ENDBRANCH   1   2
BRANCH   1  42
ATOM     41  C   UNL     1       7.360   4.674  27.250  0.00  0.00    +0.221 C 
ATOM     42  C   UNL     1       6.073   3.806  27.125  0.00  0.00    +0.340 C 
ATOM     43  O   UNL     1       4.924   4.681  27.029  0.00  0.00    -0.331 OA
ATOM     44  C   UNL     1       4.736   5.506  28.210  0.00  0.00    +0.179 C 
ATOM     45  C   UNL     1       5.989   6.361  28.490  0.00  0.00    +0.177 C 
ATOM     46  C   UNL     1       7.220   5.450  28.571  0.00  0.00    +0.180 C 
BRANCH  46  47
ATOM     47  O   UNL     1       8.385   6.216  28.920  0.00  0.00    -0.386 OA
ATOM     48  H   UNL     1       8.134   7.158  28.859  0.00  0.00    +0.210 HD
ENDBRANCH  46  47
BRANCH  45  49
ATOM     49  O   UNL     1       5.869   7.108  29.702  0.00  0.00    -0.386 OA
ATOM     50  H   UNL     1       5.753   6.438  30.407  0.00  0.00    +0.210 HD
ENDBRANCH  45  49
BRANCH  44  51
ATOM     51  C   UNL     1       4.300   4.699  29.460  0.00  0.00    +0.190 C 
BRANCH  51  52
ATOM     52  O   UNL     1       2.893   4.760  29.669  0.00  0.00    -0.392 OA
ATOM     53  H   UNL     1       2.555   3.849  29.656  0.00  0.00    +0.210 HD
ENDBRANCH  51  52
ENDBRANCH  44  51
BRANCH  41  54
ATOM     54  O   UNL     1       7.519   5.523  26.067  0.00  0.00    -0.336 OA
BRANCH  54  57
ATOM     55  C   UNL     1      10.631   6.952  24.857  0.00  0.00    +0.197 C 
ATOM     56  O   UNL     1       9.213   6.887  25.086  0.00  0.00    -0.345 OA
ATOM     57  C   UNL     1       8.852   5.567  25.546  0.00  0.00    +0.294 C 
ATOM     58  C   UNL     1       9.080   4.577  24.391  0.00  0.00    +0.263 C 
ATOM     59  C   UNL     1      10.579   4.535  24.108  0.00  0.00    +0.191 C 
ATOM     60  C   UNL     1      11.116   5.942  23.803  0.00  0.00    +0.172 C 
BRANCH  60  61
ATOM     61  O   UNL     1      12.545   5.889  23.783  0.00  0.00    -0.387 OA
ATOM     62  H   UNL     1      12.826   5.372  23.010  0.00  0.00    +0.210 HD
ENDBRANCH  60  61
BRANCH  59  63
ATOM     63  O   UNL     1      10.835   3.614  23.041  0.00  0.00    -0.385 OA
ATOM     64  H   UNL     1      10.724   2.713  23.391  0.00  0.00    +0.210 HD
ENDBRANCH  59  63
BRANCH  58  65
ATOM     65  O   UNL     1       8.404   5.054  23.194  0.00  0.00    -0.450 OA
BRANCH  65  66
ATOM     66  C   UNL     1       7.407   4.285  22.701  0.00  0.00    +0.332 C 
ATOM     67  O   UNL     1       6.289   4.654  22.389  0.00  0.00    -0.246 OA
BRANCH  66  68
ATOM     68  C   UNL     1       7.898   2.891  22.653  0.00  0.00    +0.092 C 
ATOM     69  C   UNL     1       7.027   1.871  22.645  0.00  0.00    +0.015 C 
BRANCH  69  70
ATOM     70  C   UNL     1       7.390   0.443  22.609  0.00  0.00    -0.021 A 
ATOM     71  C   UNL     1       6.397  -0.503  22.920  0.00  0.00    +0.012 A 
ATOM     72  C   UNL     1       6.667  -1.874  22.870  0.00  0.00    +0.050 A 
ATOM     73  C   UNL     1       7.929  -2.300  22.495  0.00  0.00    +0.158 A 
ATOM     74  C   UNL     1       8.920  -1.381  22.172  0.00  0.00    +0.159 A 
ATOM     75  C   UNL     1       8.661  -0.013  22.227  0.00  0.00    +0.057 A 
BRANCH  74  76
ATOM     76  O   UNL     1      10.140  -1.871  21.794  0.00  0.00    -0.503 OA
ATOM     77  H   UNL     1      10.108  -2.840  21.874  0.00  0.00    +0.292 HD
ENDBRANCH  74  76
BRANCH  73  78
ATOM     78  O   UNL     1       8.189  -3.639  22.421  0.00  0.00    -0.503 OA
ATOM     79  H   UNL     1       7.547  -4.043  23.038  0.00  0.00    +0.292 HD
ENDBRANCH  73  78
ENDBRANCH  69  70
ENDBRANCH  66  68
ENDBRANCH  65  66
ENDBRANCH  58  65
ENDBRANCH  54  57
ENDBRANCH  41  54
ENDBRANCH   1  42
TORSDOF 27
ENDMDL
MODEL 3
REMARK VINA RESULT:      -4.9      1.942      5.920
REMARK  Name = 
REMARK  27 active torsions:
REMARK  status: ('A' for Active; 'I' for Inactive)
REMARK    1  A    between atoms: C_2  and  O_73
REMARK    2  A    between atoms: C_4  and  O_72
REMARK    3  A    between atoms: C_5  and  O_59
REMARK    4  A    between atoms: C_6  and  O_9
REMARK    5  A    between atoms: O_9  and  C_10
REMARK    6  A    between atoms: C_11  and  O_58
REMARK    7  A    between atoms: C_13  and  O_57
REMARK    8  A    between atoms: C_15  and  C_55
REMARK    9  A    between atoms: C_17  and  O_19
REMARK   10  A    between atoms: O_19  and  C_20
REMARK   11  A    between atoms: C_21  and  C_47
REMARK   12  A    between atoms: C_25  and  O_32
REMARK   13  A    between atoms: C_27  and  O_31
REMARK   14  A    between atoms: O_32  and  C_33
REMARK   15  A    between atoms: C_35  and  O_46
REMARK   16  A    between atoms: C_36  and  O_45
REMARK   17  A    between atoms: C_37  and  O_44
REMARK   18  A    between atoms: C_39  and  C_42
REMARK   19  A    between atoms: C_42  and  O_43
REMARK   20  A    between atoms: C_49  and  O_54
REMARK   21  A    between atoms: C_50  and  O_53
REMARK   22  A    between atoms: C_55  and  O_56
REMARK   23  A    between atoms: O_59  and  C_60
REMARK   24  A    between atoms: C_60  and  C_62
REMARK   25  A    between atoms: C_63  and  C_64
REMARK   26  A    between atoms: C_66  and  O_71
REMARK   27  A    between atoms: C_67  and  O_70
REMARK                            x       y       z     vdW  Elec       q    Type
REMARK                         _______ _______ _______ _____ _____    ______ ____
ROOT
ATOM      1  O   UNL     1       6.318   2.482  25.704  0.00  0.00    -0.453 OA
ENDROOT
BRANCH   1   2
ATOM      2  C   UNL     1       5.914   1.238  26.219  0.00  0.00    +0.214 A 
ATOM      3  C   UNL     1       5.027   1.103  27.452  0.00  0.00    +0.238 A 
ATOM      4  O   UNL     1       4.737   2.061  28.158  0.00  0.00    -0.283 OA
ATOM      5  C   UNL     1       4.605  -0.261  27.859  0.00  0.00    +0.109 A 
ATOM      6  C   UNL     1       5.147  -1.320  27.166  0.00  0.00    +0.147 A 
ATOM      7  C   UNL     1       4.894  -2.646  27.535  0.00  0.00    +0.093 A 
ATOM      8  C   UNL     1       4.099  -2.940  28.640  0.00  0.00    +0.131 A 
ATOM      9  C   UNL     1       3.495  -1.878  29.319  0.00  0.00    +0.092 A 
ATOM     10  O   UNL     1       5.987  -1.172  26.106  0.00  0.00    -0.451 OA
ATOM     11  C   UNL     1       3.735  -0.548  28.922  0.00  0.00    +0.135 A 
ATOM     12  C   UNL     1       6.363   0.089  25.663  0.00  0.00    +0.181 A 
BRANCH  12  13
ATOM     13  C   UNL     1       7.387  -0.058  24.584  0.00  0.00    +0.025 A 
ATOM     14  C   UNL     1       7.011  -0.721  23.384  0.00  0.00    +0.015 A 
ATOM     15  C   UNL     1       7.962  -1.151  22.455  0.00  0.00    +0.050 A 
ATOM     16  C   UNL     1       9.295  -0.919  22.710  0.00  0.00    +0.158 A 
ATOM     17  C   UNL     1       9.690  -0.229  23.854  0.00  0.00    +0.159 A 
ATOM     18  C   UNL     1       8.748   0.205  24.791  0.00  0.00    +0.060 A 
BRANCH  16  19
ATOM     19  O   UNL     1      10.241  -1.400  21.851  0.00  0.00    -0.503 OA
ATOM     20  H   UNL     1       9.810  -1.368  20.977  0.00  0.00    +0.292 HD
ENDBRANCH  16  19
BRANCH  17  21
ATOM     21  O   UNL     1      11.038  -0.056  24.053  0.00  0.00    -0.503 OA
ATOM     22  H   UNL     1      11.330   0.646  23.447  0.00  0.00    +0.292 HD
ENDBRANCH  17  21
ENDBRANCH  12  13
BRANCH  11  23
ATOM     23  O   UNL     1       3.099   0.461  29.592  0.00  0.00    -0.506 OA
ATOM     24  H   UNL     1       2.937   0.210  30.515  0.00  0.00    +0.292 HD
ENDBRANCH  11  23
BRANCH   8  25
ATOM     25  O   UNL     1       3.853  -4.209  29.118  0.00  0.00    -0.461 OA
BRANCH  25  26
ATOM     26  C   UNL     1       4.133  -5.300  28.215  0.00  0.00    +0.339 C 
ATOM     27  O   UNL     1       3.213  -5.363  27.127  0.00  0.00    -0.331 OA
ATOM     28  C   UNL     1       1.855  -5.609  27.533  0.00  0.00    +0.179 C 
ATOM     29  C   UNL     1       1.724  -6.940  28.292  0.00  0.00    +0.177 C 
ATOM     30  C   UNL     1       2.748  -7.036  29.423  0.00  0.00    +0.180 C 
ATOM     31  C   UNL     1       4.150  -6.671  28.927  0.00  0.00    +0.214 C 
BRANCH  31  32
ATOM     32  O   UNL     1       5.056  -6.751  30.037  0.00  0.00    -0.383 OA
ATOM     33  H   UNL     1       4.618  -7.248  30.750  0.00  0.00    +0.210 HD
ENDBRANCH  31  32
BRANCH  30  34
ATOM     34  O   UNL     1       2.741  -8.396  29.907  0.00  0.00    -0.386 OA
ATOM     35  H   UNL     1       2.803  -8.962  29.111  0.00  0.00    +0.210 HD
ENDBRANCH  30  34
BRANCH  29  36
ATOM     36  O   UNL     1       1.934  -8.051  27.406  0.00  0.00    -0.386 OA
ATOM     37  H   UNL     1       2.731  -7.811  26.887  0.00  0.00    +0.210 HD
ENDBRANCH  29  36
BRANCH  28  38
ATOM     38  C   UNL     1       0.984  -5.605  26.269  0.00  0.00    +0.190 C 
BRANCH  38  39
ATOM     39  O   UNL     1       1.690  -6.107  25.134  0.00  0.00    -0.392 OA
ATOM     40  H   UNL     1       2.179  -6.900  25.407  0.00  0.00    +0.210 HD
ENDBRANCH  38  39
ENDBRANCH  28  38
ENDBRANCH  25  26
ENDBRANCH   8  25
ENDBRANCH   1   2
BRANCH   1  42
ATOM     41  C   UNL     1       6.225   4.177  23.920  0.00  0.00    +0.221 C 
ATOM     42  C   UNL     1       5.431   3.171  24.805  0.00  0.00    +0.340 C 
ATOM     43  O   UNL     1       4.708   2.257  23.946  0.00  0.00    -0.331 OA
ATOM     44  C   UNL     1       3.721   2.921  23.112  0.00  0.00    +0.179 C 
ATOM     45  C   UNL     1       4.378   4.009  22.239  0.00  0.00    +0.177 C 
ATOM     46  C   UNL     1       5.168   4.973  23.134  0.00  0.00    +0.180 C 
BRANCH  46  47
ATOM     47  O   UNL     1       5.715   6.046  22.350  0.00  0.00    -0.386 OA
ATOM     48  H   UNL     1       5.682   5.761  21.417  0.00  0.00    +0.210 HD
ENDBRANCH  46  47
BRANCH  45  49
ATOM     49  O   UNL     1       3.414   4.745  21.483  0.00  0.00    -0.386 OA
ATOM     50  H   UNL     1       3.519   4.434  20.560  0.00  0.00    +0.210 HD
ENDBRANCH  45  49
BRANCH  44  51
ATOM     51  C   UNL     1       2.515   3.477  23.913  0.00  0.00    +0.190 C 
BRANCH  51  52
ATOM     52  O   UNL     1       1.819   2.449  24.611  0.00  0.00    -0.392 OA
ATOM     53  H   UNL     1       1.874   1.642  24.074  0.00  0.00    +0.210 HD
ENDBRANCH  51  52
ENDBRANCH  44  51
BRANCH  41  54
ATOM     54  O   UNL     1       7.190   3.465  23.081  0.00  0.00    -0.336 OA
BRANCH  54  57
ATOM     55  C   UNL     1      10.819   3.631  23.120  0.00  0.00    +0.197 C 
ATOM     56  O   UNL     1       9.521   3.100  23.438  0.00  0.00    -0.345 OA
ATOM     57  C   UNL     1       8.499   4.047  23.062  0.00  0.00    +0.294 C 
ATOM     58  C   UNL     1       8.623   5.277  23.977  0.00  0.00    +0.263 C 
ATOM     59  C   UNL     1       9.959   5.947  23.671  0.00  0.00    +0.191 C 
ATOM     60  C   UNL     1      11.120   4.956  23.843  0.00  0.00    +0.172 C 
BRANCH  60  61
ATOM     61  O   UNL     1      12.310   5.551  23.319  0.00  0.00    -0.387 OA
ATOM     62  H   UNL     1      13.062   4.968  23.518  0.00  0.00    +0.210 HD
ENDBRANCH  60  61
BRANCH  59  63
ATOM     63  O   UNL     1      10.110   7.107  24.499  0.00  0.00    -0.385 OA
ATOM     64  H   UNL     1       9.661   6.931  25.344  0.00  0.00    +0.210 HD
ENDBRANCH  59  63
BRANCH  58  65
ATOM     65  O   UNL     1       8.635   4.855  25.370  0.00  0.00    -0.450 OA
BRANCH  65  66
ATOM     66  C   UNL     1       8.448   5.811  26.307  0.00  0.00    +0.332 C 
ATOM     67  O   UNL     1       9.305   6.336  26.995  0.00  0.00    -0.246 OA
BRANCH  66  68
ATOM     68  C   UNL     1       6.995   6.079  26.389  0.00  0.00    +0.092 C 
ATOM     69  C   UNL     1       6.278   5.589  27.412  0.00  0.00    +0.015 C 
BRANCH  69  70
ATOM     70  C   UNL     1       4.828   5.777  27.600  0.00  0.00    -0.021 A 
ATOM     71  C   UNL     1       4.067   6.217  26.501  0.00  0.00    +0.012 A 
ATOM     72  C   UNL     1       2.682   6.381  26.604  0.00  0.00    +0.050 A 
ATOM     73  C   UNL     1       2.056   6.089  27.803  0.00  0.00    +0.158 A 
ATOM     74  C   UNL     1       2.788   5.642  28.895  0.00  0.00    +0.159 A 
ATOM     75  C   UNL     1       4.169   5.484  28.804  0.00  0.00    +0.057 A 
BRANCH  74  76
ATOM     76  O   UNL     1       2.102   5.358  30.044  0.00  0.00    -0.503 OA
ATOM     77  H   UNL     1       2.455   4.525  30.401  0.00  0.00    +0.292 HD
ENDBRANCH  74  76
BRANCH  73  78
ATOM     78  O   UNL     1       0.700   6.225  27.899  0.00  0.00    -0.503 OA
ATOM     79  H   UNL     1       0.358   5.811  27.080  0.00  0.00    +0.292 HD
ENDBRANCH  73  78
ENDBRANCH  69  70
ENDBRANCH  66  68
ENDBRANCH  65  66
ENDBRANCH  58  65
ENDBRANCH  54  57
ENDBRANCH  41  54
ENDBRANCH   1  42
TORSDOF 27
ENDMDL
MODEL 4
REMARK VINA RESULT:      -4.6      1.799      5.560
REMARK  Name = 
REMARK  27 active torsions:
REMARK  status: ('A' for Active; 'I' for Inactive)
REMARK    1  A    between atoms: C_2  and  O_73
REMARK    2  A    between atoms: C_4  and  O_72
REMARK    3  A    between atoms: C_5  and  O_59
REMARK    4  A    between atoms: C_6  and  O_9
REMARK    5  A    between atoms: O_9  and  C_10
REMARK    6  A    between atoms: C_11  and  O_58
REMARK    7  A    between atoms: C_13  and  O_57
REMARK    8  A    between atoms: C_15  and  C_55
REMARK    9  A    between atoms: C_17  and  O_19
REMARK   10  A    between atoms: O_19  and  C_20
REMARK   11  A    between atoms: C_21  and  C_47
REMARK   12  A    between atoms: C_25  and  O_32
REMARK   13  A    between atoms: C_27  and  O_31
REMARK   14  A    between atoms: O_32  and  C_33
REMARK   15  A    between atoms: C_35  and  O_46
REMARK   16  A    between atoms: C_36  and  O_45
REMARK   17  A    between atoms: C_37  and  O_44
REMARK   18  A    between atoms: C_39  and  C_42
REMARK   19  A    between atoms: C_42  and  O_43
REMARK   20  A    between atoms: C_49  and  O_54
REMARK   21  A    between atoms: C_50  and  O_53
REMARK   22  A    between atoms: C_55  and  O_56
REMARK   23  A    between atoms: O_59  and  C_60
REMARK   24  A    between atoms: C_60  and  C_62
REMARK   25  A    between atoms: C_63  and  C_64
REMARK   26  A    between atoms: C_66  and  O_71
REMARK   27  A    between atoms: C_67  and  O_70
REMARK                            x       y       z     vdW  Elec       q    Type
REMARK                         _______ _______ _______ _____ _____    ______ ____
ROOT
ATOM      1  O   UNL     1       6.239   1.644  25.388  0.00  0.00    -0.453 OA
ENDROOT
BRANCH   1   2
ATOM      2  C   UNL     1       5.674   0.369  25.559  0.00  0.00    +0.214 A 
ATOM      3  C   UNL     1       4.484   0.109  26.477  0.00  0.00    +0.238 A 
ATOM      4  O   UNL     1       4.043   0.964  27.235  0.00  0.00    -0.283 OA
ATOM      5  C   UNL     1       3.927  -1.266  26.521  0.00  0.00    +0.109 A 
ATOM      6  C   UNL     1       4.604  -2.241  25.824  0.00  0.00    +0.147 A 
ATOM      7  C   UNL     1       4.221  -3.586  25.882  0.00  0.00    +0.093 A 
ATOM      8  C   UNL     1       3.150  -3.990  26.675  0.00  0.00    +0.131 A 
ATOM      9  C   UNL     1       2.417  -3.005  27.344  0.00  0.00    +0.092 A 
ATOM     10  O   UNL     1       5.703  -1.993  25.060  0.00  0.00    -0.451 OA
ATOM     11  C   UNL     1       2.795  -1.650  27.256  0.00  0.00    +0.135 A 
ATOM     12  C   UNL     1       6.221  -0.710  24.953  0.00  0.00    +0.181 A 
BRANCH  12  13
ATOM     13  C   UNL     1       7.494  -0.762  24.169  0.00  0.00    +0.025 A 
ATOM     14  C   UNL     1       7.555  -0.057  22.937  0.00  0.00    +0.015 A 
ATOM     15  C   UNL     1       8.582  -0.278  22.014  0.00  0.00    +0.050 A 
ATOM     16  C   UNL     1       9.559  -1.200  22.316  0.00  0.00    +0.158 A 
ATOM     17  C   UNL     1       9.552  -1.871  23.537  0.00  0.00    +0.159 A 
ATOM     18  C   UNL     1       8.530  -1.658  24.466  0.00  0.00    +0.060 A 
BRANCH  16  19
ATOM     19  O   UNL     1      10.527  -1.484  21.395  0.00  0.00    -0.503 OA
ATOM     20  H   UNL     1      11.124  -0.714  21.429  0.00  0.00    +0.292 HD
ENDBRANCH  16  19
BRANCH  17  21
ATOM     21  O   UNL     1      10.546  -2.792  23.756  0.00  0.00    -0.503 OA
ATOM     22  H   UNL     1      10.950  -2.990  22.895  0.00  0.00    +0.292 HD
ENDBRANCH  17  21
ENDBRANCH  12  13
BRANCH  11  23
ATOM     23  O   UNL     1       2.032  -0.714  27.898  0.00  0.00    -0.506 OA
ATOM     24  H   UNL     1       2.100  -0.819  28.860  0.00  0.00    +0.292 HD
ENDBRANCH  11  23
BRANCH   8  25
ATOM     25  O   UNL     1       2.746  -5.296  26.849  0.00  0.00    -0.461 OA
BRANCH  25  26
ATOM     26  C   UNL     1       1.495  -5.667  26.230  0.00  0.00    +0.339 C 
ATOM     27  O   UNL     1       0.732  -6.567  27.032  0.00  0.00    -0.331 OA
ATOM     28  C   UNL     1       1.378  -7.832  27.257  0.00  0.00    +0.179 C 
ATOM     29  C   UNL     1       1.666  -8.563  25.936  0.00  0.00    +0.177 C 
ATOM     30  C   UNL     1       2.391  -7.652  24.945  0.00  0.00    +0.180 C 
ATOM     31  C   UNL     1       1.688  -6.295  24.832  0.00  0.00    +0.214 C 
BRANCH  31  32
ATOM     32  O   UNL     1       2.430  -5.479  23.913  0.00  0.00    -0.383 OA
ATOM     33  H   UNL     1       2.917  -6.068  23.310  0.00  0.00    +0.210 HD
ENDBRANCH  31  32
BRANCH  30  34
ATOM     34  O   UNL     1       2.387  -8.310  23.660  0.00  0.00    -0.386 OA
ATOM     35  H   UNL     1       3.288  -8.674  23.545  0.00  0.00    +0.210 HD
ENDBRANCH  30  34
BRANCH  29  36
ATOM     36  O   UNL     1       0.444  -9.004  25.324  0.00  0.00    -0.386 OA
ATOM     37  H   UNL     1      -0.008  -8.180  25.043  0.00  0.00    +0.210 HD
ENDBRANCH  29  36
BRANCH  28  38
ATOM     38  C   UNL     1       0.463  -8.666  28.164  0.00  0.00    +0.190 C 
BRANCH  38  39
ATOM     39  O   UNL     1       0.815 -10.051  28.147  0.00  0.00    -0.392 OA
ATOM     40  H   UNL     1       1.758 -10.127  28.366  0.00  0.00    +0.210 HD
ENDBRANCH  38  39
ENDBRANCH  28  38
ENDBRANCH  25  26
ENDBRANCH   8  25
ENDBRANCH   1   2
BRANCH   1  42
ATOM     41  C   UNL     1       6.366   3.762  24.137  0.00  0.00    +0.221 C 
ATOM     42  C   UNL     1       5.449   2.662  24.750  0.00  0.00    +0.340 C 
ATOM     43  O   UNL     1       4.602   2.122  23.706  0.00  0.00    -0.331 OA
ATOM     44  C   UNL     1       3.709   3.111  23.129  0.00  0.00    +0.179 C 
ATOM     45  C   UNL     1       4.503   4.303  22.557  0.00  0.00    +0.177 C 
ATOM     46  C   UNL     1       5.422   4.873  23.644  0.00  0.00    +0.180 C 
BRANCH  46  47
ATOM     47  O   UNL     1       6.105   6.041  23.159  0.00  0.00    -0.386 OA
ATOM     48  H   UNL     1       7.054   5.913  23.348  0.00  0.00    +0.210 HD
ENDBRANCH  46  47
BRANCH  45  49
ATOM     49  O   UNL     1       3.643   5.336  22.072  0.00  0.00    -0.386 OA
ATOM     50  H   UNL     1       4.214   5.910  21.521  0.00  0.00    +0.210 HD
ENDBRANCH  45  49
BRANCH  44  51
ATOM     51  C   UNL     1       2.596   3.576  24.103  0.00  0.00    +0.190 C 
BRANCH  51  52
ATOM     52  O   UNL     1       1.973   2.479  24.764  0.00  0.00    -0.392 OA
ATOM     53  H   UNL     1       1.539   2.825  25.561  0.00  0.00    +0.210 HD
ENDBRANCH  51  52
ENDBRANCH  44  51
BRANCH  41  54
ATOM     54  O   UNL     1       7.220   3.191  23.095  0.00  0.00    -0.336 OA
BRANCH  54  57
ATOM     55  C   UNL     1      10.852   3.187  23.161  0.00  0.00    +0.197 C 
ATOM     56  O   UNL     1       9.528   2.724  23.480  0.00  0.00    -0.345 OA
ATOM     57  C   UNL     1       8.555   3.710  23.074  0.00  0.00    +0.294 C 
ATOM     58  C   UNL     1       8.730   4.953  23.963  0.00  0.00    +0.263 C 
ATOM     59  C   UNL     1      10.099   5.552  23.653  0.00  0.00    +0.191 C 
ATOM     60  C   UNL     1      11.210   4.511  23.857  0.00  0.00    +0.172 C 
BRANCH  60  61
ATOM     61  O   UNL     1      12.430   5.038  23.330  0.00  0.00    -0.387 OA
ATOM     62  H   UNL     1      12.784   4.409  22.679  0.00  0.00    +0.210 HD
ENDBRANCH  60  61
BRANCH  59  63
ATOM     63  O   UNL     1      10.298   6.722  24.456  0.00  0.00    -0.385 OA
ATOM     64  H   UNL     1      10.922   6.494  25.167  0.00  0.00    +0.210 HD
ENDBRANCH  59  63
BRANCH  58  65
ATOM     65  O   UNL     1       8.712   4.562  25.365  0.00  0.00    -0.450 OA
BRANCH  65  66
ATOM     66  C   UNL     1       8.453   5.531  26.272  0.00  0.00    +0.332 C 
ATOM     67  O   UNL     1       9.234   6.366  26.689  0.00  0.00    -0.246 OA
BRANCH  66  68
ATOM     68  C   UNL     1       7.052   5.366  26.715  0.00  0.00    +0.092 C 
ATOM     69  C   UNL     1       6.752   4.492  27.688  0.00  0.00    +0.015 C 
BRANCH  69  70
ATOM     70  C   UNL     1       5.398   4.230  28.209  0.00  0.00    -0.021 A 
ATOM     71  C   UNL     1       5.271   3.807  29.545  0.00  0.00    +0.012 A 
ATOM     72  C   UNL     1       4.013   3.575  30.110  0.00  0.00    +0.050 A 
ATOM     73  C   UNL     1       2.880   3.782  29.342  0.00  0.00    +0.158 A 
ATOM     74  C   UNL     1       2.985   4.211  28.024  0.00  0.00    +0.159 A 
ATOM     75  C   UNL     1       4.235   4.436  27.452  0.00  0.00    +0.057 A 
BRANCH  74  76
ATOM     76  O   UNL     1       1.824   4.410  27.328  0.00  0.00    -0.503 OA
ATOM     77  H   UNL     1       2.024   5.003  26.584  0.00  0.00    +0.292 HD
ENDBRANCH  74  76
BRANCH  73  78
ATOM     78  O   UNL     1       1.649   3.581  29.898  0.00  0.00    -0.503 OA
ATOM     79  H   UNL     1       1.589   4.259  30.602  0.00  0.00    +0.292 HD
ENDBRANCH  73  78
ENDBRANCH  69  70
ENDBRANCH  66  68
ENDBRANCH  65  66
ENDBRANCH  58  65
ENDBRANCH  54  57
ENDBRANCH  41  54
ENDBRANCH   1  42
TORSDOF 27
ENDMDL
MODEL 5
REMARK VINA RESULT:      -4.4      3.322     11.072
REMARK  Name = 
REMARK  27 active torsions:
REMARK  status: ('A' for Active; 'I' for Inactive)
REMARK    1  A    between atoms: C_2  and  O_73
REMARK    2  A    between atoms: C_4  and  O_72
REMARK    3  A    between atoms: C_5  and  O_59
REMARK    4  A    between atoms: C_6  and  O_9
REMARK    5  A    between atoms: O_9  and  C_10
REMARK    6  A    between atoms: C_11  and  O_58
REMARK    7  A    between atoms: C_13  and  O_57
REMARK    8  A    between atoms: C_15  and  C_55
REMARK    9  A    between atoms: C_17  and  O_19
REMARK   10  A    between atoms: O_19  and  C_20
REMARK   11  A    between atoms: C_21  and  C_47
REMARK   12  A    between atoms: C_25  and  O_32
REMARK   13  A    between atoms: C_27  and  O_31
REMARK   14  A    between atoms: O_32  and  C_33
REMARK   15  A    between atoms: C_35  and  O_46
REMARK   16  A    between atoms: C_36  and  O_45
REMARK   17  A    between atoms: C_37  and  O_44
REMARK   18  A    between atoms: C_39  and  C_42
REMARK   19  A    between atoms: C_42  and  O_43
REMARK   20  A    between atoms: C_49  and  O_54
REMARK   21  A    between atoms: C_50  and  O_53
REMARK   22  A    between atoms: C_55  and  O_56
REMARK   23  A    between atoms: O_59  and  C_60
REMARK   24  A    between atoms: C_60  and  C_62
REMARK   25  A    between atoms: C_63  and  C_64
REMARK   26  A    between atoms: C_66  and  O_71
REMARK   27  A    between atoms: C_67  and  O_70
REMARK                            x       y       z     vdW  Elec       q    Type
REMARK                         _______ _______ _______ _____ _____    ______ ____
ROOT
ATOM      1  O   UNL     1       7.037  -3.841  25.944  0.00  0.00    -0.453 OA
ENDROOT
BRANCH   1   2
ATOM      2  C   UNL     1       6.471  -2.666  26.465  0.00  0.00    +0.214 A 
ATOM      3  C   UNL     1       6.973  -1.273  26.099  0.00  0.00    +0.238 A 
ATOM      4  O   UNL     1       7.996  -1.096  25.449  0.00  0.00    -0.283 OA
ATOM      5  C   UNL     1       6.250  -0.103  26.656  0.00  0.00    +0.109 A 
ATOM      6  C   UNL     1       5.249  -0.359  27.567  0.00  0.00    +0.147 A 
ATOM      7  C   UNL     1       4.573   0.675  28.226  0.00  0.00    +0.093 A 
ATOM      8  C   UNL     1       4.912   2.007  28.000  0.00  0.00    +0.131 A 
ATOM      9  C   UNL     1       5.886   2.285  27.037  0.00  0.00    +0.092 A 
ATOM     10  O   UNL     1       4.860  -1.613  27.923  0.00  0.00    -0.451 OA
ATOM     11  C   UNL     1       6.541   1.237  26.359  0.00  0.00    +0.135 A 
ATOM     12  C   UNL     1       5.479  -2.732  27.384  0.00  0.00    +0.181 A 
BRANCH  12  13
ATOM     13  C   UNL     1       4.944  -3.957  28.054  0.00  0.00    +0.025 A 
ATOM     14  C   UNL     1       4.380  -3.822  29.352  0.00  0.00    +0.015 A 
ATOM     15  C   UNL     1       4.123  -4.933  30.160  0.00  0.00    +0.050 A 
ATOM     16  C   UNL     1       4.420  -6.188  29.679  0.00  0.00    +0.158 A 
ATOM     17  C   UNL     1       4.928  -6.355  28.392  0.00  0.00    +0.159 A 
ATOM     18  C   UNL     1       5.190  -5.251  27.576  0.00  0.00    +0.060 A 
BRANCH  16  19
ATOM     19  O   UNL     1       4.246  -7.279  30.482  0.00  0.00    -0.503 OA
ATOM     20  H   UNL     1       3.884  -7.961  29.887  0.00  0.00    +0.292 HD
ENDBRANCH  16  19
BRANCH  17  21
ATOM     21  O   UNL     1       5.221  -7.635  27.990  0.00  0.00    -0.503 OA
ATOM     22  H   UNL     1       5.365  -7.609  27.029  0.00  0.00    +0.292 HD
ENDBRANCH  17  21
ENDBRANCH  12  13
BRANCH  11  23
ATOM     23  O   UNL     1       7.464   1.552  25.401  0.00  0.00    -0.506 OA
ATOM     24  H   UNL     1       7.085   2.163  24.749  0.00  0.00    +0.292 HD
ENDBRANCH  11  23
BRANCH   8  25
ATOM     25  O   UNL     1       4.353   3.084  28.653  0.00  0.00    -0.461 OA
BRANCH  25  26
ATOM     26  C   UNL     1       2.929   3.261  28.493  0.00  0.00    +0.339 C 
ATOM     27  O   UNL     1       2.518   3.199  27.129  0.00  0.00    -0.331 OA
ATOM     28  C   UNL     1       3.075   4.241  26.309  0.00  0.00    +0.179 C 
ATOM     29  C   UNL     1       2.679   5.636  26.820  0.00  0.00    +0.177 C 
ATOM     30  C   UNL     1       2.973   5.783  28.313  0.00  0.00    +0.180 C 
ATOM     31  C   UNL     1       2.425   4.589  29.100  0.00  0.00    +0.214 C 
BRANCH  31  32
ATOM     32  O   UNL     1       2.757   4.772  30.485  0.00  0.00    -0.383 OA
ATOM     33  H   UNL     1       2.629   5.712  30.705  0.00  0.00    +0.210 HD
ENDBRANCH  31  32
BRANCH  30  34
ATOM     34  O   UNL     1       2.340   6.998  28.767  0.00  0.00    -0.386 OA
ATOM     35  H   UNL     1       2.108   7.496  27.956  0.00  0.00    +0.210 HD
ENDBRANCH  30  34
BRANCH  29  36
ATOM     36  O   UNL     1       1.277   5.870  26.617  0.00  0.00    -0.386 OA
ATOM     37  H   UNL     1       1.227   6.766  26.222  0.00  0.00    +0.210 HD
ENDBRANCH  29  36
BRANCH  28  38
ATOM     38  C   UNL     1       2.581   4.016  24.873  0.00  0.00    +0.190 C 
BRANCH  38  39
ATOM     39  O   UNL     1       1.651   2.935  24.792  0.00  0.00    -0.392 OA
ATOM     40  H   UNL     1       1.776   2.368  25.570  0.00  0.00    +0.210 HD
ENDBRANCH  38  39
ENDBRANCH  28  38
ENDBRANCH  25  26
ENDBRANCH   8  25
ENDBRANCH   1   2
BRANCH   1  42
ATOM     41  C   UNL     1       6.239  -5.354  24.172  0.00  0.00    +0.221 C 
ATOM     42  C   UNL     1       7.004  -4.043  24.520  0.00  0.00    +0.340 C 
ATOM     43  O   UNL     1       6.379  -2.936  23.827  0.00  0.00    -0.331 OA
ATOM     44  C   UNL     1       6.440  -3.062  22.381  0.00  0.00    +0.179 C 
ATOM     45  C   UNL     1       5.781  -4.376  21.914  0.00  0.00    +0.177 C 
ATOM     46  C   UNL     1       6.417  -5.557  22.657  0.00  0.00    +0.180 C 
BRANCH  46  47
ATOM     47  O   UNL     1       5.880  -6.800  22.172  0.00  0.00    -0.386 OA
ATOM     48  H   UNL     1       6.627  -7.426  22.111  0.00  0.00    +0.210 HD
ENDBRANCH  46  47
BRANCH  45  49
ATOM     49  O   UNL     1       5.915  -4.572  20.505  0.00  0.00    -0.386 OA
ATOM     50  H   UNL     1       6.386  -3.779  20.178  0.00  0.00    +0.210 HD
ENDBRANCH  45  49
BRANCH  44  51
ATOM     51  C   UNL     1       7.873  -2.904  21.811  0.00  0.00    +0.190 C 
BRANCH  51  52
ATOM     52  O   UNL     1       8.597  -1.869  22.469  0.00  0.00    -0.392 OA
ATOM     53  H   UNL     1       8.327  -1.870  23.402  0.00  0.00    +0.210 HD
ENDBRANCH  51  52
ENDBRANCH  44  51
BRANCH  41  54
ATOM     54  O   UNL     1       4.844  -5.260  24.607  0.00  0.00    -0.336 OA
BRANCH  54  57
ATOM     55  C   UNL     1       2.501  -6.820  22.311  0.00  0.00    +0.197 C 
ATOM     56  O   UNL     1       3.119  -5.738  23.029  0.00  0.00    -0.345 OA
ATOM     57  C   UNL     1       3.985  -6.266  24.057  0.00  0.00    +0.294 C 
ATOM     58  C   UNL     1       3.108  -6.954  25.117  0.00  0.00    +0.263 C 
ATOM     59  C   UNL     1       2.447  -8.160  24.457  0.00  0.00    +0.191 C 
ATOM     60  C   UNL     1       1.653  -7.734  23.213  0.00  0.00    +0.172 C 
BRANCH  60  61
ATOM     61  O   UNL     1       1.257  -8.909  22.500  0.00  0.00    -0.387 OA
ATOM     62  H   UNL     1       0.297  -8.874  22.354  0.00  0.00    +0.210 HD
ENDBRANCH  60  61
BRANCH  59  63
ATOM     63  O   UNL     1       1.626  -8.836  25.417  0.00  0.00    -0.385 OA
ATOM     64  H   UNL     1       2.065  -9.672  25.649  0.00  0.00    +0.210 HD
ENDBRANCH  59  63
BRANCH  58  65
ATOM     65  O   UNL     1       2.061  -6.044  25.556  0.00  0.00    -0.450 OA
BRANCH  65  66
ATOM     66  C   UNL     1       1.674  -6.126  26.849  0.00  0.00    +0.332 C 
ATOM     67  O   UNL     1       1.725  -7.111  27.564  0.00  0.00    -0.246 OA
BRANCH  66  68
ATOM     68  C   UNL     1       1.121  -4.810  27.235  0.00  0.00    +0.092 C 
ATOM     69  C   UNL     1       1.920  -3.733  27.282  0.00  0.00    +0.015 C 
BRANCH  69  70
ATOM     70  C   UNL     1       1.493  -2.374  27.661  0.00  0.00    -0.021 A 
ATOM     71  C   UNL     1       1.391  -2.067  29.030  0.00  0.00    +0.012 A 
ATOM     72  C   UNL     1       1.026  -0.786  29.456  0.00  0.00    +0.050 A 
ATOM     73  C   UNL     1       0.777   0.193  28.510  0.00  0.00    +0.158 A 
ATOM     74  C   UNL     1       0.885  -0.087  27.154  0.00  0.00    +0.159 A 
ATOM     75  C   UNL     1       1.241  -1.363  26.721  0.00  0.00    +0.057 A 
BRANCH  74  76
ATOM     76  O   UNL     1       0.641   0.933  26.275  0.00  0.00    -0.503 OA
ATOM     77  H   UNL     1       1.462   1.446  26.181  0.00  0.00    +0.292 HD
ENDBRANCH  74  76
BRANCH  73  78
ATOM     78  O   UNL     1       0.444   1.452  28.923  0.00  0.00    -0.503 OA
ATOM     79  H   UNL     1       1.101   2.031  28.486  0.00  0.00    +0.292 HD
ENDBRANCH  73  78
ENDBRANCH  69  70
ENDBRANCH  66  68
ENDBRANCH  65  66
ENDBRANCH  58  65
ENDBRANCH  54  57
ENDBRANCH  41  54
ENDBRANCH   1  42
TORSDOF 27
ENDMDL
MODEL 6
REMARK VINA RESULT:      -3.7      2.321      6.455
REMARK  Name = 
REMARK  27 active torsions:
REMARK  status: ('A' for Active; 'I' for Inactive)
REMARK    1  A    between atoms: C_2  and  O_73
REMARK    2  A    between atoms: C_4  and  O_72
REMARK    3  A    between atoms: C_5  and  O_59
REMARK    4  A    between atoms: C_6  and  O_9
REMARK    5  A    between atoms: O_9  and  C_10
REMARK    6  A    between atoms: C_11  and  O_58
REMARK    7  A    between atoms: C_13  and  O_57
REMARK    8  A    between atoms: C_15  and  C_55
REMARK    9  A    between atoms: C_17  and  O_19
REMARK   10  A    between atoms: O_19  and  C_20
REMARK   11  A    between atoms: C_21  and  C_47
REMARK   12  A    between atoms: C_25  and  O_32
REMARK   13  A    between atoms: C_27  and  O_31
REMARK   14  A    between atoms: O_32  and  C_33
REMARK   15  A    between atoms: C_35  and  O_46
REMARK   16  A    between atoms: C_36  and  O_45
REMARK   17  A    between atoms: C_37  and  O_44
REMARK   18  A    between atoms: C_39  and  C_42
REMARK   19  A    between atoms: C_42  and  O_43
REMARK   20  A    between atoms: C_49  and  O_54
REMARK   21  A    between atoms: C_50  and  O_53
REMARK   22  A    between atoms: C_55  and  O_56
REMARK   23  A    between atoms: O_59  and  C_60
REMARK   24  A    between atoms: C_60  and  C_62
REMARK   25  A    between atoms: C_63  and  C_64
REMARK   26  A    between atoms: C_66  and  O_71
REMARK   27  A    between atoms: C_67  and  O_70
REMARK                            x       y       z     vdW  Elec       q    Type
REMARK                         _______ _______ _______ _____ _____    ______ ____
ROOT
ATOM      1  O   UNL     1       7.693   2.756  26.962  0.00  0.00    -0.453 OA
ENDROOT
BRANCH   1   2
ATOM      2  C   UNL     1       7.609   1.694  26.045  0.00  0.00    +0.214 A 
ATOM      3  C   UNL     1       7.799   0.236  26.449  0.00  0.00    +0.238 A 
ATOM      4  O   UNL     1       8.185  -0.089  27.565  0.00  0.00    -0.283 OA
ATOM      5  C   UNL     1       7.615  -0.804  25.407  0.00  0.00    +0.109 A 
ATOM      6  C   UNL     1       7.407  -0.372  24.117  0.00  0.00    +0.147 A 
ATOM      7  C   UNL     1       7.322  -1.268  23.046  0.00  0.00    +0.093 A 
ATOM      8  C   UNL     1       7.472  -2.638  23.248  0.00  0.00    +0.131 A 
ATOM      9  C   UNL     1       7.626  -3.098  24.559  0.00  0.00    +0.092 A 
ATOM     10  O   UNL     1       7.303   0.941  23.772  0.00  0.00    -0.451 OA
ATOM     11  C   UNL     1       7.683  -2.188  25.633  0.00  0.00    +0.135 A 
ATOM     12  C   UNL     1       7.418   1.940  24.728  0.00  0.00    +0.181 A 
BRANCH  12  13
ATOM     13  C   UNL     1       7.400   3.271  24.047  0.00  0.00    +0.025 A 
ATOM     14  C   UNL     1       6.263   3.612  23.264  0.00  0.00    +0.015 A 
ATOM     15  C   UNL     1       6.280   4.690  22.375  0.00  0.00    +0.050 A 
ATOM     16  C   UNL     1       7.428   5.442  22.264  0.00  0.00    +0.158 A 
ATOM     17  C   UNL     1       8.542   5.162  23.053  0.00  0.00    +0.159 A 
ATOM     18  C   UNL     1       8.536   4.086  23.945  0.00  0.00    +0.060 A 
BRANCH  16  19
ATOM     19  O   UNL     1       7.488   6.451  21.346  0.00  0.00    -0.503 OA
ATOM     20  H   UNL     1       7.567   5.993  20.489  0.00  0.00    +0.292 HD
ENDBRANCH  16  19
BRANCH  17  21
ATOM     21  O   UNL     1       9.657   5.940  22.870  0.00  0.00    -0.503 OA
ATOM     22  H   UNL     1      10.426   5.410  23.142  0.00  0.00    +0.292 HD
ENDBRANCH  17  21
ENDBRANCH  12  13
BRANCH  11  23
ATOM     23  O   UNL     1       7.800  -2.680  26.904  0.00  0.00    -0.506 OA
ATOM     24  H   UNL     1       7.784  -3.650  26.898  0.00  0.00    +0.292 HD
ENDBRANCH  11  23
BRANCH   8  25
ATOM     25  O   UNL     1       7.474  -3.587  22.248  0.00  0.00    -0.461 OA
BRANCH  25  26
ATOM     26  C   UNL     1       6.194  -3.903  21.662  0.00  0.00    +0.339 C 
ATOM     27  O   UNL     1       5.099  -3.444  22.454  0.00  0.00    -0.331 OA
ATOM     28  C   UNL     1       5.029  -4.056  23.753  0.00  0.00    +0.179 C 
ATOM     29  C   UNL     1       4.882  -5.583  23.651  0.00  0.00    +0.177 C 
ATOM     30  C   UNL     1       5.945  -6.182  22.729  0.00  0.00    +0.180 C 
ATOM     31  C   UNL     1       6.016  -5.416  21.405  0.00  0.00    +0.214 C 
BRANCH  31  32
ATOM     32  O   UNL     1       7.046  -6.005  20.598  0.00  0.00    -0.383 OA
ATOM     33  H   UNL     1       6.894  -6.966  20.567  0.00  0.00    +0.210 HD
ENDBRANCH  31  32
BRANCH  30  34
ATOM     34  O   UNL     1       5.583  -7.557  22.478  0.00  0.00    -0.386 OA
ATOM     35  H   UNL     1       4.726  -7.693  22.931  0.00  0.00    +0.210 HD
ENDBRANCH  30  34
BRANCH  29  36
ATOM     36  O   UNL     1       3.591  -5.935  23.130  0.00  0.00    -0.386 OA
ATOM     37  H   UNL     1       3.685  -5.863  22.157  0.00  0.00    +0.210 HD
ENDBRANCH  29  36
BRANCH  28  38
ATOM     38  C   UNL     1       3.838  -3.434  24.496  0.00  0.00    +0.190 C 
BRANCH  38  39
ATOM     39  O   UNL     1       3.188  -4.380  25.348  0.00  0.00    -0.392 OA
ATOM     40  H   UNL     1       3.141  -5.228  24.879  0.00  0.00    +0.210 HD
ENDBRANCH  38  39
ENDBRANCH  28  38
ENDBRANCH  25  26
ENDBRANCH   8  25
ENDBRANCH   1   2
BRANCH   1  42
ATOM     41  C   UNL     1       5.345   3.491  27.081  0.00  0.00    +0.221 C 
ATOM     42  C   UNL     1       6.822   3.886  26.781  0.00  0.00    +0.340 C 
ATOM     43  O   UNL     1       7.191   5.000  27.629  0.00  0.00    -0.331 OA
ATOM     44  C   UNL     1       6.399   6.192  27.379  0.00  0.00    +0.179 C 
ATOM     45  C   UNL     1       4.895   5.904  27.564  0.00  0.00    +0.177 C 
ATOM     46  C   UNL     1       4.493   4.711  26.689  0.00  0.00    +0.180 C 
BRANCH  46  47
ATOM     47  O   UNL     1       3.077   4.481  26.778  0.00  0.00    -0.386 OA
ATOM     48  H   UNL     1       2.950   3.730  27.390  0.00  0.00    +0.210 HD
ENDBRANCH  46  47
BRANCH  45  49
ATOM     49  O   UNL     1       4.088   7.034  27.227  0.00  0.00    -0.386 OA
ATOM     50  H   UNL     1       4.516   7.433  26.442  0.00  0.00    +0.210 HD
ENDBRANCH  45  49
BRANCH  44  51
ATOM     51  C   UNL     1       6.694   6.848  26.005  0.00  0.00    +0.190 C 
BRANCH  51  52
ATOM     52  O   UNL     1       8.082   7.108  25.825  0.00  0.00    -0.392 OA
ATOM     53  H   UNL     1       8.201   8.072  25.815  0.00  0.00    +0.210 HD
ENDBRANCH  51  52
ENDBRANCH  44  51
BRANCH  41  54
ATOM     54  O   UNL     1       5.202   3.079  28.478  0.00  0.00    -0.336 OA
BRANCH  54  57
ATOM     55  C   UNL     1       2.594   1.542  30.485  0.00  0.00    +0.197 C 
ATOM     56  O   UNL     1       3.941   1.848  30.087  0.00  0.00    -0.345 OA
ATOM     57  C   UNL     1       3.935   2.492  28.795  0.00  0.00    +0.294 C 
ATOM     58  C   UNL     1       3.469   1.466  27.748  0.00  0.00    +0.263 C 
ATOM     59  C   UNL     1       2.017   1.117  28.058  0.00  0.00    +0.191 C 
ATOM     60  C   UNL     1       1.873   0.606  29.499  0.00  0.00    +0.172 C 
BRANCH  60  61
ATOM     61  O   UNL     1       0.481   0.522  29.817  0.00  0.00    -0.387 OA
ATOM     62  H   UNL     1       0.001   0.210  29.031  0.00  0.00    +0.210 HD
ENDBRANCH  60  61
BRANCH  59  63
ATOM     63  O   UNL     1       1.541   0.168  27.096  0.00  0.00    -0.385 OA
ATOM     64  H   UNL     1       1.940  -0.695  27.304  0.00  0.00    +0.210 HD
ENDBRANCH  59  63
BRANCH  58  65
ATOM     65  O   UNL     1       4.263   0.252  27.863  0.00  0.00    -0.450 OA
BRANCH  65  66
ATOM     66  C   UNL     1       4.382  -0.515  26.755  0.00  0.00    +0.332 C 
ATOM     67  O   UNL     1       4.489  -0.125  25.607  0.00  0.00    -0.246 OA
BRANCH  66  68
ATOM     68  C   UNL     1       4.309  -1.930  27.180  0.00  0.00    +0.092 C 
ATOM     69  C   UNL     1       4.171  -2.236  28.479  0.00  0.00    +0.015 C 
BRANCH  69  70
ATOM     70  C   UNL     1       4.096  -3.601  29.028  0.00  0.00    -0.021 A 
ATOM     71  C   UNL     1       2.858  -4.053  29.520  0.00  0.00    +0.012 A 
ATOM     72  C   UNL     1       2.712  -5.350  30.021  0.00  0.00    +0.050 A 
ATOM     73  C   UNL     1       3.803  -6.202  30.016  0.00  0.00    +0.158 A 
ATOM     74  C   UNL     1       5.031  -5.778  29.524  0.00  0.00    +0.159 A 
ATOM     75  C   UNL     1       5.187  -4.485  29.030  0.00  0.00    +0.057 A 
BRANCH  74  76
ATOM     76  O   UNL     1       6.062  -6.677  29.534  0.00  0.00    -0.503 OA
ATOM     77  H   UNL     1       6.717  -6.384  28.878  0.00  0.00    +0.292 HD
ENDBRANCH  74  76
BRANCH  73  78
ATOM     78  O   UNL     1       3.657  -7.478  30.482  0.00  0.00    -0.503 OA
ATOM     79  H   UNL     1       4.068  -7.459  31.370  0.00  0.00    +0.292 HD
ENDBRANCH  73  78
ENDBRANCH  69  70
ENDBRANCH  66  68
ENDBRANCH  65  66
ENDBRANCH  58  65
ENDBRANCH  54  57
ENDBRANCH  41  54
ENDBRANCH   1  42
TORSDOF 27
ENDMDL
MODEL 7
REMARK VINA RESULT:      -3.7      3.223     10.051
REMARK  Name = 
REMARK  27 active torsions:
REMARK  status: ('A' for Active; 'I' for Inactive)
REMARK    1  A    between atoms: C_2  and  O_73
REMARK    2  A    between atoms: C_4  and  O_72
REMARK    3  A    between atoms: C_5  and  O_59
REMARK    4  A    between atoms: C_6  and  O_9
REMARK    5  A    between atoms: O_9  and  C_10
REMARK    6  A    between atoms: C_11  and  O_58
REMARK    7  A    between atoms: C_13  and  O_57
REMARK    8  A    between atoms: C_15  and  C_55
REMARK    9  A    between atoms: C_17  and  O_19
REMARK   10  A    between atoms: O_19  and  C_20
REMARK   11  A    between atoms: C_21  and  C_47
REMARK   12  A    between atoms: C_25  and  O_32
REMARK   13  A    between atoms: C_27  and  O_31
REMARK   14  A    between atoms: O_32  and  C_33
REMARK   15  A    between atoms: C_35  and  O_46
REMARK   16  A    between atoms: C_36  and  O_45
REMARK   17  A    between atoms: C_37  and  O_44
REMARK   18  A    between atoms: C_39  and  C_42
REMARK   19  A    between atoms: C_42  and  O_43
REMARK   20  A    between atoms: C_49  and  O_54
REMARK   21  A    between atoms: C_50  and  O_53
REMARK   22  A    between atoms: C_55  and  O_56
REMARK   23  A    between atoms: O_59  and  C_60
REMARK   24  A    between atoms: C_60  and  C_62
REMARK   25  A    between atoms: C_63  and  C_64
REMARK   26  A    between atoms: C_66  and  O_71
REMARK   27  A    between atoms: C_67  and  O_70
REMARK                            x       y       z     vdW  Elec       q    Type
REMARK                         _______ _______ _______ _____ _____    ______ ____
ROOT
ATOM      1  O   UNL     1       4.924  -7.131  27.071  0.00  0.00    -0.453 OA
ENDROOT
BRANCH   1   2
ATOM      2  C   UNL     1       5.458  -6.085  26.299  0.00  0.00    +0.214 A 
ATOM      3  C   UNL     1       6.680  -5.281  26.729  0.00  0.00    +0.238 A 
ATOM      4  O   UNL     1       7.181  -5.396  27.841  0.00  0.00    -0.283 OA
ATOM      5  C   UNL     1       7.197  -4.248  25.798  0.00  0.00    +0.109 A 
ATOM      6  C   UNL     1       6.460  -4.002  24.661  0.00  0.00    +0.147 A 
ATOM      7  C   UNL     1       6.804  -2.980  23.769  0.00  0.00    +0.093 A 
ATOM      8  C   UNL     1       7.898  -2.155  24.016  0.00  0.00    +0.131 A 
ATOM      9  C   UNL     1       8.690  -2.428  25.136  0.00  0.00    +0.092 A 
ATOM     10  O   UNL     1       5.335  -4.693  24.330  0.00  0.00    -0.451 OA
ATOM     11  C   UNL     1       8.350  -3.477  26.012  0.00  0.00    +0.135 A 
ATOM     12  C   UNL     1       4.851  -5.702  25.152  0.00  0.00    +0.181 A 
BRANCH  12  13
ATOM     13  C   UNL     1       3.543  -6.185  24.612  0.00  0.00    +0.025 A 
ATOM     14  C   UNL     1       3.281  -7.582  24.632  0.00  0.00    +0.015 A 
ATOM     15  C   UNL     1       2.230  -8.142  23.900  0.00  0.00    +0.050 A 
ATOM     16  C   UNL     1       1.427  -7.314  23.149  0.00  0.00    +0.158 A 
ATOM     17  C   UNL     1       1.629  -5.936  23.148  0.00  0.00    +0.159 A 
ATOM     18  C   UNL     1       2.678  -5.365  23.875  0.00  0.00    +0.060 A 
BRANCH  16  19
ATOM     19  O   UNL     1       0.443  -7.852  22.369  0.00  0.00    -0.503 OA
ATOM     20  H   UNL     1      -0.270  -7.188  22.391  0.00  0.00    +0.292 HD
ENDBRANCH  16  19
BRANCH  17  21
ATOM     21  O   UNL     1       0.804  -5.177  22.356  0.00  0.00    -0.503 OA
ATOM     22  H   UNL     1       0.029  -5.724  22.141  0.00  0.00    +0.292 HD
ENDBRANCH  17  21
ENDBRANCH  12  13
BRANCH  11  23
ATOM     23  O   UNL     1       9.169  -3.734  27.078  0.00  0.00    -0.506 OA
ATOM     24  H   UNL     1       9.817  -4.420  26.852  0.00  0.00    +0.292 HD
ENDBRANCH  11  23
BRANCH   8  25
ATOM     25  O   UNL     1       8.271  -1.083  23.235  0.00  0.00    -0.461 OA
BRANCH  25  26
ATOM     26  C   UNL     1       8.547   0.152  23.930  0.00  0.00    +0.339 C 
ATOM     27  O   UNL     1       7.427   1.034  23.948  0.00  0.00    -0.331 OA
ATOM     28  C   UNL     1       7.017   1.475  22.642  0.00  0.00    +0.179 C 
ATOM     29  C   UNL     1       8.149   2.222  21.917  0.00  0.00    +0.177 C 
ATOM     30  C   UNL     1       9.445   1.413  21.931  0.00  0.00    +0.180 C 
ATOM     31  C   UNL     1       9.760   0.906  23.342  0.00  0.00    +0.214 C 
BRANCH  31  32
ATOM     32  O   UNL     1      10.967   0.132  23.284  0.00  0.00    -0.383 OA
ATOM     33  H   UNL     1      11.484   0.435  22.516  0.00  0.00    +0.210 HD
ENDBRANCH  31  32
BRANCH  30  34
ATOM     34  O   UNL     1      10.507   2.278  21.476  0.00  0.00    -0.386 OA
ATOM     35  H   UNL     1      10.192   3.191  21.633  0.00  0.00    +0.210 HD
ENDBRANCH  30  34
BRANCH  29  36
ATOM     36  O   UNL     1       8.406   3.487  22.547  0.00  0.00    -0.386 OA
ATOM     37  H   UNL     1       8.304   3.315  23.506  0.00  0.00    +0.210 HD
ENDBRANCH  29  36
BRANCH  28  38
ATOM     38  C   UNL     1       5.785   2.374  22.820  0.00  0.00    +0.190 C 
BRANCH  38  39
ATOM     39  O   UNL     1       4.858   1.828  23.760  0.00  0.00    -0.392 OA
ATOM     40  H   UNL     1       5.345   1.602  24.569  0.00  0.00    +0.210 HD
ENDBRANCH  38  39
ENDBRANCH  28  38
ENDBRANCH  25  26
ENDBRANCH   8  25
ENDBRANCH   1   2
BRANCH   1  42
ATOM     41  C   UNL     1       4.026  -5.283  28.429  0.00  0.00    +0.221 C 
ATOM     42  C   UNL     1       3.974  -6.805  28.101  0.00  0.00    +0.340 C 
ATOM     43  O   UNL     1       2.621  -7.160  27.727  0.00  0.00    -0.331 OA
ATOM     44  C   UNL     1       1.662  -6.949  28.797  0.00  0.00    +0.179 C 
ATOM     45  C   UNL     1       1.677  -5.481  29.271  0.00  0.00    +0.177 C 
ATOM     46  C   UNL     1       3.110  -5.083  29.649  0.00  0.00    +0.180 C 
BRANCH  46  47
ATOM     47  O   UNL     1       3.133  -3.746  30.178  0.00  0.00    -0.386 OA
ATOM     48  H   UNL     1       4.025  -3.604  30.548  0.00  0.00    +0.210 HD
ENDBRANCH  46  47
BRANCH  45  49
ATOM     49  O   UNL     1       0.814  -5.269  30.390  0.00  0.00    -0.386 OA
ATOM     50  H   UNL     1       0.987  -4.350  30.679  0.00  0.00    +0.210 HD
ENDBRANCH  45  49
BRANCH  44  51
ATOM     51  C   UNL     1       1.834  -7.936  29.980  0.00  0.00    +0.190 C 
BRANCH  51  52
ATOM     52  O   UNL     1       0.582  -8.404  30.471  0.00  0.00    -0.392 OA
ATOM     53  H   UNL     1       0.720  -9.300  30.819  0.00  0.00    +0.210 HD
ENDBRANCH  51  52
ENDBRANCH  44  51
BRANCH  41  54
ATOM     54  O   UNL     1       3.646  -4.497  27.254  0.00  0.00    -0.336 OA
BRANCH  54  57
ATOM     55  C   UNL     1       5.955  -1.814  28.072  0.00  0.00    +0.197 C 
ATOM     56  O   UNL     1       5.055  -2.904  28.337  0.00  0.00    -0.345 OA
ATOM     57  C   UNL     1       4.333  -3.245  27.134  0.00  0.00    +0.294 C 
ATOM     58  C   UNL     1       3.396  -2.075  26.787  0.00  0.00    +0.263 C 
ATOM     59  C   UNL     1       4.269  -0.875  26.434  0.00  0.00    +0.191 C 
ATOM     60  C   UNL     1       5.235  -0.545  27.582  0.00  0.00    +0.172 C 
BRANCH  60  61
ATOM     61  O   UNL     1       6.183   0.419  27.118  0.00  0.00    -0.387 OA
ATOM     62  H   UNL     1       6.978   0.366  27.675  0.00  0.00    +0.210 HD
ENDBRANCH  60  61
BRANCH  59  63
ATOM     63  O   UNL     1       3.432   0.237  26.094  0.00  0.00    -0.385 OA
ATOM     64  H   UNL     1       4.008   0.995  25.896  0.00  0.00    +0.210 HD
ENDBRANCH  59  63
BRANCH  58  65
ATOM     65  O   UNL     1       2.593  -1.728  27.949  0.00  0.00    -0.450 OA
BRANCH  65  66
ATOM     66  C   UNL     1       1.283  -1.466  27.738  0.00  0.00    +0.332 C 
ATOM     67  O   UNL     1       0.507  -2.123  27.067  0.00  0.00    -0.246 OA
BRANCH  66  68
ATOM     68  C   UNL     1       0.962  -0.199  28.431  0.00  0.00    +0.092 C 
ATOM     69  C   UNL     1       1.282   0.975  27.867  0.00  0.00    +0.015 C 
BRANCH  69  70
ATOM     70  C   UNL     1       1.026   2.300  28.459  0.00  0.00    -0.021 A 
ATOM     71  C   UNL     1       0.890   2.388  29.856  0.00  0.00    +0.012 A 
ATOM     72  C   UNL     1       0.681   3.621  30.484  0.00  0.00    +0.050 A 
ATOM     73  C   UNL     1       0.623   4.768  29.712  0.00  0.00    +0.158 A 
ATOM     74  C   UNL     1       0.767   4.703  28.332  0.00  0.00    +0.159 A 
ATOM     75  C   UNL     1       0.968   3.479  27.699  0.00  0.00    +0.057 A 
BRANCH  74  76
ATOM     76  O   UNL     1       0.716   5.879  27.634  0.00  0.00    -0.503 OA
ATOM     77  H   UNL     1       1.523   6.381  27.839  0.00  0.00    +0.292 HD
ENDBRANCH  74  76
BRANCH  73  78
ATOM     78  O   UNL     1       0.444   5.977  30.324  0.00  0.00    -0.503 OA
ATOM     79  H   UNL     1      -0.418   6.293  29.985  0.00  0.00    +0.292 HD
ENDBRANCH  73  78
ENDBRANCH  69  70
ENDBRANCH  66  68
ENDBRANCH  65  66
ENDBRANCH  58  65
ENDBRANCH  54  57
ENDBRANCH  41  54
ENDBRANCH   1  42
TORSDOF 27
ENDMDL
