MODEL 1
REMARK VINA RESULT:      -6.7      0.000      0.000
REMARK  Name = 
REMARK  22 active torsions:
REMARK  status: ('A' for Active; 'I' for Inactive)
REMARK    1  A    between atoms: C_1  and  C_2
REMARK    2  A    between atoms: C_4  and  O_61
REMARK    3  A    between atoms: C_6  and  O_60
REMARK    4  A    between atoms: C_7  and  O_59
REMARK    5  A    between atoms: C_8  and  O_11
REMARK    6  A    between atoms: O_11  and  C_12
REMARK    7  A    between atoms: C_13  and  O_58
REMARK    8  A    between atoms: C_15  and  O_57
REMARK    9  A    between atoms: C_17  and  C_55
REMARK   10  A    between atoms: C_19  and  O_21
REMARK   11  A    between atoms: O_21  and  C_22
REMARK   12  A    between atoms: C_23  and  C_47
REMARK   13  A    between atoms: C_27  and  O_34
REMARK   14  A    between atoms: C_29  and  O_33
REMARK   15  A    between atoms: O_34  and  C_35
REMARK   16  A    between atoms: C_37  and  O_46
REMARK   17  A    between atoms: C_38  and  O_45
REMARK   18  A    between atoms: C_39  and  O_44
REMARK   19  A    between atoms: C_41  and  C_43
REMARK   20  A    between atoms: C_49  and  O_54
REMARK   21  A    between atoms: C_50  and  O_53
REMARK   22  A    between atoms: C_55  and  O_56
REMARK                            x       y       z     vdW  Elec       q    Type
REMARK                         _______ _______ _______ _____ _____    ______ ____
ROOT
ATOM      1  C   UNL     1       6.656  -2.431  26.392  0.00  0.00    +0.214 A 
ATOM      2  C   UNL     1       7.220  -1.066  26.716  0.00  0.00    +0.238 A 
ATOM      3  O   UNL     1       8.384  -0.792  26.448  0.00  0.00    -0.283 OA
ATOM      4  C   UNL     1       6.310  -0.090  27.336  0.00  0.00    +0.109 A 
ATOM      5  C   UNL     1       5.085  -0.557  27.764  0.00  0.00    +0.147 A 
ATOM      6  C   UNL     1       4.129   0.306  28.300  0.00  0.00    +0.093 A 
ATOM      7  C   UNL     1       4.388   1.668  28.451  0.00  0.00    +0.131 A 
ATOM      8  C   UNL     1       5.645   2.151  28.070  0.00  0.00    +0.092 A 
ATOM      9  O   UNL     1       4.734  -1.878  27.741  0.00  0.00    -0.451 OA
ATOM     10  C   UNL     1       6.593   1.284  27.497  0.00  0.00    +0.135 A 
ATOM     11  C   UNL     1       5.488  -2.777  27.000  0.00  0.00    +0.181 A 
ENDROOT
BRANCH  11  12
ATOM     12  C   UNL     1       4.813  -4.109  27.014  0.00  0.00    +0.025 A 
ATOM     13  C   UNL     1       3.597  -4.327  26.344  0.00  0.00    +0.015 A 
ATOM     14  C   UNL     1       2.895  -5.532  26.486  0.00  0.00    +0.050 A 
ATOM     15  C   UNL     1       3.452  -6.561  27.223  0.00  0.00    +0.158 A 
ATOM     16  C   UNL     1       4.738  -6.433  27.725  0.00  0.00    +0.159 A 
ATOM     17  C   UNL     1       5.418  -5.219  27.643  0.00  0.00    +0.060 A 
BRANCH  16  18
ATOM     18  O   UNL     1       5.312  -7.533  28.297  0.00  0.00    -0.503 OA
ATOM     19  H   UNL     1       6.081  -7.203  28.798  0.00  0.00    +0.292 HD
ENDBRANCH  16  18
BRANCH  15  20
ATOM     20  O   UNL     1       2.725  -7.690  27.456  0.00  0.00    -0.503 OA
ATOM     21  H   UNL     1       1.823  -7.485  27.141  0.00  0.00    +0.292 HD
ENDBRANCH  15  20
ENDBRANCH  11  12
BRANCH  10  22
ATOM     22  O   UNL     1       7.791   1.794  27.089  0.00  0.00    -0.506 OA
ATOM     23  H   UNL     1       8.449   1.765  27.801  0.00  0.00    +0.292 HD
ENDBRANCH  10  22
BRANCH   7  24
ATOM     24  O   UNL     1       3.494   2.587  28.960  0.00  0.00    -0.461 OA
BRANCH  24  25
ATOM     25  C   UNL     1       2.232   2.684  28.265  0.00  0.00    +0.339 C 
ATOM     26  O   UNL     1       2.396   3.156  26.922  0.00  0.00    -0.334 OA
ATOM     27  C   UNL     1       2.927   4.484  26.868  0.00  0.00    +0.150 C 
ATOM     28  C   UNL     1       3.151   4.834  25.399  0.00  0.00    +0.041 C 
ATOM     29  C   UNL     1       1.970   5.483  27.535  0.00  0.00    +0.174 C 
ATOM     30  C   UNL     1       1.599   5.049  28.965  0.00  0.00    +0.180 C 
ATOM     31  C   UNL     1       1.215   3.566  29.012  0.00  0.00    +0.214 C 
BRANCH  31  32
ATOM     32  O   UNL     1       1.011   3.098  30.351  0.00  0.00    -0.383 OA
ATOM     33  H   UNL     1       0.840   3.869  30.917  0.00  0.00    +0.210 HD
ENDBRANCH  31  32
BRANCH  30  34
ATOM     34  O   UNL     1       0.481   5.828  29.431  0.00  0.00    -0.386 OA
ATOM     35  H   UNL     1       0.826   6.669  29.785  0.00  0.00    +0.210 HD
ENDBRANCH  30  34
BRANCH  29  36
ATOM     36  O   UNL     1       2.508   6.810  27.569  0.00  0.00    -0.387 OA
ATOM     37  H   UNL     1       2.163   7.309  26.807  0.00  0.00    +0.210 HD
ENDBRANCH  29  36
ENDBRANCH  24  25
ENDBRANCH   7  24
BRANCH   1  38
ATOM     38  O   UNL     1       7.462  -3.133  25.525  0.00  0.00    -0.453 OA
BRANCH  38  40
ATOM     39  C   UNL     1       7.190  -2.721  23.066  0.00  0.00    +0.221 C 
ATOM     40  C   UNL     1       7.026  -3.666  24.282  0.00  0.00    +0.340 C 
ATOM     41  O   UNL     1       7.677  -4.920  24.042  0.00  0.00    -0.331 OA
ATOM     42  C   UNL     1       7.038  -5.706  23.027  0.00  0.00    +0.179 C 
ATOM     43  C   UNL     1       7.042  -4.942  21.696  0.00  0.00    +0.177 C 
ATOM     44  C   UNL     1       6.678  -3.449  21.804  0.00  0.00    +0.180 C 
BRANCH  44  45
ATOM     45  O   UNL     1       5.275  -3.192  21.630  0.00  0.00    -0.386 OA
ATOM     46  H   UNL     1       5.070  -2.281  21.921  0.00  0.00    +0.210 HD
ENDBRANCH  44  45
BRANCH  43  47
ATOM     47  O   UNL     1       6.193  -5.573  20.733  0.00  0.00    -0.386 OA
ATOM     48  H   UNL     1       6.214  -5.037  19.918  0.00  0.00    +0.210 HD
ENDBRANCH  43  47
BRANCH  42  49
ATOM     49  C   UNL     1       5.640  -6.230  23.420  0.00  0.00    +0.190 C 
BRANCH  49  50
ATOM     50  O   UNL     1       4.592  -5.415  22.906  0.00  0.00    -0.392 OA
ATOM     51  H   UNL     1       3.765  -5.923  22.977  0.00  0.00    +0.210 HD
ENDBRANCH  49  50
ENDBRANCH  42  49
BRANCH  39  52
ATOM     52  O   UNL     1       8.532  -2.203  22.905  0.00  0.00    -0.337 OA
BRANCH  52  56
ATOM     53  C   UNL     1       6.023   1.742  23.796  0.00  0.00    +0.041 C 
ATOM     54  C   UNL     1       7.426   1.188  23.616  0.00  0.00    +0.149 C 
ATOM     55  O   UNL     1       7.340  -0.163  23.104  0.00  0.00    -0.343 OA
ATOM     56  C   UNL     1       8.633  -0.789  23.145  0.00  0.00    +0.282 C 
ATOM     57  C   UNL     1       9.573  -0.081  22.144  0.00  0.00    +0.201 C 
ATOM     58  C   UNL     1       9.681   1.395  22.539  0.00  0.00    +0.179 C 
ATOM     59  C   UNL     1       8.294   2.048  22.674  0.00  0.00    +0.174 C 
BRANCH  59  60
ATOM     60  O   UNL     1       7.671   2.161  21.389  0.00  0.00    -0.387 OA
ATOM     61  H   UNL     1       8.394   2.220  20.732  0.00  0.00    +0.210 HD
ENDBRANCH  59  60
BRANCH  58  62
ATOM     62  O   UNL     1      10.492   2.085  21.588  0.00  0.00    -0.386 OA
ATOM     63  H   UNL     1      10.017   1.990  20.737  0.00  0.00    +0.210 HD
ENDBRANCH  58  62
BRANCH  57  64
ATOM     64  O   UNL     1       9.072  -0.204  20.798  0.00  0.00    -0.384 OA
ATOM     65  H   UNL     1       9.094  -1.160  20.582  0.00  0.00    +0.210 HD
ENDBRANCH  57  64
ENDBRANCH  52  56
ENDBRANCH  39  52
ENDBRANCH  38  40
ENDBRANCH   1  38
TORSDOF 20
ENDMDL
MODEL 2
REMARK VINA RESULT:      -6.4      2.858      5.789
REMARK  Name = 
REMARK  22 active torsions:
REMARK  status: ('A' for Active; 'I' for Inactive)
REMARK    1  A    between atoms: C_1  and  C_2
REMARK    2  A    between atoms: C_4  and  O_61
REMARK    3  A    between atoms: C_6  and  O_60
REMARK    4  A    between atoms: C_7  and  O_59
REMARK    5  A    between atoms: C_8  and  O_11
REMARK    6  A    between atoms: O_11  and  C_12
REMARK    7  A    between atoms: C_13  and  O_58
REMARK    8  A    between atoms: C_15  and  O_57
REMARK    9  A    between atoms: C_17  and  C_55
REMARK   10  A    between atoms: C_19  and  O_21
REMARK   11  A    between atoms: O_21  and  C_22
REMARK   12  A    between atoms: C_23  and  C_47
REMARK   13  A    between atoms: C_27  and  O_34
REMARK   14  A    between atoms: C_29  and  O_33
REMARK   15  A    between atoms: O_34  and  C_35
REMARK   16  A    between atoms: C_37  and  O_46
REMARK   17  A    between atoms: C_38  and  O_45
REMARK   18  A    between atoms: C_39  and  O_44
REMARK   19  A    between atoms: C_41  and  C_43
REMARK   20  A    between atoms: C_49  and  O_54
REMARK   21  A    between atoms: C_50  and  O_53
REMARK   22  A    between atoms: C_55  and  O_56
REMARK                            x       y       z     vdW  Elec       q    Type
REMARK                         _______ _______ _______ _____ _____    ______ ____
ROOT
ATOM      1  C   UNL     1       3.792  -2.288  27.755  0.00  0.00    +0.214 A 
ATOM      2  C   UNL     1       4.292  -1.075  28.504  0.00  0.00    +0.238 A 
ATOM      3  O   UNL     1       4.183  -1.004  29.723  0.00  0.00    -0.283 OA
ATOM      4  C   UNL     1       4.930  -0.009  27.713  0.00  0.00    +0.109 A 
ATOM      5  C   UNL     1       4.832  -0.103  26.341  0.00  0.00    +0.147 A 
ATOM      6  C   UNL     1       5.463   0.821  25.507  0.00  0.00    +0.093 A 
ATOM      7  C   UNL     1       6.190   1.890  26.031  0.00  0.00    +0.131 A 
ATOM      8  C   UNL     1       6.255   2.030  27.421  0.00  0.00    +0.092 A 
ATOM      9  O   UNL     1       4.091  -1.057  25.703  0.00  0.00    -0.451 OA
ATOM     10  C   UNL     1       5.648   1.078  28.259  0.00  0.00    +0.135 A 
ATOM     11  C   UNL     1       3.643  -2.165  26.408  0.00  0.00    +0.181 A 
ENDROOT
BRANCH  11  12
ATOM     12  C   UNL     1       2.999  -3.122  25.458  0.00  0.00    +0.025 A 
ATOM     13  C   UNL     1       1.613  -3.356  25.475  0.00  0.00    +0.015 A 
ATOM     14  C   UNL     1       1.037  -4.362  24.688  0.00  0.00    +0.050 A 
ATOM     15  C   UNL     1       1.831  -5.076  23.809  0.00  0.00    +0.158 A 
ATOM     16  C   UNL     1       3.161  -4.724  23.637  0.00  0.00    +0.159 A 
ATOM     17  C   UNL     1       3.757  -3.768  24.458  0.00  0.00    +0.060 A 
BRANCH  16  18
ATOM     18  O   UNL     1       3.860  -5.340  22.638  0.00  0.00    -0.503 OA
ATOM     19  H   UNL     1       3.228  -5.461  21.905  0.00  0.00    +0.292 HD
ENDBRANCH  16  18
BRANCH  15  20
ATOM     20  O   UNL     1       1.298  -6.128  23.125  0.00  0.00    -0.503 OA
ATOM     21  H   UNL     1       0.878  -5.735  22.335  0.00  0.00    +0.292 HD
ENDBRANCH  15  20
ENDBRANCH  11  12
BRANCH  10  22
ATOM     22  O   UNL     1       5.772   1.213  29.610  0.00  0.00    -0.506 OA
ATOM     23  H   UNL     1       6.654   0.947  29.913  0.00  0.00    +0.292 HD
ENDBRANCH  10  22
BRANCH   7  24
ATOM     24  O   UNL     1       6.850   2.837  25.275  0.00  0.00    -0.461 OA
BRANCH  24  25
ATOM     25  C   UNL     1       7.081   2.486  23.894  0.00  0.00    +0.339 C 
ATOM     26  O   UNL     1       8.386   1.929  23.694  0.00  0.00    -0.334 OA
ATOM     27  C   UNL     1       9.431   2.858  23.997  0.00  0.00    +0.150 C 
ATOM     28  C   UNL     1      10.761   2.125  23.847  0.00  0.00    +0.041 C 
ATOM     29  C   UNL     1       9.364   4.079  23.067  0.00  0.00    +0.174 C 
ATOM     30  C   UNL     1       7.969   4.729  23.079  0.00  0.00    +0.180 C 
ATOM     31  C   UNL     1       6.865   3.675  22.940  0.00  0.00    +0.214 C 
BRANCH  31  32
ATOM     32  O   UNL     1       5.555   4.233  23.100  0.00  0.00    -0.383 OA
ATOM     33  H   UNL     1       5.615   4.965  23.735  0.00  0.00    +0.210 HD
ENDBRANCH  31  32
BRANCH  30  34
ATOM     34  O   UNL     1       7.859   5.657  21.983  0.00  0.00    -0.386 OA
ATOM     35  H   UNL     1       8.718   6.108  21.883  0.00  0.00    +0.210 HD
ENDBRANCH  30  34
BRANCH  29  36
ATOM     36  O   UNL     1      10.348   5.066  23.395  0.00  0.00    -0.387 OA
ATOM     37  H   UNL     1      10.393   5.157  24.364  0.00  0.00    +0.210 HD
ENDBRANCH  29  36
ENDBRANCH  24  25
ENDBRANCH   7  24
BRANCH   1  38
ATOM     38  O   UNL     1       3.535  -3.347  28.597  0.00  0.00    -0.453 OA
BRANCH  38  40
ATOM     39  C   UNL     1       5.427  -4.642  27.580  0.00  0.00    +0.221 C 
ATOM     40  C   UNL     1       4.324  -4.527  28.660  0.00  0.00    +0.340 C 
ATOM     41  O   UNL     1       4.883  -4.662  29.973  0.00  0.00    -0.331 OA
ATOM     42  C   UNL     1       5.368  -5.982  30.250  0.00  0.00    +0.179 C 
ATOM     43  C   UNL     1       6.478  -6.350  29.256  0.00  0.00    +0.177 C 
ATOM     44  C   UNL     1       6.189  -5.969  27.792  0.00  0.00    +0.180 C 
BRANCH  44  45
ATOM     45  O   UNL     1       5.553  -7.018  27.046  0.00  0.00    -0.386 OA
ATOM     46  H   UNL     1       4.583  -6.970  27.171  0.00  0.00    +0.210 HD
ENDBRANCH  44  45
BRANCH  43  47
ATOM     47  O   UNL     1       6.803  -7.740  29.333  0.00  0.00    -0.386 OA
ATOM     48  H   UNL     1       6.932  -7.966  30.275  0.00  0.00    +0.210 HD
ENDBRANCH  43  47
BRANCH  42  49
ATOM     49  C   UNL     1       4.262  -7.055  30.348  0.00  0.00    +0.190 C 
BRANCH  49  50
ATOM     50  O   UNL     1       3.899  -7.574  29.073  0.00  0.00    -0.392 OA
ATOM     51  H   UNL     1       4.037  -8.537  29.101  0.00  0.00    +0.210 HD
ENDBRANCH  49  50
ENDBRANCH  42  49
BRANCH  39  52
ATOM     52  O   UNL     1       6.309  -3.495  27.521  0.00  0.00    -0.337 OA
BRANCH  52  56
ATOM     53  C   UNL     1       7.618  -5.346  23.336  0.00  0.00    +0.041 C 
ATOM     54  C   UNL     1       7.367  -4.048  24.087  0.00  0.00    +0.149 C 
ATOM     55  O   UNL     1       7.205  -4.338  25.495  0.00  0.00    -0.343 OA
ATOM     56  C   UNL     1       6.738  -3.170  26.188  0.00  0.00    +0.282 C 
ATOM     57  C   UNL     1       7.843  -2.090  26.166  0.00  0.00    +0.201 C 
ATOM     58  C   UNL     1       8.164  -1.753  24.706  0.00  0.00    +0.179 C 
ATOM     59  C   UNL     1       8.498  -3.017  23.894  0.00  0.00    +0.174 C 
BRANCH  59  60
ATOM     60  O   UNL     1       9.750  -3.566  24.322  0.00  0.00    -0.387 OA
ATOM     61  H   UNL     1      10.450  -3.006  23.928  0.00  0.00    +0.210 HD
ENDBRANCH  59  60
BRANCH  58  62
ATOM     62  O   UNL     1       9.231  -0.805  24.660  0.00  0.00    -0.386 OA
ATOM     63  H   UNL     1       9.612  -0.812  25.561  0.00  0.00    +0.210 HD
ENDBRANCH  58  62
BRANCH  57  64
ATOM     64  O   UNL     1       9.027  -2.556  26.844  0.00  0.00    -0.384 OA
ATOM     65  H   UNL     1       9.232  -1.888  27.532  0.00  0.00    +0.210 HD
ENDBRANCH  57  64
ENDBRANCH  52  56
ENDBRANCH  39  52
ENDBRANCH  38  40
ENDBRANCH   1  38
TORSDOF 20
ENDMDL
MODEL 3
REMARK VINA RESULT:      -6.2      2.446      8.339
REMARK  Name = 
REMARK  22 active torsions:
REMARK  status: ('A' for Active; 'I' for Inactive)
REMARK    1  A    between atoms: C_1  and  C_2
REMARK    2  A    between atoms: C_4  and  O_61
REMARK    3  A    between atoms: C_6  and  O_60
REMARK    4  A    between atoms: C_7  and  O_59
REMARK    5  A    between atoms: C_8  and  O_11
REMARK    6  A    between atoms: O_11  and  C_12
REMARK    7  A    between atoms: C_13  and  O_58
REMARK    8  A    between atoms: C_15  and  O_57
REMARK    9  A    between atoms: C_17  and  C_55
REMARK   10  A    between atoms: C_19  and  O_21
REMARK   11  A    between atoms: O_21  and  C_22
REMARK   12  A    between atoms: C_23  and  C_47
REMARK   13  A    between atoms: C_27  and  O_34
REMARK   14  A    between atoms: C_29  and  O_33
REMARK   15  A    between atoms: O_34  and  C_35
REMARK   16  A    between atoms: C_37  and  O_46
REMARK   17  A    between atoms: C_38  and  O_45
REMARK   18  A    between atoms: C_39  and  O_44
REMARK   19  A    between atoms: C_41  and  C_43
REMARK   20  A    between atoms: C_49  and  O_54
REMARK   21  A    between atoms: C_50  and  O_53
REMARK   22  A    between atoms: C_55  and  O_56
REMARK                            x       y       z     vdW  Elec       q    Type
REMARK                         _______ _______ _______ _____ _____    ______ ____
ROOT
ATOM      1  C   UNL     1       7.046  -1.626  25.692  0.00  0.00    +0.214 A 
ATOM      2  C   UNL     1       7.037  -2.762  24.696  0.00  0.00    +0.238 A 
ATOM      3  O   UNL     1       7.778  -2.744  23.720  0.00  0.00    -0.283 OA
ATOM      4  C   UNL     1       6.126  -3.887  24.965  0.00  0.00    +0.109 A 
ATOM      5  C   UNL     1       5.207  -3.722  25.980  0.00  0.00    +0.147 A 
ATOM      6  C   UNL     1       4.350  -4.757  26.355  0.00  0.00    +0.093 A 
ATOM      7  C   UNL     1       4.369  -5.987  25.695  0.00  0.00    +0.131 A 
ATOM      8  C   UNL     1       5.259  -6.154  24.629  0.00  0.00    +0.092 A 
ATOM      9  O   UNL     1       5.035  -2.546  26.654  0.00  0.00    -0.451 OA
ATOM     10  C   UNL     1       6.147  -5.121  24.277  0.00  0.00    +0.135 A 
ATOM     11  C   UNL     1       5.992  -1.547  26.550  0.00  0.00    +0.181 A 
ENDROOT
BRANCH  11  12
ATOM     12  C   UNL     1       5.650  -0.441  27.494  0.00  0.00    +0.025 A 
ATOM     13  C   UNL     1       4.316  -0.107  27.785  0.00  0.00    +0.015 A 
ATOM     14  C   UNL     1       4.002   1.025  28.550  0.00  0.00    +0.050 A 
ATOM     15  C   UNL     1       5.022   1.774  29.108  0.00  0.00    +0.158 A 
ATOM     16  C   UNL     1       6.335   1.345  28.995  0.00  0.00    +0.159 A 
ATOM     17  C   UNL     1       6.663   0.258  28.186  0.00  0.00    +0.060 A 
BRANCH  16  18
ATOM     18  O   UNL     1       7.290   2.019  29.703  0.00  0.00    -0.503 OA
ATOM     19  H   UNL     1       7.835   2.484  29.041  0.00  0.00    +0.292 HD
ENDBRANCH  16  18
BRANCH  15  20
ATOM     20  O   UNL     1       4.725   2.935  29.756  0.00  0.00    -0.503 OA
ATOM     21  H   UNL     1       4.032   3.363  29.215  0.00  0.00    +0.292 HD
ENDBRANCH  15  20
ENDBRANCH  11  12
BRANCH  10  22
ATOM     22  O   UNL     1       7.037  -5.331  23.266  0.00  0.00    -0.506 OA
ATOM     23  H   UNL     1       7.536  -6.153  23.399  0.00  0.00    +0.292 HD
ENDBRANCH  10  22
BRANCH   7  24
ATOM     24  O   UNL     1       3.564  -7.061  26.012  0.00  0.00    -0.461 OA
BRANCH  24  25
ATOM     25  C   UNL     1       2.180  -6.942  25.619  0.00  0.00    +0.339 C 
ATOM     26  O   UNL     1       1.306  -6.871  26.752  0.00  0.00    -0.334 OA
ATOM     27  C   UNL     1       1.342  -8.061  27.548  0.00  0.00    +0.150 C 
ATOM     28  C   UNL     1       0.457  -7.828  28.769  0.00  0.00    +0.041 C 
ATOM     29  C   UNL     1       0.860  -9.275  26.738  0.00  0.00    +0.174 C 
ATOM     30  C   UNL     1       1.633  -9.421  25.415  0.00  0.00    +0.180 C 
ATOM     31  C   UNL     1       1.733  -8.079  24.681  0.00  0.00    +0.214 C 
BRANCH  31  32
ATOM     32  O   UNL     1       2.576  -8.153  23.524  0.00  0.00    -0.383 OA
ATOM     33  H   UNL     1       3.259  -7.466  23.605  0.00  0.00    +0.210 HD
ENDBRANCH  31  32
BRANCH  30  34
ATOM     34  O   UNL     1       0.955 -10.362  24.561  0.00  0.00    -0.386 OA
ATOM     35  H   UNL     1       1.529 -11.143  24.458  0.00  0.00    +0.210 HD
ENDBRANCH  30  34
BRANCH  29  36
ATOM     36  O   UNL     1       0.958 -10.495  27.481  0.00  0.00    -0.387 OA
ATOM     37  H   UNL     1       0.266 -11.107  27.174  0.00  0.00    +0.210 HD
ENDBRANCH  29  36
ENDBRANCH  24  25
ENDBRANCH   7  24
BRANCH   1  38
ATOM     38  O   UNL     1       8.146  -0.813  25.541  0.00  0.00    -0.453 OA
BRANCH  38  40
ATOM     39  C   UNL     1       7.725   1.366  24.372  0.00  0.00    +0.221 C 
ATOM     40  C   UNL     1       8.405  -0.025  24.387  0.00  0.00    +0.340 C 
ATOM     41  O   UNL     1       9.820   0.101  24.198  0.00  0.00    -0.331 OA
ATOM     42  C   UNL     1      10.180   0.541  22.881  0.00  0.00    +0.179 C 
ATOM     43  C   UNL     1       9.572   1.924  22.609  0.00  0.00    +0.177 C 
ATOM     44  C   UNL     1       8.109   2.089  23.063  0.00  0.00    +0.180 C 
BRANCH  44  45
ATOM     45  O   UNL     1       7.156   1.774  22.036  0.00  0.00    -0.386 OA
ATOM     46  H   UNL     1       7.495   1.037  21.488  0.00  0.00    +0.210 HD
ENDBRANCH  44  45
BRANCH  43  47
ATOM     47  O   UNL     1       9.688   2.279  21.229  0.00  0.00    -0.386 OA
ATOM     48  H   UNL     1      10.587   2.038  20.933  0.00  0.00    +0.210 HD
ENDBRANCH  43  47
BRANCH  42  49
ATOM     49  C   UNL     1       9.877  -0.483  21.767  0.00  0.00    +0.190 C 
BRANCH  49  50
ATOM     50  O   UNL     1      10.469  -1.752  22.023  0.00  0.00    -0.392 OA
ATOM     51  H   UNL     1      10.212  -2.346  21.297  0.00  0.00    +0.210 HD
ENDBRANCH  49  50
ENDBRANCH  42  49
BRANCH  39  52
ATOM     52  O   UNL     1       7.997   2.162  25.550  0.00  0.00    -0.337 OA
BRANCH  52  56
ATOM     53  C   UNL     1      10.168   6.289  24.595  0.00  0.00    +0.041 C 
ATOM     54  C   UNL     1       8.820   5.635  24.854  0.00  0.00    +0.149 C 
ATOM     55  O   UNL     1       9.032   4.283  25.325  0.00  0.00    -0.343 OA
ATOM     56  C   UNL     1       7.784   3.570  25.353  0.00  0.00    +0.282 C 
ATOM     57  C   UNL     1       6.869   4.191  26.431  0.00  0.00    +0.201 C 
ATOM     58  C   UNL     1       6.635   5.664  26.082  0.00  0.00    +0.179 C 
ATOM     59  C   UNL     1       7.962   6.413  25.872  0.00  0.00    +0.174 C 
BRANCH  59  60
ATOM     60  O   UNL     1       8.662   6.543  27.115  0.00  0.00    -0.387 OA
ATOM     61  H   UNL     1       9.479   6.011  27.032  0.00  0.00    +0.210 HD
ENDBRANCH  59  60
BRANCH  58  62
ATOM     62  O   UNL     1       5.845   6.276  27.101  0.00  0.00    -0.386 OA
ATOM     63  H   UNL     1       5.082   6.666  26.628  0.00  0.00    +0.210 HD
ENDBRANCH  58  62
BRANCH  57  64
ATOM     64  O   UNL     1       7.467   4.075  27.738  0.00  0.00    -0.384 OA
ATOM     65  H   UNL     1       8.425   4.248  27.620  0.00  0.00    +0.210 HD
ENDBRANCH  57  64
ENDBRANCH  52  56
ENDBRANCH  39  52
ENDBRANCH  38  40
ENDBRANCH   1  38
TORSDOF 20
ENDMDL
MODEL 4
REMARK VINA RESULT:      -6.1      3.294      7.167
REMARK  Name = 
REMARK  22 active torsions:
REMARK  status: ('A' for Active; 'I' for Inactive)
REMARK    1  A    between atoms: C_1  and  C_2
REMARK    2  A    between atoms: C_4  and  O_61
REMARK    3  A    between atoms: C_6  and  O_60
REMARK    4  A    between atoms: C_7  and  O_59
REMARK    5  A    between atoms: C_8  and  O_11
REMARK    6  A    between atoms: O_11  and  C_12
REMARK    7  A    between atoms: C_13  and  O_58
REMARK    8  A    between atoms: C_15  and  O_57
REMARK    9  A    between atoms: C_17  and  C_55
REMARK   10  A    between atoms: C_19  and  O_21
REMARK   11  A    between atoms: O_21  and  C_22
REMARK   12  A    between atoms: C_23  and  C_47
REMARK   13  A    between atoms: C_27  and  O_34
REMARK   14  A    between atoms: C_29  and  O_33
REMARK   15  A    between atoms: O_34  and  C_35
REMARK   16  A    between atoms: C_37  and  O_46
REMARK   17  A    between atoms: C_38  and  O_45
REMARK   18  A    between atoms: C_39  and  O_44
REMARK   19  A    between atoms: C_41  and  C_43
REMARK   20  A    between atoms: C_49  and  O_54
REMARK   21  A    between atoms: C_50  and  O_53
REMARK   22  A    between atoms: C_55  and  O_56
REMARK                            x       y       z     vdW  Elec       q    Type
REMARK                         _______ _______ _______ _____ _____    ______ ____
ROOT
ATOM      1  C   UNL     1       6.190  -3.041  26.621  0.00  0.00    +0.214 A 
ATOM      2  C   UNL     1       7.566  -2.730  26.078  0.00  0.00    +0.238 A 
ATOM      3  O   UNL     1       8.379  -3.627  25.887  0.00  0.00    -0.283 OA
ATOM      4  C   UNL     1       7.867  -1.322  25.768  0.00  0.00    +0.109 A 
ATOM      5  C   UNL     1       6.956  -0.378  26.193  0.00  0.00    +0.147 A 
ATOM      6  C   UNL     1       7.120   0.973  25.886  0.00  0.00    +0.093 A 
ATOM      7  C   UNL     1       8.226   1.422  25.165  0.00  0.00    +0.131 A 
ATOM      8  C   UNL     1       9.187   0.484  24.771  0.00  0.00    +0.092 A 
ATOM      9  O   UNL     1       5.871  -0.675  26.969  0.00  0.00    -0.451 OA
ATOM     10  C   UNL     1       9.001  -0.881  25.051  0.00  0.00    +0.135 A 
ATOM     11  C   UNL     1       5.469  -1.995  27.112  0.00  0.00    +0.181 A 
ENDROOT
BRANCH  11  12
ATOM     12  C   UNL     1       4.183  -2.035  27.871  0.00  0.00    +0.025 A 
ATOM     13  C   UNL     1       4.152  -2.273  29.256  0.00  0.00    +0.015 A 
ATOM     14  C   UNL     1       2.939  -2.460  29.933  0.00  0.00    +0.050 A 
ATOM     15  C   UNL     1       1.748  -2.315  29.247  0.00  0.00    +0.158 A 
ATOM     16  C   UNL     1       1.757  -1.887  27.929  0.00  0.00    +0.159 A 
ATOM     17  C   UNL     1       2.956  -1.760  27.229  0.00  0.00    +0.060 A 
BRANCH  16  18
ATOM     18  O   UNL     1       0.558  -1.594  27.344  0.00  0.00    -0.503 OA
ATOM     19  H   UNL     1       0.711  -1.641  26.382  0.00  0.00    +0.292 HD
ENDBRANCH  16  18
BRANCH  15  20
ATOM     20  O   UNL     1       0.572  -2.606  29.874  0.00  0.00    -0.503 OA
ATOM     21  H   UNL     1       0.648  -2.204  30.762  0.00  0.00    +0.292 HD
ENDBRANCH  15  20
ENDBRANCH  11  12
BRANCH  10  22
ATOM     22  O   UNL     1       9.929  -1.778  24.610  0.00  0.00    -0.506 OA
ATOM     23  H   UNL     1      10.169  -2.410  25.306  0.00  0.00    +0.292 HD
ENDBRANCH  10  22
BRANCH   7  24
ATOM     24  O   UNL     1       8.455   2.736  24.812  0.00  0.00    -0.461 OA
BRANCH  24  25
ATOM     25  C   UNL     1       8.904   2.951  23.457  0.00  0.00    +0.339 C 
ATOM     26  O   UNL     1      10.046   3.816  23.403  0.00  0.00    -0.334 OA
ATOM     27  C   UNL     1       9.760   5.132  23.889  0.00  0.00    +0.150 C 
ATOM     28  C   UNL     1      11.065   5.923  23.877  0.00  0.00    +0.041 C 
ATOM     29  C   UNL     1       8.691   5.815  23.022  0.00  0.00    +0.174 C 
ATOM     30  C   UNL     1       7.428   4.945  22.883  0.00  0.00    +0.180 C 
ATOM     31  C   UNL     1       7.789   3.495  22.545  0.00  0.00    +0.214 C 
BRANCH  31  32
ATOM     32  O   UNL     1       6.645   2.631  22.560  0.00  0.00    -0.383 OA
ATOM     33  H   UNL     1       6.916   1.780  22.944  0.00  0.00    +0.210 HD
ENDBRANCH  31  32
BRANCH  30  34
ATOM     34  O   UNL     1       6.594   5.469  21.832  0.00  0.00    -0.386 OA
ATOM     35  H   UNL     1       5.664   5.293  22.069  0.00  0.00    +0.210 HD
ENDBRANCH  30  34
BRANCH  29  36
ATOM     36  O   UNL     1       8.324   7.103  23.527  0.00  0.00    -0.387 OA
ATOM     37  H   UNL     1       9.028   7.421  24.121  0.00  0.00    +0.210 HD
ENDBRANCH  29  36
ENDBRANCH  24  25
ENDBRANCH   7  24
BRANCH   1  38
ATOM     38  O   UNL     1       5.897  -4.383  26.553  0.00  0.00    -0.453 OA
BRANCH  38  40
ATOM     39  C   UNL     1       4.092  -5.852  25.617  0.00  0.00    +0.221 C 
ATOM     40  C   UNL     1       5.387  -5.032  25.396  0.00  0.00    +0.340 C 
ATOM     41  O   UNL     1       5.207  -4.073  24.347  0.00  0.00    -0.331 OA
ATOM     42  C   UNL     1       5.065  -4.669  23.051  0.00  0.00    +0.179 C 
ATOM     43  C   UNL     1       3.833  -5.585  23.030  0.00  0.00    +0.177 C 
ATOM     44  C   UNL     1       3.672  -6.483  24.271  0.00  0.00    +0.180 C 
BRANCH  44  45
ATOM     45  O   UNL     1       4.290  -7.771  24.125  0.00  0.00    -0.386 OA
ATOM     46  H   UNL     1       5.234  -7.659  23.894  0.00  0.00    +0.210 HD
ENDBRANCH  44  45
BRANCH  43  47
ATOM     47  O   UNL     1       3.806  -6.391  21.849  0.00  0.00    -0.386 OA
ATOM     48  H   UNL     1       3.819  -7.328  22.125  0.00  0.00    +0.210 HD
ENDBRANCH  43  47
BRANCH  42  49
ATOM     49  C   UNL     1       6.343  -5.361  22.529  0.00  0.00    +0.190 C 
BRANCH  49  50
ATOM     50  O   UNL     1       6.355  -5.475  21.110  0.00  0.00    -0.392 OA
ATOM     51  H   UNL     1       6.827  -4.699  20.760  0.00  0.00    +0.210 HD
ENDBRANCH  49  50
ENDBRANCH  42  49
BRANCH  39  52
ATOM     52  O   UNL     1       3.023  -5.099  26.239  0.00  0.00    -0.337 OA
BRANCH  52  56
ATOM     53  C   UNL     1       5.283  -6.379  30.227  0.00  0.00    +0.041 C 
ATOM     54  C   UNL     1       3.930  -6.012  29.640  0.00  0.00    +0.149 C 
ATOM     55  O   UNL     1       4.035  -5.972  28.197  0.00  0.00    -0.343 OA
ATOM     56  C   UNL     1       2.842  -5.404  27.632  0.00  0.00    +0.282 C 
ATOM     57  C   UNL     1       1.655  -6.361  27.883  0.00  0.00    +0.201 C 
ATOM     58  C   UNL     1       1.493  -6.550  29.394  0.00  0.00    +0.179 C 
ATOM     59  C   UNL     1       2.812  -6.990  30.054  0.00  0.00    +0.174 C 
BRANCH  59  60
ATOM     60  O   UNL     1       3.145  -8.325  29.654  0.00  0.00    -0.387 OA
ATOM     61  H   UNL     1       4.111  -8.422  29.785  0.00  0.00    +0.210 HD
ENDBRANCH  59  60
BRANCH  58  62
ATOM     62  O   UNL     1       0.444  -7.484  29.649  0.00  0.00    -0.386 OA
ATOM     63  H   UNL     1       0.219  -7.853  28.771  0.00  0.00    +0.210 HD
ENDBRANCH  58  62
BRANCH  57  64
ATOM     64  O   UNL     1       1.879  -7.632  27.241  0.00  0.00    -0.384 OA
ATOM     65  H   UNL     1       2.161  -7.433  26.323  0.00  0.00    +0.210 HD
ENDBRANCH  57  64
ENDBRANCH  52  56
ENDBRANCH  39  52
ENDBRANCH  38  40
ENDBRANCH   1  38
TORSDOF 20
ENDMDL
MODEL 5
REMARK VINA RESULT:      -6.0      2.680      5.445
REMARK  Name = 
REMARK  22 active torsions:
REMARK  status: ('A' for Active; 'I' for Inactive)
REMARK    1  A    between atoms: C_1  and  C_2
REMARK    2  A    between atoms: C_4  and  O_61
REMARK    3  A    between atoms: C_6  and  O_60
REMARK    4  A    between atoms: C_7  and  O_59
REMARK    5  A    between atoms: C_8  and  O_11
REMARK    6  A    between atoms: O_11  and  C_12
REMARK    7  A    between atoms: C_13  and  O_58
REMARK    8  A    between atoms: C_15  and  O_57
REMARK    9  A    between atoms: C_17  and  C_55
REMARK   10  A    between atoms: C_19  and  O_21
REMARK   11  A    between atoms: O_21  and  C_22
REMARK   12  A    between atoms: C_23  and  C_47
REMARK   13  A    between atoms: C_27  and  O_34
REMARK   14  A    between atoms: C_29  and  O_33
REMARK   15  A    between atoms: O_34  and  C_35
REMARK   16  A    between atoms: C_37  and  O_46
REMARK   17  A    between atoms: C_38  and  O_45
REMARK   18  A    between atoms: C_39  and  O_44
REMARK   19  A    between atoms: C_41  and  C_43
REMARK   20  A    between atoms: C_49  and  O_54
REMARK   21  A    between atoms: C_50  and  O_53
REMARK   22  A    between atoms: C_55  and  O_56
REMARK                            x       y       z     vdW  Elec       q    Type
REMARK                         _______ _______ _______ _____ _____    ______ ____
ROOT
ATOM      1  C   UNL     1       6.908  -1.947  26.646  0.00  0.00    +0.214 A 
ATOM      2  C   UNL     1       8.137  -1.125  26.334  0.00  0.00    +0.238 A 
ATOM      3  O   UNL     1       9.241  -1.472  26.739  0.00  0.00    -0.283 OA
ATOM      4  C   UNL     1       7.951   0.081  25.511  0.00  0.00    +0.109 A 
ATOM      5  C   UNL     1       6.653   0.481  25.268  0.00  0.00    +0.147 A 
ATOM      6  C   UNL     1       6.375   1.570  24.442  0.00  0.00    +0.093 A 
ATOM      7  C   UNL     1       7.399   2.314  23.856  0.00  0.00    +0.131 A 
ATOM      8  C   UNL     1       8.723   1.954  24.133  0.00  0.00    +0.092 A 
ATOM      9  O   UNL     1       5.564  -0.114  25.840  0.00  0.00    -0.451 OA
ATOM     10  C   UNL     1       8.999   0.834  24.938  0.00  0.00    +0.135 A 
ATOM     11  C   UNL     1       5.700  -1.349  26.458  0.00  0.00    +0.181 A 
ENDROOT
BRANCH  11  12
ATOM     12  C   UNL     1       4.350  -1.847  26.858  0.00  0.00    +0.025 A 
ATOM     13  C   UNL     1       3.864  -1.689  28.168  0.00  0.00    +0.015 A 
ATOM     14  C   UNL     1       2.665  -2.289  28.575  0.00  0.00    +0.050 A 
ATOM     15  C   UNL     1       1.898  -2.973  27.649  0.00  0.00    +0.158 A 
ATOM     16  C   UNL     1       2.264  -2.971  26.312  0.00  0.00    +0.159 A 
ATOM     17  C   UNL     1       3.484  -2.430  25.908  0.00  0.00    +0.060 A 
BRANCH  16  18
ATOM     18  O   UNL     1       1.391  -3.510  25.411  0.00  0.00    -0.503 OA
ATOM     19  H   UNL     1       1.345  -4.462  25.620  0.00  0.00    +0.292 HD
ENDBRANCH  16  18
BRANCH  15  20
ATOM     20  O   UNL     1       0.792  -3.652  28.065  0.00  0.00    -0.503 OA
ATOM     21  H   UNL     1       0.847  -4.526  27.629  0.00  0.00    +0.292 HD
ENDBRANCH  15  20
ENDBRANCH  11  12
BRANCH  10  22
ATOM     22  O   UNL     1      10.299   0.478  25.149  0.00  0.00    -0.506 OA
ATOM     23  H   UNL     1      10.477  -0.418  24.824  0.00  0.00    +0.292 HD
ENDBRANCH  10  22
BRANCH   7  24
ATOM     24  O   UNL     1       7.208   3.394  23.020  0.00  0.00    -0.461 OA
BRANCH  24  25
ATOM     25  C   UNL     1       7.361   4.693  23.632  0.00  0.00    +0.339 C 
ATOM     26  O   UNL     1       6.670   4.778  24.886  0.00  0.00    -0.334 OA
ATOM     27  C   UNL     1       5.255   4.624  24.744  0.00  0.00    +0.150 C 
ATOM     28  C   UNL     1       4.646   4.630  26.143  0.00  0.00    +0.041 C 
ATOM     29  C   UNL     1       4.665   5.748  23.879  0.00  0.00    +0.174 C 
ATOM     30  C   UNL     1       5.389   5.865  22.525  0.00  0.00    +0.180 C 
ATOM     31  C   UNL     1       6.911   5.838  22.706  0.00  0.00    +0.214 C 
BRANCH  31  32
ATOM     32  O   UNL     1       7.608   5.792  21.455  0.00  0.00    -0.383 OA
ATOM     33  H   UNL     1       7.906   4.878  21.310  0.00  0.00    +0.210 HD
ENDBRANCH  31  32
BRANCH  30  34
ATOM     34  O   UNL     1       5.024   7.103  21.887  0.00  0.00    -0.386 OA
ATOM     35  H   UNL     1       5.227   7.832  22.504  0.00  0.00    +0.210 HD
ENDBRANCH  30  34
BRANCH  29  36
ATOM     36  O   UNL     1       3.262   5.580  23.651  0.00  0.00    -0.387 OA
ATOM     37  H   UNL     1       2.776   5.881  24.440  0.00  0.00    +0.210 HD
ENDBRANCH  29  36
ENDBRANCH  24  25
ENDBRANCH   7  24
BRANCH   1  38
ATOM     38  O   UNL     1       7.229  -3.201  27.114  0.00  0.00    -0.453 OA
BRANCH  38  40
ATOM     39  C   UNL     1       5.962  -5.100  26.074  0.00  0.00    +0.221 C 
ATOM     40  C   UNL     1       6.284  -4.242  27.322  0.00  0.00    +0.340 C 
ATOM     41  O   UNL     1       6.714  -5.071  28.409  0.00  0.00    -0.331 OA
ATOM     42  C   UNL     1       5.671  -5.900  28.938  0.00  0.00    +0.179 C 
ATOM     43  C   UNL     1       5.146  -6.840  27.844  0.00  0.00    +0.177 C 
ATOM     44  C   UNL     1       4.931  -6.179  26.470  0.00  0.00    +0.180 C 
BRANCH  44  45
ATOM     45  O   UNL     1       3.600  -5.672  26.285  0.00  0.00    -0.386 OA
ATOM     46  H   UNL     1       3.075  -5.824  27.096  0.00  0.00    +0.210 HD
ENDBRANCH  44  45
BRANCH  43  47
ATOM     47  O   UNL     1       3.942  -7.493  28.255  0.00  0.00    -0.386 OA
ATOM     48  H   UNL     1       3.240  -7.254  27.621  0.00  0.00    +0.210 HD
ENDBRANCH  43  47
BRANCH  42  49
ATOM     49  C   UNL     1       4.548  -5.122  29.657  0.00  0.00    +0.190 C 
BRANCH  49  50
ATOM     50  O   UNL     1       3.752  -5.963  30.485  0.00  0.00    -0.392 OA
ATOM     51  H   UNL     1       3.776  -5.593  31.385  0.00  0.00    +0.210 HD
ENDBRANCH  49  50
ENDBRANCH  42  49
BRANCH  39  52
ATOM     52  O   UNL     1       7.132  -5.655  25.428  0.00  0.00    -0.337 OA
BRANCH  52  56
ATOM     53  C   UNL     1       7.615  -1.865  22.590  0.00  0.00    +0.041 C 
ATOM     54  C   UNL     1       7.555  -3.384  22.620  0.00  0.00    +0.149 C 
ATOM     55  O   UNL     1       7.127  -3.815  23.933  0.00  0.00    -0.343 OA
ATOM     56  C   UNL     1       7.286  -5.237  24.061  0.00  0.00    +0.282 C 
ATOM     57  C   UNL     1       6.300  -5.946  23.107  0.00  0.00    +0.201 C 
ATOM     58  C   UNL     1       6.604  -5.501  21.674  0.00  0.00    +0.179 C 
ATOM     59  C   UNL     1       6.614  -3.968  21.547  0.00  0.00    +0.174 C 
BRANCH  59  60
ATOM     60  O   UNL     1       5.289  -3.447  21.712  0.00  0.00    -0.387 OA
ATOM     61  H   UNL     1       4.995  -3.148  20.827  0.00  0.00    +0.210 HD
ENDBRANCH  59  60
BRANCH  58  62
ATOM     62  O   UNL     1       5.660  -6.092  20.780  0.00  0.00    -0.386 OA
ATOM     63  H   UNL     1       5.907  -7.039  20.745  0.00  0.00    +0.210 HD
ENDBRANCH  58  62
BRANCH  57  64
ATOM     64  O   UNL     1       4.937  -5.627  23.452  0.00  0.00    -0.384 OA
ATOM     65  H   UNL     1       4.915  -5.525  24.427  0.00  0.00    +0.210 HD
ENDBRANCH  57  64
ENDBRANCH  52  56
ENDBRANCH  39  52
ENDBRANCH  38  40
ENDBRANCH   1  38
TORSDOF 20
ENDMDL
MODEL 6
REMARK VINA RESULT:      -6.0      2.573      8.659
REMARK  Name = 
REMARK  22 active torsions:
REMARK  status: ('A' for Active; 'I' for Inactive)
REMARK    1  A    between atoms: C_1  and  C_2
REMARK    2  A    between atoms: C_4  and  O_61
REMARK    3  A    between atoms: C_6  and  O_60
REMARK    4  A    between atoms: C_7  and  O_59
REMARK    5  A    between atoms: C_8  and  O_11
REMARK    6  A    between atoms: O_11  and  C_12
REMARK    7  A    between atoms: C_13  and  O_58
REMARK    8  A    between atoms: C_15  and  O_57
REMARK    9  A    between atoms: C_17  and  C_55
REMARK   10  A    between atoms: C_19  and  O_21
REMARK   11  A    between atoms: O_21  and  C_22
REMARK   12  A    between atoms: C_23  and  C_47
REMARK   13  A    between atoms: C_27  and  O_34
REMARK   14  A    between atoms: C_29  and  O_33
REMARK   15  A    between atoms: O_34  and  C_35
REMARK   16  A    between atoms: C_37  and  O_46
REMARK   17  A    between atoms: C_38  and  O_45
REMARK   18  A    between atoms: C_39  and  O_44
REMARK   19  A    between atoms: C_41  and  C_43
REMARK   20  A    between atoms: C_49  and  O_54
REMARK   21  A    between atoms: C_50  and  O_53
REMARK   22  A    between atoms: C_55  and  O_56
REMARK                            x       y       z     vdW  Elec       q    Type
REMARK                         _______ _______ _______ _____ _____    ______ ____
ROOT
ATOM      1  C   UNL     1       7.606  -1.932  25.427  0.00  0.00    +0.214 A 
ATOM      2  C   UNL     1       7.508  -3.289  26.084  0.00  0.00    +0.238 A 
ATOM      3  O   UNL     1       8.130  -3.532  27.112  0.00  0.00    -0.283 OA
ATOM      4  C   UNL     1       6.624  -4.283  25.453  0.00  0.00    +0.109 A 
ATOM      5  C   UNL     1       6.122  -3.973  24.206  0.00  0.00    +0.147 A 
ATOM      6  C   UNL     1       5.221  -4.819  23.559  0.00  0.00    +0.093 A 
ATOM      7  C   UNL     1       4.819  -6.024  24.136  0.00  0.00    +0.131 A 
ATOM      8  C   UNL     1       5.358  -6.379  25.377  0.00  0.00    +0.092 A 
ATOM      9  O   UNL     1       6.493  -2.863  23.501  0.00  0.00    -0.451 OA
ATOM     10  C   UNL     1       6.239  -5.507  26.042  0.00  0.00    +0.135 A 
ATOM     11  C   UNL     1       7.167  -1.834  24.142  0.00  0.00    +0.181 A 
ENDROOT
BRANCH  11  12
ATOM     12  C   UNL     1       7.316  -0.684  23.200  0.00  0.00    +0.025 A 
ATOM     13  C   UNL     1       8.405  -0.592  22.316  0.00  0.00    +0.015 A 
ATOM     14  C   UNL     1       8.619   0.559  21.545  0.00  0.00    +0.050 A 
ATOM     15  C   UNL     1       7.693   1.585  21.584  0.00  0.00    +0.158 A 
ATOM     16  C   UNL     1       6.515   1.427  22.298  0.00  0.00    +0.159 A 
ATOM     17  C   UNL     1       6.322   0.314  23.116  0.00  0.00    +0.060 A 
BRANCH  16  18
ATOM     18  O   UNL     1       5.557   2.391  22.169  0.00  0.00    -0.503 OA
ATOM     19  H   UNL     1       5.464   2.795  23.053  0.00  0.00    +0.292 HD
ENDBRANCH  16  18
BRANCH  15  20
ATOM     20  O   UNL     1       7.953   2.749  20.924  0.00  0.00    -0.503 OA
ATOM     21  H   UNL     1       8.450   2.487  20.124  0.00  0.00    +0.292 HD
ENDBRANCH  15  20
ENDBRANCH  11  12
BRANCH  10  22
ATOM     22  O   UNL     1       6.709  -5.857  27.274  0.00  0.00    -0.506 OA
ATOM     23  H   UNL     1       6.399  -5.243  27.958  0.00  0.00    +0.292 HD
ENDBRANCH  10  22
BRANCH   7  24
ATOM     24  O   UNL     1       3.926  -6.908  23.567  0.00  0.00    -0.461 OA
BRANCH  24  25
ATOM     25  C   UNL     1       2.535  -6.530  23.646  0.00  0.00    +0.339 C 
ATOM     26  O   UNL     1       2.139  -6.223  24.989  0.00  0.00    -0.334 OA
ATOM     27  C   UNL     1       2.245  -7.351  25.864  0.00  0.00    +0.150 C 
ATOM     28  C   UNL     1       1.898  -6.878  27.273  0.00  0.00    +0.041 C 
ATOM     29  C   UNL     1       1.307  -8.481  25.413  0.00  0.00    +0.174 C 
ATOM     30  C   UNL     1       1.529  -8.852  23.936  0.00  0.00    +0.180 C 
ATOM     31  C   UNL     1       1.598  -7.600  23.055  0.00  0.00    +0.214 C 
BRANCH  31  32
ATOM     32  O   UNL     1       1.955  -7.904  21.701  0.00  0.00    -0.383 OA
ATOM     33  H   UNL     1       1.940  -7.077  21.192  0.00  0.00    +0.210 HD
ENDBRANCH  31  32
BRANCH  30  34
ATOM     34  O   UNL     1       0.443  -9.678  23.476  0.00  0.00    -0.386 OA
ATOM     35  H   UNL     1       0.824 -10.478  23.067  0.00  0.00    +0.210 HD
ENDBRANCH  30  34
BRANCH  29  36
ATOM     36  O   UNL     1       1.446  -9.655  26.221  0.00  0.00    -0.387 OA
ATOM     37  H   UNL     1       1.915  -9.420  27.042  0.00  0.00    +0.210 HD
ENDBRANCH  29  36
ENDBRANCH  24  25
ENDBRANCH   7  24
BRANCH   1  38
ATOM     38  O   UNL     1       8.168  -0.992  26.261  0.00  0.00    -0.453 OA
BRANCH  38  40
ATOM     39  C   UNL     1       7.992   1.466  26.726  0.00  0.00    +0.221 C 
ATOM     40  C   UNL     1       7.437   0.033  26.919  0.00  0.00    +0.340 C 
ATOM     41  O   UNL     1       6.059  -0.033  26.529  0.00  0.00    -0.331 OA
ATOM     42  C   UNL     1       5.186   0.692  27.406  0.00  0.00    +0.179 C 
ATOM     43  C   UNL     1       5.573   2.178  27.415  0.00  0.00    +0.177 C 
ATOM     44  C   UNL     1       7.086   2.453  27.496  0.00  0.00    +0.180 C 
BRANCH  44  45
ATOM     45  O   UNL     1       7.565   2.604  28.841  0.00  0.00    -0.386 OA
ATOM     46  H   UNL     1       6.816   2.808  29.436  0.00  0.00    +0.210 HD
ENDBRANCH  44  45
BRANCH  43  47
ATOM     47  O   UNL     1       4.901   2.882  28.463  0.00  0.00    -0.386 OA
ATOM     48  H   UNL     1       5.260   3.789  28.492  0.00  0.00    +0.210 HD
ENDBRANCH  43  47
BRANCH  42  49
ATOM     49  C   UNL     1       5.067   0.089  28.822  0.00  0.00    +0.190 C 
BRANCH  49  50
ATOM     50  O   UNL     1       5.894   0.759  29.766  0.00  0.00    -0.392 OA
ATOM     51  H   UNL     1       5.949   1.692  29.496  0.00  0.00    +0.210 HD
ENDBRANCH  49  50
ENDBRANCH  42  49
BRANCH  39  52
ATOM     52  O   UNL     1       8.175   1.841  25.341  0.00  0.00    -0.337 OA
BRANCH  52  56
ATOM     53  C   UNL     1       5.642   5.515  23.686  0.00  0.00    +0.041 C 
ATOM     54  C   UNL     1       6.955   5.117  24.341  0.00  0.00    +0.149 C 
ATOM     55  O   UNL     1       7.081   3.676  24.313  0.00  0.00    -0.343 OA
ATOM     56  C   UNL     1       8.190   3.263  25.128  0.00  0.00    +0.282 C 
ATOM     57  C   UNL     1       9.505   3.754  24.483  0.00  0.00    +0.201 C 
ATOM     58  C   UNL     1       9.456   5.282  24.382  0.00  0.00    +0.179 C 
ATOM     59  C   UNL     1       8.182   5.761  23.664  0.00  0.00    +0.174 C 
BRANCH  59  60
ATOM     60  O   UNL     1       8.228   5.404  22.277  0.00  0.00    -0.387 OA
ATOM     61  H   UNL     1       7.321   5.134  22.028  0.00  0.00    +0.210 HD
ENDBRANCH  59  60
BRANCH  58  62
ATOM     62  O   UNL     1      10.633   5.755  23.726  0.00  0.00    -0.386 OA
ATOM     63  H   UNL     1      10.314   6.434  23.098  0.00  0.00    +0.210 HD
ENDBRANCH  58  62
BRANCH  57  64
ATOM     64  O   UNL     1       9.682   3.171  23.176  0.00  0.00    -0.384 OA
ATOM     65  H   UNL     1      10.466   3.610  22.782  0.00  0.00    +0.210 HD
ENDBRANCH  57  64
ENDBRANCH  52  56
ENDBRANCH  39  52
ENDBRANCH  38  40
ENDBRANCH   1  38
TORSDOF 20
ENDMDL
MODEL 7
REMARK VINA RESULT:      -6.0      3.014      5.970
REMARK  Name = 
REMARK  22 active torsions:
REMARK  status: ('A' for Active; 'I' for Inactive)
REMARK    1  A    between atoms: C_1  and  C_2
REMARK    2  A    between atoms: C_4  and  O_61
REMARK    3  A    between atoms: C_6  and  O_60
REMARK    4  A    between atoms: C_7  and  O_59
REMARK    5  A    between atoms: C_8  and  O_11
REMARK    6  A    between atoms: O_11  and  C_12
REMARK    7  A    between atoms: C_13  and  O_58
REMARK    8  A    between atoms: C_15  and  O_57
REMARK    9  A    between atoms: C_17  and  C_55
REMARK   10  A    between atoms: C_19  and  O_21
REMARK   11  A    between atoms: O_21  and  C_22
REMARK   12  A    between atoms: C_23  and  C_47
REMARK   13  A    between atoms: C_27  and  O_34
REMARK   14  A    between atoms: C_29  and  O_33
REMARK   15  A    between atoms: O_34  and  C_35
REMARK   16  A    between atoms: C_37  and  O_46
REMARK   17  A    between atoms: C_38  and  O_45
REMARK   18  A    between atoms: C_39  and  O_44
REMARK   19  A    between atoms: C_41  and  C_43
REMARK   20  A    between atoms: C_49  and  O_54
REMARK   21  A    between atoms: C_50  and  O_53
REMARK   22  A    between atoms: C_55  and  O_56
REMARK                            x       y       z     vdW  Elec       q    Type
REMARK                         _______ _______ _______ _____ _____    ______ ____
ROOT
ATOM      1  C   UNL     1       6.095  -2.861  27.288  0.00  0.00    +0.214 A 
ATOM      2  C   UNL     1       7.454  -2.559  26.699  0.00  0.00    +0.238 A 
ATOM      3  O   UNL     1       8.289  -3.446  26.570  0.00  0.00    -0.283 OA
ATOM      4  C   UNL     1       7.711  -1.174  26.272  0.00  0.00    +0.109 A 
ATOM      5  C   UNL     1       6.780  -0.223  26.633  0.00  0.00    +0.147 A 
ATOM      6  C   UNL     1       6.901   1.103  26.215  0.00  0.00    +0.093 A 
ATOM      7  C   UNL     1       7.985   1.521  25.443  0.00  0.00    +0.131 A 
ATOM      8  C   UNL     1       8.967   0.580  25.111  0.00  0.00    +0.092 A 
ATOM      9  O   UNL     1       5.714  -0.485  27.447  0.00  0.00    -0.451 OA
ATOM     10  C   UNL     1       8.823  -0.763  25.504  0.00  0.00    +0.135 A 
ATOM     11  C   UNL     1       5.351  -1.799  27.704  0.00  0.00    +0.181 A 
ENDROOT
BRANCH  11  12
ATOM     12  C   UNL     1       4.077  -1.812  28.484  0.00  0.00    +0.025 A 
ATOM     13  C   UNL     1       4.030  -2.271  29.811  0.00  0.00    +0.015 A 
ATOM     14  C   UNL     1       2.810  -2.422  30.484  0.00  0.00    +0.050 A 
ATOM     15  C   UNL     1       1.639  -2.025  29.866  0.00  0.00    +0.158 A 
ATOM     16  C   UNL     1       1.688  -1.387  28.637  0.00  0.00    +0.159 A 
ATOM     17  C   UNL     1       2.888  -1.289  27.933  0.00  0.00    +0.060 A 
BRANCH  16  18
ATOM     18  O   UNL     1       0.528  -0.860  28.144  0.00  0.00    -0.503 OA
ATOM     19  H   UNL     1       0.677   0.103  28.084  0.00  0.00    +0.292 HD
ENDBRANCH  16  18
BRANCH  15  20
ATOM     20  O   UNL     1       0.443  -2.273  30.471  0.00  0.00    -0.503 OA
ATOM     21  H   UNL     1       0.030  -2.985  29.944  0.00  0.00    +0.292 HD
ENDBRANCH  15  20
ENDBRANCH  11  12
BRANCH  10  22
ATOM     22  O   UNL     1       9.769  -1.667  25.123  0.00  0.00    -0.506 OA
ATOM     23  H   UNL     1       9.603  -2.539  25.513  0.00  0.00    +0.292 HD
ENDBRANCH  10  22
BRANCH   7  24
ATOM     24  O   UNL     1       8.172   2.807  24.981  0.00  0.00    -0.461 OA
BRANCH  24  25
ATOM     25  C   UNL     1       8.612   2.923  23.611  0.00  0.00    +0.339 C 
ATOM     26  O   UNL     1       9.819   3.688  23.498  0.00  0.00    -0.334 OA
ATOM     27  C   UNL     1       9.650   5.043  23.926  0.00  0.00    +0.150 C 
ATOM     28  C   UNL     1      11.015   5.723  23.858  0.00  0.00    +0.041 C 
ATOM     29  C   UNL     1       8.624   5.772  23.045  0.00  0.00    +0.174 C 
ATOM     30  C   UNL     1       7.292   5.003  22.966  0.00  0.00    +0.180 C 
ATOM     31  C   UNL     1       7.527   3.514  22.691  0.00  0.00    +0.214 C 
BRANCH  31  32
ATOM     32  O   UNL     1       6.317   2.749  22.764  0.00  0.00    -0.383 OA
ATOM     33  H   UNL     1       6.511   1.925  23.241  0.00  0.00    +0.210 HD
ENDBRANCH  31  32
BRANCH  30  34
ATOM     34  O   UNL     1       6.484   5.545  21.905  0.00  0.00    -0.386 OA
ATOM     35  H   UNL     1       6.968   6.294  21.509  0.00  0.00    +0.210 HD
ENDBRANCH  30  34
BRANCH  29  36
ATOM     36  O   UNL     1       8.373   7.108  23.495  0.00  0.00    -0.387 OA
ATOM     37  H   UNL     1       9.171   7.646  23.345  0.00  0.00    +0.210 HD
ENDBRANCH  29  36
ENDBRANCH  24  25
ENDBRANCH   7  24
BRANCH   1  38
ATOM     38  O   UNL     1       5.838  -4.212  27.334  0.00  0.00    -0.453 OA
BRANCH  38  40
ATOM     39  C   UNL     1       4.417  -5.199  25.517  0.00  0.00    +0.221 C 
ATOM     40  C   UNL     1       4.587  -4.800  27.004  0.00  0.00    +0.340 C 
ATOM     41  O   UNL     1       4.342  -5.922  27.861  0.00  0.00    -0.331 OA
ATOM     42  C   UNL     1       2.971  -6.340  27.870  0.00  0.00    +0.179 C 
ATOM     43  C   UNL     1       2.544  -6.761  26.456  0.00  0.00    +0.177 C 
ATOM     44  C   UNL     1       3.016  -5.822  25.331  0.00  0.00    +0.180 C 
BRANCH  44  45
ATOM     45  O   UNL     1       2.066  -4.793  25.013  0.00  0.00    -0.386 OA
ATOM     46  H   UNL     1       2.325  -4.352  24.180  0.00  0.00    +0.210 HD
ENDBRANCH  44  45
BRANCH  43  47
ATOM     47  O   UNL     1       1.128  -6.935  26.373  0.00  0.00    -0.386 OA
ATOM     48  H   UNL     1       0.911  -7.195  25.457  0.00  0.00    +0.210 HD
ENDBRANCH  43  47
BRANCH  42  49
ATOM     49  C   UNL     1       2.004  -5.326  28.518  0.00  0.00    +0.190 C 
BRANCH  49  50
ATOM     50  O   UNL     1       0.928  -5.963  29.197  0.00  0.00    -0.392 OA
ATOM     51  H   UNL     1       1.254  -6.821  29.520  0.00  0.00    +0.210 HD
ENDBRANCH  49  50
ENDBRANCH  42  49
BRANCH  39  52
ATOM     52  O   UNL     1       5.477  -6.047  25.015  0.00  0.00    -0.337 OA
BRANCH  52  56
ATOM     53  C   UNL     1       6.801  -1.916  23.058  0.00  0.00    +0.041 C 
ATOM     54  C   UNL     1       6.925  -3.427  22.951  0.00  0.00    +0.149 C 
ATOM     55  O   UNL     1       5.970  -4.045  23.845  0.00  0.00    -0.343 OA
ATOM     56  C   UNL     1       6.223  -5.457  23.937  0.00  0.00    +0.282 C 
ATOM     57  C   UNL     1       5.922  -6.116  22.574  0.00  0.00    +0.201 C 
ATOM     58  C   UNL     1       6.827  -5.479  21.514  0.00  0.00    +0.179 C 
ATOM     59  C   UNL     1       6.705  -3.946  21.515  0.00  0.00    +0.174 C 
BRANCH  59  60
ATOM     60  O   UNL     1       5.414  -3.549  21.035  0.00  0.00    -0.387 OA
ATOM     61  H   UNL     1       5.548  -2.724  20.526  0.00  0.00    +0.210 HD
ENDBRANCH  59  60
BRANCH  58  62
ATOM     62  O   UNL     1       6.519  -6.027  20.232  0.00  0.00    -0.386 OA
ATOM     63  H   UNL     1       5.570  -5.832  20.098  0.00  0.00    +0.210 HD
ENDBRANCH  58  62
BRANCH  57  64
ATOM     64  O   UNL     1       4.536  -5.944  22.217  0.00  0.00    -0.384 OA
ATOM     65  H   UNL     1       4.459  -6.204  21.274  0.00  0.00    +0.210 HD
ENDBRANCH  57  64
ENDBRANCH  52  56
ENDBRANCH  39  52
ENDBRANCH  38  40
ENDBRANCH   1  38
TORSDOF 20
ENDMDL
MODEL 8
REMARK VINA RESULT:      -5.8      2.591      8.863
REMARK  Name = 
REMARK  22 active torsions:
REMARK  status: ('A' for Active; 'I' for Inactive)
REMARK    1  A    between atoms: C_1  and  C_2
REMARK    2  A    between atoms: C_4  and  O_61
REMARK    3  A    between atoms: C_6  and  O_60
REMARK    4  A    between atoms: C_7  and  O_59
REMARK    5  A    between atoms: C_8  and  O_11
REMARK    6  A    between atoms: O_11  and  C_12
REMARK    7  A    between atoms: C_13  and  O_58
REMARK    8  A    between atoms: C_15  and  O_57
REMARK    9  A    between atoms: C_17  and  C_55
REMARK   10  A    between atoms: C_19  and  O_21
REMARK   11  A    between atoms: O_21  and  C_22
REMARK   12  A    between atoms: C_23  and  C_47
REMARK   13  A    between atoms: C_27  and  O_34
REMARK   14  A    between atoms: C_29  and  O_33
REMARK   15  A    between atoms: O_34  and  C_35
REMARK   16  A    between atoms: C_37  and  O_46
REMARK   17  A    between atoms: C_38  and  O_45
REMARK   18  A    between atoms: C_39  and  O_44
REMARK   19  A    between atoms: C_41  and  C_43
REMARK   20  A    between atoms: C_49  and  O_54
REMARK   21  A    between atoms: C_50  and  O_53
REMARK   22  A    between atoms: C_55  and  O_56
REMARK                            x       y       z     vdW  Elec       q    Type
REMARK                         _______ _______ _______ _____ _____    ______ ____
ROOT
ATOM      1  C   UNL     1       6.446   0.394  26.453  0.00  0.00    +0.214 A 
ATOM      2  C   UNL     1       5.789  -0.487  27.490  0.00  0.00    +0.238 A 
ATOM      3  O   UNL     1       5.643  -0.094  28.642  0.00  0.00    -0.283 OA
ATOM      4  C   UNL     1       5.317  -1.811  27.051  0.00  0.00    +0.109 A 
ATOM      5  C   UNL     1       5.698  -2.225  25.791  0.00  0.00    +0.147 A 
ATOM      6  C   UNL     1       5.243  -3.433  25.260  0.00  0.00    +0.093 A 
ATOM      7  C   UNL     1       4.412  -4.279  25.995  0.00  0.00    +0.131 A 
ATOM      8  C   UNL     1       4.058  -3.898  27.294  0.00  0.00    +0.092 A 
ATOM      9  O   UNL     1       6.566  -1.527  25.000  0.00  0.00    -0.451 OA
ATOM     10  C   UNL     1       4.490  -2.664  27.813  0.00  0.00    +0.135 A 
ATOM     11  C   UNL     1       6.870  -0.209  25.308  0.00  0.00    +0.181 A 
ENDROOT
BRANCH  11  12
ATOM     12  C   UNL     1       7.707   0.369  24.215  0.00  0.00    +0.025 A 
ATOM     13  C   UNL     1       8.915  -0.229  23.816  0.00  0.00    +0.015 A 
ATOM     14  C   UNL     1       9.768   0.399  22.898  0.00  0.00    +0.050 A 
ATOM     15  C   UNL     1       9.372   1.582  22.302  0.00  0.00    +0.158 A 
ATOM     16  C   UNL     1       8.101   2.082  22.534  0.00  0.00    +0.159 A 
ATOM     17  C   UNL     1       7.270   1.500  23.491  0.00  0.00    +0.060 A 
BRANCH  16  18
ATOM     18  O   UNL     1       7.691   3.155  21.795  0.00  0.00    -0.503 OA
ATOM     19  H   UNL     1       6.831   3.424  22.168  0.00  0.00    +0.292 HD
ENDBRANCH  16  18
BRANCH  15  20
ATOM     20  O   UNL     1      10.244   2.252  21.496  0.00  0.00    -0.503 OA
ATOM     21  H   UNL     1      10.765   1.557  21.046  0.00  0.00    +0.292 HD
ENDBRANCH  15  20
ENDBRANCH  11  12
BRANCH  10  22
ATOM     22  O   UNL     1       4.088  -2.297  29.063  0.00  0.00    -0.506 OA
ATOM     23  H   UNL     1       3.187  -1.937  29.054  0.00  0.00    +0.292 HD
ENDBRANCH  10  22
BRANCH   7  24
ATOM     24  O   UNL     1       3.912  -5.480  25.538  0.00  0.00    -0.461 OA
BRANCH  24  25
ATOM     25  C   UNL     1       2.516  -5.477  25.169  0.00  0.00    +0.339 C 
ATOM     26  O   UNL     1       1.694  -6.079  26.177  0.00  0.00    -0.334 OA
ATOM     27  C   UNL     1       1.999  -7.462  26.379  0.00  0.00    +0.150 C 
ATOM     28  C   UNL     1       1.138  -7.961  27.537  0.00  0.00    +0.041 C 
ATOM     29  C   UNL     1       1.732  -8.273  25.102  0.00  0.00    +0.174 C 
ATOM     30  C   UNL     1       2.462  -7.676  23.885  0.00  0.00    +0.180 C 
ATOM     31  C   UNL     1       2.264  -6.158  23.811  0.00  0.00    +0.214 C 
BRANCH  31  32
ATOM     32  O   UNL     1       3.054  -5.555  22.778  0.00  0.00    -0.383 OA
ATOM     33  H   UNL     1       3.982  -5.566  23.065  0.00  0.00    +0.210 HD
ENDBRANCH  31  32
BRANCH  30  34
ATOM     34  O   UNL     1       1.948  -8.266  22.676  0.00  0.00    -0.386 OA
ATOM     35  H   UNL     1       1.497  -9.098  22.915  0.00  0.00    +0.210 HD
ENDBRANCH  30  34
BRANCH  29  36
ATOM     36  O   UNL     1       2.101  -9.649  25.246  0.00  0.00    -0.387 OA
ATOM     37  H   UNL     1       2.675  -9.742  26.027  0.00  0.00    +0.210 HD
ENDBRANCH  29  36
ENDBRANCH  24  25
ENDBRANCH   7  24
BRANCH   1  38
ATOM     38  O   UNL     1       6.535   1.704  26.867  0.00  0.00    -0.453 OA
BRANCH  38  40
ATOM     39  C   UNL     1       5.509   3.982  26.647  0.00  0.00    +0.221 C 
ATOM     40  C   UNL     1       5.416   2.525  27.166  0.00  0.00    +0.340 C 
ATOM     41  O   UNL     1       4.217   1.896  26.695  0.00  0.00    -0.331 OA
ATOM     42  C   UNL     1       3.025   2.443  27.272  0.00  0.00    +0.179 C 
ATOM     43  C   UNL     1       2.910   3.933  26.919  0.00  0.00    +0.177 C 
ATOM     44  C   UNL     1       4.220   4.732  27.050  0.00  0.00    +0.180 C 
BRANCH  44  45
ATOM     45  O   UNL     1       4.392   5.335  28.342  0.00  0.00    -0.386 OA
ATOM     46  H   UNL     1       3.540   5.707  28.647  0.00  0.00    +0.210 HD
ENDBRANCH  44  45
BRANCH  43  47
ATOM     47  O   UNL     1       1.883   4.569  27.683  0.00  0.00    -0.386 OA
ATOM     48  H   UNL     1       1.563   3.929  28.347  0.00  0.00    +0.210 HD
ENDBRANCH  43  47
BRANCH  42  49
ATOM     49  C   UNL     1       2.866   2.165  28.783  0.00  0.00    +0.190 C 
BRANCH  49  50
ATOM     50  O   UNL     1       2.953   0.778  29.089  0.00  0.00    -0.392 OA
ATOM     51  H   UNL     1       2.544   0.290  28.353  0.00  0.00    +0.210 HD
ENDBRANCH  49  50
ENDBRANCH  42  49
BRANCH  39  52
ATOM     52  O   UNL     1       5.795   4.080  25.232  0.00  0.00    -0.337 OA
BRANCH  52  56
ATOM     53  C   UNL     1       7.179   6.830  21.602  0.00  0.00    +0.041 C 
ATOM     54  C   UNL     1       7.247   6.652  23.110  0.00  0.00    +0.149 C 
ATOM     55  O   UNL     1       6.725   5.348  23.457  0.00  0.00    -0.343 OA
ATOM     56  C   UNL     1       6.560   5.246  24.881  0.00  0.00    +0.282 C 
ATOM     57  C   UNL     1       7.949   5.271  25.556  0.00  0.00    +0.201 C 
ATOM     58  C   UNL     1       8.644   6.586  25.191  0.00  0.00    +0.179 C 
ATOM     59  C   UNL     1       8.676   6.806  23.668  0.00  0.00    +0.174 C 
BRANCH  59  60
ATOM     60  O   UNL     1       9.557   5.860  23.049  0.00  0.00    -0.387 OA
ATOM     61  H   UNL     1       9.994   5.369  23.774  0.00  0.00    +0.210 HD
ENDBRANCH  59  60
BRANCH  58  62
ATOM     62  O   UNL     1       9.958   6.603  25.749  0.00  0.00    -0.386 OA
ATOM     63  H   UNL     1       9.984   7.407  26.306  0.00  0.00    +0.210 HD
ENDBRANCH  58  62
BRANCH  57  64
ATOM     64  O   UNL     1       8.746   4.148  25.127  0.00  0.00    -0.384 OA
ATOM     65  H   UNL     1       9.661   4.326  25.434  0.00  0.00    +0.210 HD
ENDBRANCH  57  64
ENDBRANCH  52  56
ENDBRANCH  39  52
ENDBRANCH  38  40
ENDBRANCH   1  38
TORSDOF 20
ENDMDL
MODEL 9
REMARK VINA RESULT:      -5.8      2.373      8.670
REMARK  Name = 
REMARK  22 active torsions:
REMARK  status: ('A' for Active; 'I' for Inactive)
REMARK    1  A    between atoms: C_1  and  C_2
REMARK    2  A    between atoms: C_4  and  O_61
REMARK    3  A    between atoms: C_6  and  O_60
REMARK    4  A    between atoms: C_7  and  O_59
REMARK    5  A    between atoms: C_8  and  O_11
REMARK    6  A    between atoms: O_11  and  C_12
REMARK    7  A    between atoms: C_13  and  O_58
REMARK    8  A    between atoms: C_15  and  O_57
REMARK    9  A    between atoms: C_17  and  C_55
REMARK   10  A    between atoms: C_19  and  O_21
REMARK   11  A    between atoms: O_21  and  C_22
REMARK   12  A    between atoms: C_23  and  C_47
REMARK   13  A    between atoms: C_27  and  O_34
REMARK   14  A    between atoms: C_29  and  O_33
REMARK   15  A    between atoms: O_34  and  C_35
REMARK   16  A    between atoms: C_37  and  O_46
REMARK   17  A    between atoms: C_38  and  O_45
REMARK   18  A    between atoms: C_39  and  O_44
REMARK   19  A    between atoms: C_41  and  C_43
REMARK   20  A    between atoms: C_49  and  O_54
REMARK   21  A    between atoms: C_50  and  O_53
REMARK   22  A    between atoms: C_55  and  O_56
REMARK                            x       y       z     vdW  Elec       q    Type
REMARK                         _______ _______ _______ _____ _____    ______ ____
ROOT
ATOM      1  C   UNL     1       7.536   0.862  25.359  0.00  0.00    +0.214 A 
ATOM      2  C   UNL     1       7.601  -0.034  24.144  0.00  0.00    +0.238 A 
ATOM      3  O   UNL     1       8.290   0.271  23.178  0.00  0.00    -0.283 OA
ATOM      4  C   UNL     1       6.828  -1.287  24.188  0.00  0.00    +0.109 A 
ATOM      5  C   UNL     1       5.945  -1.442  25.236  0.00  0.00    +0.147 A 
ATOM      6  C   UNL     1       5.220  -2.623  25.401  0.00  0.00    +0.093 A 
ATOM      7  C   UNL     1       5.339  -3.678  24.495  0.00  0.00    +0.131 A 
ATOM      8  C   UNL     1       6.191  -3.516  23.396  0.00  0.00    +0.092 A 
ATOM      9  O   UNL     1       5.680  -0.461  26.149  0.00  0.00    -0.451 OA
ATOM     10  C   UNL     1       6.947  -2.338  23.253  0.00  0.00    +0.135 A 
ATOM     11  C   UNL     1       6.521   0.640  26.238  0.00  0.00    +0.181 A 
ENDROOT
BRANCH  11  12
ATOM     12  C   UNL     1       6.107   1.478  27.403  0.00  0.00    +0.025 A 
ATOM     13  C   UNL     1       4.767   1.549  27.822  0.00  0.00    +0.015 A 
ATOM     14  C   UNL     1       4.364   2.451  28.816  0.00  0.00    +0.050 A 
ATOM     15  C   UNL     1       5.314   3.219  29.464  0.00  0.00    +0.158 A 
ATOM     16  C   UNL     1       6.661   3.018  29.201  0.00  0.00    +0.159 A 
ATOM     17  C   UNL     1       7.068   2.170  28.172  0.00  0.00    +0.060 A 
BRANCH  16  18
ATOM     18  O   UNL     1       7.568   3.673  29.985  0.00  0.00    -0.503 OA
ATOM     19  H   UNL     1       8.019   2.983  30.506  0.00  0.00    +0.292 HD
ENDBRANCH  16  18
BRANCH  15  20
ATOM     20  O   UNL     1       4.915   4.175  30.349  0.00  0.00    -0.503 OA
ATOM     21  H   UNL     1       4.092   4.546  29.975  0.00  0.00    +0.292 HD
ENDBRANCH  15  20
ENDBRANCH  11  12
BRANCH  10  22
ATOM     22  O   UNL     1       7.807  -2.231  22.200  0.00  0.00    -0.506 OA
ATOM     23  H   UNL     1       7.581  -2.857  21.494  0.00  0.00    +0.292 HD
ENDBRANCH  10  22
BRANCH   7  24
ATOM     24  O   UNL     1       4.668  -4.878  24.593  0.00  0.00    -0.461 OA
BRANCH  24  25
ATOM     25  C   UNL     1       3.324  -4.888  24.065  0.00  0.00    +0.339 C 
ATOM     26  O   UNL     1       2.344  -4.683  25.092  0.00  0.00    -0.334 OA
ATOM     27  C   UNL     1       2.345  -5.731  26.067  0.00  0.00    +0.150 C 
ATOM     28  C   UNL     1       1.341  -5.352  27.153  0.00  0.00    +0.041 C 
ATOM     29  C   UNL     1       1.982  -7.078  25.424  0.00  0.00    +0.174 C 
ATOM     30  C   UNL     1       2.881  -7.392  24.214  0.00  0.00    +0.180 C 
ATOM     31  C   UNL     1       3.006  -6.179  23.287  0.00  0.00    +0.214 C 
BRANCH  31  32
ATOM     32  O   UNL     1       3.956  -6.392  22.235  0.00  0.00    -0.383 OA
ATOM     33  H   UNL     1       4.636  -5.701  22.299  0.00  0.00    +0.210 HD
ENDBRANCH  31  32
BRANCH  30  34
ATOM     34  O   UNL     1       2.318  -8.486  23.466  0.00  0.00    -0.386 OA
ATOM     35  H   UNL     1       2.183  -9.233  24.079  0.00  0.00    +0.210 HD
ENDBRANCH  30  34
BRANCH  29  36
ATOM     36  O   UNL     1       2.050  -8.161  26.357  0.00  0.00    -0.387 OA
ATOM     37  H   UNL     1       1.985  -7.803  27.261  0.00  0.00    +0.210 HD
ENDBRANCH  29  36
ENDBRANCH  24  25
ENDBRANCH   7  24
BRANCH   1  38
ATOM     38  O   UNL     1       8.535   1.808  25.358  0.00  0.00    -0.453 OA
BRANCH  38  40
ATOM     39  C   UNL     1       7.214   3.448  23.996  0.00  0.00    +0.221 C 
ATOM     40  C   UNL     1       8.589   2.914  24.468  0.00  0.00    +0.340 C 
ATOM     41  O   UNL     1       9.366   3.966  25.054  0.00  0.00    -0.331 OA
ATOM     42  C   UNL     1       9.794   4.952  24.105  0.00  0.00    +0.179 C 
ATOM     43  C   UNL     1       8.571   5.614  23.454  0.00  0.00    +0.177 C 
ATOM     44  C   UNL     1       7.449   4.642  23.045  0.00  0.00    +0.180 C 
BRANCH  44  45
ATOM     45  O   UNL     1       7.568   4.172  21.693  0.00  0.00    -0.386 OA
ATOM     46  H   UNL     1       8.397   3.661  21.595  0.00  0.00    +0.210 HD
ENDBRANCH  44  45
BRANCH  43  47
ATOM     47  O   UNL     1       8.951   6.409  22.327  0.00  0.00    -0.386 OA
ATOM     48  H   UNL     1       8.417   6.119  21.562  0.00  0.00    +0.210 HD
ENDBRANCH  43  47
BRANCH  42  49
ATOM     49  C   UNL     1      10.822   4.436  23.075  0.00  0.00    +0.190 C 
BRANCH  49  50
ATOM     50  O   UNL     1      11.693   5.465  22.619  0.00  0.00    -0.392 OA
ATOM     51  H   UNL     1      12.299   5.067  21.969  0.00  0.00    +0.210 HD
ENDBRANCH  49  50
ENDBRANCH  42  49
BRANCH  39  52
ATOM     52  O   UNL     1       6.307   3.764  25.078  0.00  0.00    -0.337 OA
BRANCH  52  56
ATOM     53  C   UNL     1       1.976   5.088  26.544  0.00  0.00    +0.041 C 
ATOM     54  C   UNL     1       2.822   4.775  25.320  0.00  0.00    +0.149 C 
ATOM     55  O   UNL     1       4.071   4.181  25.746  0.00  0.00    -0.343 OA
ATOM     56  C   UNL     1       4.978   4.092  24.636  0.00  0.00    +0.282 C 
ATOM     57  C   UNL     1       4.426   3.079  23.609  0.00  0.00    +0.201 C 
ATOM     58  C   UNL     1       3.052   3.564  23.138  0.00  0.00    +0.179 C 
ATOM     59  C   UNL     1       2.111   3.837  24.324  0.00  0.00    +0.174 C 
BRANCH  59  60
ATOM     60  O   UNL     1       1.753   2.608  24.968  0.00  0.00    -0.387 OA
ATOM     61  H   UNL     1       2.381   2.488  25.709  0.00  0.00    +0.210 HD
ENDBRANCH  59  60
BRANCH  58  62
ATOM     62  O   UNL     1       2.492   2.608  22.237  0.00  0.00    -0.386 OA
ATOM     63  H   UNL     1       1.641   2.348  22.644  0.00  0.00    +0.210 HD
ENDBRANCH  58  62
BRANCH  57  64
ATOM     64  O   UNL     1       4.321   1.765  24.192  0.00  0.00    -0.384 OA
ATOM     65  H   UNL     1       4.988   1.727  24.910  0.00  0.00    +0.210 HD
ENDBRANCH  57  64
ENDBRANCH  52  56
ENDBRANCH  39  52
ENDBRANCH  38  40
ENDBRANCH   1  38
TORSDOF 20
ENDMDL
