MODEL 1
REMARK VINA RESULT:      -7.5      0.000      0.000
REMARK  Name = 
REMARK  19 active torsions:
REMARK  status: ('A' for Active; 'I' for Inactive)
REMARK    1  A    between atoms: C_1  and  C_2
REMARK    2  A    between atoms: C_3  and  O_46
REMARK    3  A    between atoms: C_4  and  O_45
REMARK    4  A    between atoms: C_5  and  O_44
REMARK    5  A    between atoms: C_6  and  O_8
REMARK    6  A    between atoms: O_8  and  C_9
REMARK    7  A    between atoms: C_11  and  O_43
REMARK    8  A    between atoms: C_16  and  C_35
REMARK    9  A    between atoms: C_17  and  O_20
REMARK   10  A    between atoms: O_20  and  C_21
REMARK   11  A    between atoms: C_22  and  O_34
REMARK   12  A    between atoms: C_23  and  O_33
REMARK   13  A    between atoms: C_24  and  O_32
REMARK   14  A    between atoms: C_25  and  C_27
REMARK   15  A    between atoms: C_27  and  O_28
REMARK   16  A    between atoms: O_28  and  C_29
REMARK   17  A    between atoms: C_29  and  C_31
REMARK   18  A    between atoms: C_37  and  O_42
REMARK   19  A    between atoms: C_38  and  O_41
REMARK                            x       y       z     vdW  Elec       q    Type
REMARK                         _______ _______ _______ _____ _____    ______ ____
ROOT
ATOM      1  C   UNL     1       5.979   2.953  24.722  0.00  0.00    +0.131 A 
ATOM      2  C   UNL     1       6.120   1.711  24.087  0.00  0.00    +0.093 A 
ATOM      3  C   UNL     1       5.727   0.532  24.745  0.00  0.00    +0.147 A 
ATOM      4  O   UNL     1       5.891  -0.665  24.088  0.00  0.00    -0.451 OA
ATOM      5  C   UNL     1       5.405  -1.846  24.669  0.00  0.00    +0.181 A 
ATOM      6  C   UNL     1       4.933  -1.920  25.939  0.00  0.00    +0.214 A 
ATOM      7  C   UNL     1       4.975  -0.650  26.745  0.00  0.00    +0.238 A 
ATOM      8  O   UNL     1       4.871  -0.633  27.965  0.00  0.00    -0.283 OA
ATOM      9  C   UNL     1       5.210   0.604  26.030  0.00  0.00    +0.109 A 
ATOM     10  C   UNL     1       5.004   1.852  26.635  0.00  0.00    +0.135 A 
ATOM     11  C   UNL     1       5.393   3.016  25.985  0.00  0.00    +0.092 A 
ENDROOT
BRANCH   5  12
ATOM     12  C   UNL     1       5.495  -3.019  23.735  0.00  0.00    +0.025 A 
ATOM     13  C   UNL     1       6.635  -3.199  22.922  0.00  0.00    +0.015 A 
ATOM     14  C   UNL     1       6.768  -4.307  22.076  0.00  0.00    +0.050 A 
ATOM     15  C   UNL     1       5.759  -5.251  22.018  0.00  0.00    +0.158 A 
ATOM     16  C   UNL     1       4.614  -5.102  22.800  0.00  0.00    +0.159 A 
ATOM     17  C   UNL     1       4.494  -4.010  23.657  0.00  0.00    +0.060 A 
BRANCH  15  18
ATOM     18  O   UNL     1       5.882  -6.340  21.207  0.00  0.00    -0.503 OA
ATOM     19  H   UNL     1       6.781  -6.269  20.826  0.00  0.00    +0.292 HD
ENDBRANCH  15  18
BRANCH  16  20
ATOM     20  O   UNL     1       3.647  -6.058  22.695  0.00  0.00    -0.503 OA
ATOM     21  H   UNL     1       3.773  -6.539  21.860  0.00  0.00    +0.292 HD
ENDBRANCH  16  20
ENDBRANCH   5  12
BRANCH  10  22
ATOM     22  O   UNL     1       4.400   1.958  27.855  0.00  0.00    -0.506 OA
ATOM     23  H   UNL     1       4.937   2.501  28.453  0.00  0.00    +0.292 HD
ENDBRANCH  10  22
BRANCH   6  24
ATOM     24  O   UNL     1       4.444  -3.121  26.468  0.00  0.00    -0.453 OA
BRANCH  24  25
ATOM     25  C   UNL     1       5.124  -3.681  27.604  0.00  0.00    +0.340 C 
ATOM     26  O   UNL     1       6.553  -3.638  27.449  0.00  0.00    -0.330 OA
ATOM     27  C   UNL     1       7.060  -4.479  26.403  0.00  0.00    +0.191 C 
ATOM     28  C   UNL     1       6.789  -5.924  26.814  0.00  0.00    +0.178 C 
ATOM     29  C   UNL     1       5.273  -6.135  26.916  0.00  0.00    +0.180 C 
ATOM     30  C   UNL     1       4.643  -5.126  27.890  0.00  0.00    +0.214 C 
BRANCH  28  31
ATOM     31  O   UNL     1       7.378  -6.192  28.103  0.00  0.00    -0.386 OA
ATOM     32  H   UNL     1       7.161  -7.117  28.340  0.00  0.00    +0.210 HD
ENDBRANCH  28  31
BRANCH  29  33
ATOM     33  O   UNL     1       5.019  -7.474  27.359  0.00  0.00    -0.386 OA
ATOM     34  H   UNL     1       5.418  -7.548  28.248  0.00  0.00    +0.210 HD
ENDBRANCH  29  33
BRANCH  30  35
ATOM     35  O   UNL     1       3.213  -5.222  27.904  0.00  0.00    -0.383 OA
ATOM     36  H   UNL     1       2.935  -5.737  27.126  0.00  0.00    +0.210 HD
ENDBRANCH  30  35
BRANCH  27  37
ATOM     37  C   UNL     1       8.563  -4.213  26.235  0.00  0.00    +0.266 C 
BRANCH  37  38
ATOM     38  O   UNL     1       8.828  -2.821  25.963  0.00  0.00    -0.462 OA
BRANCH  38  39
ATOM     39  C   UNL     1       9.450  -2.555  24.785  0.00  0.00    +0.304 C 
ATOM     40  C   UNL     1       9.353  -1.097  24.448  0.00  0.00    +0.136 C 
ATOM     41  O   UNL     1      10.013  -3.387  24.087  0.00  0.00    -0.251 OA
ENDBRANCH  38  39
ENDBRANCH  37  38
ENDBRANCH  27  37
ENDBRANCH  24  25
ENDBRANCH   6  24
BRANCH   1  42
ATOM     42  O   UNL     1       6.367   4.179  24.259  0.00  0.00    -0.461 OA
BRANCH  42  46
ATOM     43  C   UNL     1       9.454   6.581  25.997  0.00  0.00    +0.041 C 
ATOM     44  C   UNL     1       9.134   6.560  24.499  0.00  0.00    +0.150 C 
ATOM     45  O   UNL     1       7.825   6.031  24.255  0.00  0.00    -0.334 OA
ATOM     46  C   UNL     1       7.693   4.633  24.530  0.00  0.00    +0.339 C 
ATOM     47  C   UNL     1       8.650   3.845  23.602  0.00  0.00    +0.214 C 
ATOM     48  C   UNL     1      10.086   4.310  23.850  0.00  0.00    +0.180 C 
ATOM     49  C   UNL     1      10.197   5.833  23.659  0.00  0.00    +0.174 C 
BRANCH  49  50
ATOM     50  O   UNL     1      11.496   6.321  24.000  0.00  0.00    -0.387 OA
ATOM     51  H   UNL     1      12.105   5.561  24.034  0.00  0.00    +0.210 HD
ENDBRANCH  49  50
BRANCH  48  52
ATOM     52  O   UNL     1      10.990   3.650  22.955  0.00  0.00    -0.386 OA
ATOM     53  H   UNL     1      11.339   4.350  22.363  0.00  0.00    +0.210 HD
ENDBRANCH  48  52
BRANCH  47  54
ATOM     54  O   UNL     1       8.358   4.072  22.202  0.00  0.00    -0.383 OA
ATOM     55  H   UNL     1       8.233   5.035  22.090  0.00  0.00    +0.210 HD
ENDBRANCH  47  54
ENDBRANCH  42  46
ENDBRANCH   1  42
TORSDOF 17
ENDMDL
MODEL 2
REMARK VINA RESULT:      -7.5      2.205     10.183
REMARK  Name = 
REMARK  19 active torsions:
REMARK  status: ('A' for Active; 'I' for Inactive)
REMARK    1  A    between atoms: C_1  and  C_2
REMARK    2  A    between atoms: C_3  and  O_46
REMARK    3  A    between atoms: C_4  and  O_45
REMARK    4  A    between atoms: C_5  and  O_44
REMARK    5  A    between atoms: C_6  and  O_8
REMARK    6  A    between atoms: O_8  and  C_9
REMARK    7  A    between atoms: C_11  and  O_43
REMARK    8  A    between atoms: C_16  and  C_35
REMARK    9  A    between atoms: C_17  and  O_20
REMARK   10  A    between atoms: O_20  and  C_21
REMARK   11  A    between atoms: C_22  and  O_34
REMARK   12  A    between atoms: C_23  and  O_33
REMARK   13  A    between atoms: C_24  and  O_32
REMARK   14  A    between atoms: C_25  and  C_27
REMARK   15  A    between atoms: C_27  and  O_28
REMARK   16  A    between atoms: O_28  and  C_29
REMARK   17  A    between atoms: C_29  and  C_31
REMARK   18  A    between atoms: C_37  and  O_42
REMARK   19  A    between atoms: C_38  and  O_41
REMARK                            x       y       z     vdW  Elec       q    Type
REMARK                         _______ _______ _______ _____ _____    ______ ____
ROOT
ATOM      1  C   UNL     1       6.935  -3.071  22.648  0.00  0.00    +0.131 A 
ATOM      2  C   UNL     1       6.246  -1.907  23.021  0.00  0.00    +0.093 A 
ATOM      3  C   UNL     1       6.916  -0.672  23.066  0.00  0.00    +0.147 A 
ATOM      4  O   UNL     1       6.203   0.441  23.443  0.00  0.00    -0.451 OA
ATOM      5  C   UNL     1       6.810   1.704  23.389  0.00  0.00    +0.181 A 
ATOM      6  C   UNL     1       8.134   1.892  23.155  0.00  0.00    +0.214 A 
ATOM      7  C   UNL     1       8.966   0.652  22.975  0.00  0.00    +0.238 A 
ATOM      8  O   UNL     1      10.188   0.652  23.057  0.00  0.00    -0.283 OA
ATOM      9  C   UNL     1       8.266  -0.613  22.751  0.00  0.00    +0.109 A 
ATOM     10  C   UNL     1       8.935  -1.763  22.311  0.00  0.00    +0.135 A 
ATOM     11  C   UNL     1       8.274  -2.984  22.267  0.00  0.00    +0.092 A 
ENDROOT
BRANCH   5  12
ATOM     12  C   UNL     1       5.836   2.817  23.648  0.00  0.00    +0.025 A 
ATOM     13  C   UNL     1       5.298   3.009  24.940  0.00  0.00    +0.015 A 
ATOM     14  C   UNL     1       4.423   4.065  25.223  0.00  0.00    +0.050 A 
ATOM     15  C   UNL     1       4.061   4.944  24.218  0.00  0.00    +0.158 A 
ATOM     16  C   UNL     1       4.565   4.781  22.929  0.00  0.00    +0.159 A 
ATOM     17  C   UNL     1       5.452   3.742  22.655  0.00  0.00    +0.060 A 
BRANCH  15  18
ATOM     18  O   UNL     1       3.219   5.984  24.485  0.00  0.00    -0.503 OA
ATOM     19  H   UNL     1       2.907   6.283  23.607  0.00  0.00    +0.292 HD
ENDBRANCH  15  18
BRANCH  16  20
ATOM     20  O   UNL     1       4.167   5.672  21.976  0.00  0.00    -0.503 OA
ATOM     21  H   UNL     1       3.884   6.492  22.414  0.00  0.00    +0.292 HD
ENDBRANCH  16  20
ENDBRANCH   5  12
BRANCH  10  22
ATOM     22  O   UNL     1      10.234  -1.712  21.894  0.00  0.00    -0.506 OA
ATOM     23  H   UNL     1      10.803  -2.218  22.496  0.00  0.00    +0.292 HD
ENDBRANCH  10  22
BRANCH   6  24
ATOM     24  O   UNL     1       8.691   3.176  23.094  0.00  0.00    -0.453 OA
BRANCH  24  25
ATOM     25  C   UNL     1       9.227   3.733  24.306  0.00  0.00    +0.340 C 
ATOM     26  O   UNL     1       8.381   4.764  24.843  0.00  0.00    -0.330 OA
ATOM     27  C   UNL     1       8.297   5.944  24.031  0.00  0.00    +0.191 C 
ATOM     28  C   UNL     1       9.682   6.586  24.024  0.00  0.00    +0.178 C 
ATOM     29  C   UNL     1      10.676   5.616  23.372  0.00  0.00    +0.180 C 
ATOM     30  C   UNL     1      10.669   4.258  24.092  0.00  0.00    +0.214 C 
BRANCH  28  31
ATOM     31  O   UNL     1      10.114   6.848  25.375  0.00  0.00    -0.386 OA
ATOM     32  H   UNL     1       9.602   7.616  25.704  0.00  0.00    +0.210 HD
ENDBRANCH  28  31
BRANCH  29  33
ATOM     33  O   UNL     1      11.987   6.194  23.418  0.00  0.00    -0.386 OA
ATOM     34  H   UNL     1      12.313   6.057  24.330  0.00  0.00    +0.210 HD
ENDBRANCH  29  33
BRANCH  30  35
ATOM     35  O   UNL     1      11.496   3.297  23.423  0.00  0.00    -0.383 OA
ATOM     36  H   UNL     1      11.014   2.452  23.390  0.00  0.00    +0.210 HD
ENDBRANCH  30  35
BRANCH  27  37
ATOM     37  C   UNL     1       7.241   6.886  24.628  0.00  0.00    +0.266 C 
BRANCH  37  38
ATOM     38  O   UNL     1       7.464   7.107  26.036  0.00  0.00    -0.462 OA
BRANCH  38  39
ATOM     39  C   UNL     1       6.403   6.869  26.849  0.00  0.00    +0.304 C 
ATOM     40  C   UNL     1       6.850   6.266  28.148  0.00  0.00    +0.136 C 
ATOM     41  O   UNL     1       5.237   7.108  26.566  0.00  0.00    -0.251 OA
ENDBRANCH  38  39
ENDBRANCH  37  38
ENDBRANCH  27  37
ENDBRANCH  24  25
ENDBRANCH   6  24
BRANCH   1  42
ATOM     42  O   UNL     1       6.460  -4.352  22.615  0.00  0.00    -0.461 OA
BRANCH  42  46
ATOM     43  C   UNL     1       4.807  -4.505  26.560  0.00  0.00    +0.041 C 
ATOM     44  C   UNL     1       5.650  -5.627  25.947  0.00  0.00    +0.150 C 
ATOM     45  O   UNL     1       6.414  -5.153  24.832  0.00  0.00    -0.334 OA
ATOM     46  C   UNL     1       5.632  -4.810  23.684  0.00  0.00    +0.339 C 
ATOM     47  C   UNL     1       4.891  -6.075  23.184  0.00  0.00    +0.214 C 
ATOM     48  C   UNL     1       3.997  -6.609  24.306  0.00  0.00    +0.180 C 
ATOM     49  C   UNL     1       4.829  -6.872  25.574  0.00  0.00    +0.174 C 
BRANCH  49  50
ATOM     50  O   UNL     1       4.010  -7.257  26.680  0.00  0.00    -0.387 OA
ATOM     51  H   UNL     1       3.660  -8.150  26.501  0.00  0.00    +0.210 HD
ENDBRANCH  49  50
BRANCH  48  52
ATOM     52  O   UNL     1       3.351  -7.822  23.899  0.00  0.00    -0.386 OA
ATOM     53  H   UNL     1       4.071  -8.429  23.622  0.00  0.00    +0.210 HD
ENDBRANCH  48  52
BRANCH  47  54
ATOM     54  O   UNL     1       5.808  -7.134  22.821  0.00  0.00    -0.383 OA
ATOM     55  H   UNL     1       6.537  -6.720  22.317  0.00  0.00    +0.210 HD
ENDBRANCH  47  54
ENDBRANCH  42  46
ENDBRANCH   1  42
TORSDOF 17
ENDMDL
MODEL 3
REMARK VINA RESULT:      -7.3      2.164      9.887
REMARK  Name = 
REMARK  19 active torsions:
REMARK  status: ('A' for Active; 'I' for Inactive)
REMARK    1  A    between atoms: C_1  and  C_2
REMARK    2  A    between atoms: C_3  and  O_46
REMARK    3  A    between atoms: C_4  and  O_45
REMARK    4  A    between atoms: C_5  and  O_44
REMARK    5  A    between atoms: C_6  and  O_8
REMARK    6  A    between atoms: O_8  and  C_9
REMARK    7  A    between atoms: C_11  and  O_43
REMARK    8  A    between atoms: C_16  and  C_35
REMARK    9  A    between atoms: C_17  and  O_20
REMARK   10  A    between atoms: O_20  and  C_21
REMARK   11  A    between atoms: C_22  and  O_34
REMARK   12  A    between atoms: C_23  and  O_33
REMARK   13  A    between atoms: C_24  and  O_32
REMARK   14  A    between atoms: C_25  and  C_27
REMARK   15  A    between atoms: C_27  and  O_28
REMARK   16  A    between atoms: O_28  and  C_29
REMARK   17  A    between atoms: C_29  and  C_31
REMARK   18  A    between atoms: C_37  and  O_42
REMARK   19  A    between atoms: C_38  and  O_41
REMARK                            x       y       z     vdW  Elec       q    Type
REMARK                         _______ _______ _______ _____ _____    ______ ____
ROOT
ATOM      1  C   UNL     1       6.934  -4.154  24.735  0.00  0.00    +0.131 A 
ATOM      2  C   UNL     1       6.173  -2.978  24.786  0.00  0.00    +0.093 A 
ATOM      3  C   UNL     1       6.773  -1.734  24.519  0.00  0.00    +0.147 A 
ATOM      4  O   UNL     1       5.991  -0.606  24.588  0.00  0.00    -0.451 OA
ATOM      5  C   UNL     1       6.529   0.634  24.217  0.00  0.00    +0.181 A 
ATOM      6  C   UNL     1       7.847   0.835  23.958  0.00  0.00    +0.214 A 
ATOM      7  C   UNL     1       8.750  -0.358  24.116  0.00  0.00    +0.238 A 
ATOM      8  O   UNL     1       9.967  -0.264  24.210  0.00  0.00    -0.283 OA
ATOM      9  C   UNL     1       8.125  -1.678  24.216  0.00  0.00    +0.109 A 
ATOM     10  C   UNL     1       8.869  -2.860  24.097  0.00  0.00    +0.135 A 
ATOM     11  C   UNL     1       8.276  -4.088  24.361  0.00  0.00    +0.092 A 
ENDROOT
BRANCH   5  12
ATOM     12  C   UNL     1       5.489   1.717  24.168  0.00  0.00    +0.025 A 
ATOM     13  C   UNL     1       4.680   1.981  25.295  0.00  0.00    +0.015 A 
ATOM     14  C   UNL     1       3.733   3.013  25.295  0.00  0.00    +0.050 A 
ATOM     15  C   UNL     1       3.570   3.794  24.166  0.00  0.00    +0.158 A 
ATOM     16  C   UNL     1       4.345   3.557  23.031  0.00  0.00    +0.159 A 
ATOM     17  C   UNL     1       5.301   2.544  23.041  0.00  0.00    +0.060 A 
BRANCH  15  18
ATOM     18  O   UNL     1       2.660   4.810  24.158  0.00  0.00    -0.503 OA
ATOM     19  H   UNL     1       2.942   5.393  23.424  0.00  0.00    +0.292 HD
ENDBRANCH  15  18
BRANCH  16  20
ATOM     20  O   UNL     1       4.134   4.352  21.943  0.00  0.00    -0.503 OA
ATOM     21  H   UNL     1       4.532   5.223  22.111  0.00  0.00    +0.292 HD
ENDBRANCH  16  20
ENDBRANCH   5  12
BRANCH  10  22
ATOM     22  O   UNL     1      10.174  -2.841  23.697  0.00  0.00    -0.506 OA
ATOM     23  H   UNL     1      10.659  -3.584  24.089  0.00  0.00    +0.292 HD
ENDBRANCH  10  22
BRANCH   6  24
ATOM     24  O   UNL     1       8.334   2.090  23.575  0.00  0.00    -0.453 OA
BRANCH  24  25
ATOM     25  C   UNL     1       9.192   2.786  24.494  0.00  0.00    +0.340 C 
ATOM     26  O   UNL     1       8.452   3.382  25.574  0.00  0.00    -0.330 OA
ATOM     27  C   UNL     1       7.581   4.451  25.175  0.00  0.00    +0.191 C 
ATOM     28  C   UNL     1       8.464   5.591  24.675  0.00  0.00    +0.178 C 
ATOM     29  C   UNL     1       9.242   5.112  23.443  0.00  0.00    +0.180 C 
ATOM     30  C   UNL     1      10.054   3.847  23.765  0.00  0.00    +0.214 C 
BRANCH  28  31
ATOM     31  O   UNL     1       9.408   5.971  25.696  0.00  0.00    -0.386 OA
ATOM     32  H   UNL     1      10.305   5.903  25.309  0.00  0.00    +0.210 HD
ENDBRANCH  28  31
BRANCH  29  33
ATOM     33  O   UNL     1      10.115   6.163  23.007  0.00  0.00    -0.386 OA
ATOM     34  H   UNL     1      10.297   6.710  23.797  0.00  0.00    +0.210 HD
ENDBRANCH  29  33
BRANCH  30  35
ATOM     35  O   UNL     1      10.688   3.311  22.596  0.00  0.00    -0.383 OA
ATOM     36  H   UNL     1      11.536   2.915  22.864  0.00  0.00    +0.210 HD
ENDBRANCH  30  35
BRANCH  27  37
ATOM     37  C   UNL     1       6.735   4.880  26.383  0.00  0.00    +0.266 C 
BRANCH  37  38
ATOM     38  O   UNL     1       7.496   4.834  27.607  0.00  0.00    -0.462 OA
BRANCH  38  39
ATOM     39  C   UNL     1       6.864   4.289  28.678  0.00  0.00    +0.304 C 
ATOM     40  C   UNL     1       5.391   4.168  28.424  0.00  0.00    +0.136 C 
ATOM     41  O   UNL     1       7.415   3.944  29.715  0.00  0.00    -0.251 OA
ENDBRANCH  38  39
ENDBRANCH  37  38
ENDBRANCH  27  37
ENDBRANCH  24  25
ENDBRANCH   6  24
BRANCH   1  42
ATOM     42  O   UNL     1       6.531  -5.427  25.029  0.00  0.00    -0.461 OA
BRANCH  42  46
ATOM     43  C   UNL     1       2.789  -5.891  27.053  0.00  0.00    +0.041 C 
ATOM     44  C   UNL     1       3.534  -7.040  26.369  0.00  0.00    +0.150 C 
ATOM     45  O   UNL     1       4.913  -6.715  26.160  0.00  0.00    -0.334 OA
ATOM     46  C   UNL     1       5.137  -5.692  25.184  0.00  0.00    +0.339 C 
ATOM     47  C   UNL     1       4.603  -6.179  23.815  0.00  0.00    +0.214 C 
ATOM     48  C   UNL     1       3.110  -6.488  23.938  0.00  0.00    +0.180 C 
ATOM     49  C   UNL     1       2.865  -7.509  25.065  0.00  0.00    +0.174 C 
BRANCH  49  50
ATOM     50  O   UNL     1       1.472  -7.731  25.292  0.00  0.00    -0.387 OA
ATOM     51  H   UNL     1       1.323  -8.694  25.330  0.00  0.00    +0.210 HD
ENDBRANCH  49  50
BRANCH  48  52
ATOM     52  O   UNL     1       2.600  -7.010  22.705  0.00  0.00    -0.386 OA
ATOM     53  H   UNL     1       1.877  -7.625  22.953  0.00  0.00    +0.210 HD
ENDBRANCH  48  52
BRANCH  47  54
ATOM     54  O   UNL     1       5.261  -7.391  23.375  0.00  0.00    -0.383 OA
ATOM     55  H   UNL     1       6.219  -7.266  23.525  0.00  0.00    +0.210 HD
ENDBRANCH  47  54
ENDBRANCH  42  46
ENDBRANCH   1  42
TORSDOF 17
ENDMDL
MODEL 4
REMARK VINA RESULT:      -7.3      2.252      9.298
REMARK  Name = 
REMARK  19 active torsions:
REMARK  status: ('A' for Active; 'I' for Inactive)
REMARK    1  A    between atoms: C_1  and  C_2
REMARK    2  A    between atoms: C_3  and  O_46
REMARK    3  A    between atoms: C_4  and  O_45
REMARK    4  A    between atoms: C_5  and  O_44
REMARK    5  A    between atoms: C_6  and  O_8
REMARK    6  A    between atoms: O_8  and  C_9
REMARK    7  A    between atoms: C_11  and  O_43
REMARK    8  A    between atoms: C_16  and  C_35
REMARK    9  A    between atoms: C_17  and  O_20
REMARK   10  A    between atoms: O_20  and  C_21
REMARK   11  A    between atoms: C_22  and  O_34
REMARK   12  A    between atoms: C_23  and  O_33
REMARK   13  A    between atoms: C_24  and  O_32
REMARK   14  A    between atoms: C_25  and  C_27
REMARK   15  A    between atoms: C_27  and  O_28
REMARK   16  A    between atoms: O_28  and  C_29
REMARK   17  A    between atoms: C_29  and  C_31
REMARK   18  A    between atoms: C_37  and  O_42
REMARK   19  A    between atoms: C_38  and  O_41
REMARK                            x       y       z     vdW  Elec       q    Type
REMARK                         _______ _______ _______ _____ _____    ______ ____
ROOT
ATOM      1  C   UNL     1       4.725  -3.261  26.894  0.00  0.00    +0.131 A 
ATOM      2  C   UNL     1       4.187  -2.025  26.509  0.00  0.00    +0.093 A 
ATOM      3  C   UNL     1       5.038  -0.945  26.212  0.00  0.00    +0.147 A 
ATOM      4  O   UNL     1       4.467   0.251  25.846  0.00  0.00    -0.451 OA
ATOM      5  C   UNL     1       5.285   1.312  25.433  0.00  0.00    +0.181 A 
ATOM      6  C   UNL     1       6.639   1.302  25.538  0.00  0.00    +0.214 A 
ATOM      7  C   UNL     1       7.254   0.080  26.163  0.00  0.00    +0.238 A 
ATOM      8  O   UNL     1       8.401   0.056  26.590  0.00  0.00    -0.283 OA
ATOM      9  C   UNL     1       6.411  -1.108  26.311  0.00  0.00    +0.109 A 
ATOM     10  C   UNL     1       6.949  -2.363  26.627  0.00  0.00    +0.135 A 
ATOM     11  C   UNL     1       6.109  -3.429  26.922  0.00  0.00    +0.092 A 
ENDROOT
BRANCH   5  12
ATOM     12  C   UNL     1       4.493   2.466  24.890  0.00  0.00    +0.025 A 
ATOM     13  C   UNL     1       3.868   3.379  25.768  0.00  0.00    +0.015 A 
ATOM     14  C   UNL     1       3.161   4.490  25.292  0.00  0.00    +0.050 A 
ATOM     15  C   UNL     1       3.056   4.705  23.930  0.00  0.00    +0.158 A 
ATOM     16  C   UNL     1       3.652   3.820  23.032  0.00  0.00    +0.159 A 
ATOM     17  C   UNL     1       4.373   2.728  23.509  0.00  0.00    +0.060 A 
BRANCH  15  18
ATOM     18  O   UNL     1       2.380   5.790  23.455  0.00  0.00    -0.503 OA
ATOM     19  H   UNL     1       2.629   5.846  22.510  0.00  0.00    +0.292 HD
ENDBRANCH  15  18
BRANCH  16  20
ATOM     20  O   UNL     1       3.507   4.076  21.701  0.00  0.00    -0.503 OA
ATOM     21  H   UNL     1       2.602   3.843  21.435  0.00  0.00    +0.292 HD
ENDBRANCH  16  20
ENDBRANCH   5  12
BRANCH  10  22
ATOM     22  O   UNL     1       8.297  -2.577  26.629  0.00  0.00    -0.506 OA
ATOM     23  H   UNL     1       8.490  -3.521  26.511  0.00  0.00    +0.292 HD
ENDBRANCH  10  22
BRANCH   6  24
ATOM     24  O   UNL     1       7.414   2.381  25.097  0.00  0.00    -0.453 OA
BRANCH  24  25
ATOM     25  C   UNL     1       7.703   2.469  23.692  0.00  0.00    +0.340 C 
ATOM     26  O   UNL     1       8.511   1.369  23.239  0.00  0.00    -0.330 OA
ATOM     27  C   UNL     1       9.842   1.352  23.776  0.00  0.00    +0.191 C 
ATOM     28  C   UNL     1      10.567   2.577  23.225  0.00  0.00    +0.178 C 
ATOM     29  C   UNL     1       9.856   3.841  23.726  0.00  0.00    +0.180 C 
ATOM     30  C   UNL     1       8.369   3.824  23.339  0.00  0.00    +0.214 C 
BRANCH  28  31
ATOM     31  O   UNL     1      10.529   2.568  21.784  0.00  0.00    -0.386 OA
ATOM     32  H   UNL     1      11.112   1.843  21.478  0.00  0.00    +0.210 HD
ENDBRANCH  28  31
BRANCH  29  33
ATOM     33  O   UNL     1      10.501   4.990  23.162  0.00  0.00    -0.386 OA
ATOM     34  H   UNL     1       9.797   5.652  23.015  0.00  0.00    +0.210 HD
ENDBRANCH  29  33
BRANCH  30  35
ATOM     35  O   UNL     1       7.659   4.933  23.906  0.00  0.00    -0.383 OA
ATOM     36  H   UNL     1       7.593   5.630  23.229  0.00  0.00    +0.210 HD
ENDBRANCH  30  35
BRANCH  27  37
ATOM     37  C   UNL     1      10.533   0.048  23.351  0.00  0.00    +0.266 C 
BRANCH  37  38
ATOM     38  O   UNL     1      10.179  -1.048  24.220  0.00  0.00    -0.462 OA
BRANCH  38  39
ATOM     39  C   UNL     1       9.816  -2.201  23.601  0.00  0.00    +0.304 C 
ATOM     40  C   UNL     1       9.311  -1.927  22.215  0.00  0.00    +0.136 C 
ATOM     41  O   UNL     1       9.885  -3.316  24.101  0.00  0.00    -0.251 OA
ENDBRANCH  38  39
ENDBRANCH  37  38
ENDBRANCH  27  37
ENDBRANCH  24  25
ENDBRANCH   6  24
BRANCH   1  42
ATOM     42  O   UNL     1       4.050  -4.385  27.279  0.00  0.00    -0.461 OA
BRANCH  42  46
ATOM     43  C   UNL     1       0.840  -6.267  25.165  0.00  0.00    +0.041 C 
ATOM     44  C   UNL     1       1.914  -7.036  25.940  0.00  0.00    +0.150 C 
ATOM     45  O   UNL     1       2.584  -6.187  26.880  0.00  0.00    -0.334 OA
ATOM     46  C   UNL     1       3.414  -5.186  26.283  0.00  0.00    +0.339 C 
ATOM     47  C   UNL     1       4.531  -5.880  25.466  0.00  0.00    +0.214 C 
ATOM     48  C   UNL     1       3.893  -6.762  24.390  0.00  0.00    +0.180 C 
ATOM     49  C   UNL     1       2.916  -7.766  25.030  0.00  0.00    +0.174 C 
BRANCH  49  50
ATOM     50  O   UNL     1       2.210  -8.525  24.047  0.00  0.00    -0.387 OA
ATOM     51  H   UNL     1       2.856  -9.078  23.571  0.00  0.00    +0.210 HD
ENDBRANCH  49  50
BRANCH  48  52
ATOM     52  O   UNL     1       4.899  -7.475  23.661  0.00  0.00    -0.386 OA
ATOM     53  H   UNL     1       5.142  -8.243  24.222  0.00  0.00    +0.210 HD
ENDBRANCH  48  52
BRANCH  47  54
ATOM     54  O   UNL     1       5.357  -6.736  26.291  0.00  0.00    -0.383 OA
ATOM     55  H   UNL     1       6.092  -6.185  26.626  0.00  0.00    +0.210 HD
ENDBRANCH  47  54
ENDBRANCH  42  46
ENDBRANCH   1  42
TORSDOF 17
ENDMDL
MODEL 5
REMARK VINA RESULT:      -7.0      2.155     10.014
REMARK  Name = 
REMARK  19 active torsions:
REMARK  status: ('A' for Active; 'I' for Inactive)
REMARK    1  A    between atoms: C_1  and  C_2
REMARK    2  A    between atoms: C_3  and  O_46
REMARK    3  A    between atoms: C_4  and  O_45
REMARK    4  A    between atoms: C_5  and  O_44
REMARK    5  A    between atoms: C_6  and  O_8
REMARK    6  A    between atoms: O_8  and  C_9
REMARK    7  A    between atoms: C_11  and  O_43
REMARK    8  A    between atoms: C_16  and  C_35
REMARK    9  A    between atoms: C_17  and  O_20
REMARK   10  A    between atoms: O_20  and  C_21
REMARK   11  A    between atoms: C_22  and  O_34
REMARK   12  A    between atoms: C_23  and  O_33
REMARK   13  A    between atoms: C_24  and  O_32
REMARK   14  A    between atoms: C_25  and  C_27
REMARK   15  A    between atoms: C_27  and  O_28
REMARK   16  A    between atoms: O_28  and  C_29
REMARK   17  A    between atoms: C_29  and  C_31
REMARK   18  A    between atoms: C_37  and  O_42
REMARK   19  A    between atoms: C_38  and  O_41
REMARK                            x       y       z     vdW  Elec       q    Type
REMARK                         _______ _______ _______ _____ _____    ______ ____
ROOT
ATOM      1  C   UNL     1       6.736  -3.807  24.211  0.00  0.00    +0.131 A 
ATOM      2  C   UNL     1       6.349  -2.811  25.119  0.00  0.00    +0.093 A 
ATOM      3  C   UNL     1       6.847  -1.503  24.988  0.00  0.00    +0.147 A 
ATOM      4  O   UNL     1       6.447  -0.560  25.905  0.00  0.00    -0.451 OA
ATOM      5  C   UNL     1       6.833   0.778  25.737  0.00  0.00    +0.181 A 
ATOM      6  C   UNL     1       7.740   1.188  24.814  0.00  0.00    +0.214 A 
ATOM      7  C   UNL     1       8.361   0.115  23.961  0.00  0.00    +0.238 A 
ATOM      8  O   UNL     1       9.385   0.290  23.314  0.00  0.00    -0.283 OA
ATOM      9  C   UNL     1       7.732  -1.206  23.962  0.00  0.00    +0.109 A 
ATOM     10  C   UNL     1       8.063  -2.185  23.015  0.00  0.00    +0.135 A 
ATOM     11  C   UNL     1       7.572  -3.477  23.145  0.00  0.00    +0.092 A 
ENDROOT
BRANCH   5  12
ATOM     12  C   UNL     1       6.153   1.695  26.713  0.00  0.00    +0.025 A 
ATOM     13  C   UNL     1       4.935   2.322  26.372  0.00  0.00    +0.015 A 
ATOM     14  C   UNL     1       4.254   3.146  27.277  0.00  0.00    +0.050 A 
ATOM     15  C   UNL     1       4.782   3.367  28.536  0.00  0.00    +0.158 A 
ATOM     16  C   UNL     1       5.988   2.772  28.904  0.00  0.00    +0.159 A 
ATOM     17  C   UNL     1       6.652   1.936  28.010  0.00  0.00    +0.060 A 
BRANCH  15  18
ATOM     18  O   UNL     1       4.122   4.158  29.430  0.00  0.00    -0.503 OA
ATOM     19  H   UNL     1       3.189   4.143  29.135  0.00  0.00    +0.292 HD
ENDBRANCH  15  18
BRANCH  16  20
ATOM     20  O   UNL     1       6.467   3.034  30.154  0.00  0.00    -0.503 OA
ATOM     21  H   UNL     1       6.020   2.448  30.789  0.00  0.00    +0.292 HD
ENDBRANCH  16  20
ENDBRANCH   5  12
BRANCH  10  22
ATOM     22  O   UNL     1       8.847  -1.892  21.937  0.00  0.00    -0.506 OA
ATOM     23  H   UNL     1       8.305  -1.562  21.203  0.00  0.00    +0.292 HD
ENDBRANCH  10  22
BRANCH   6  24
ATOM     24  O   UNL     1       8.081   2.539  24.674  0.00  0.00    -0.453 OA
BRANCH  24  25
ATOM     25  C   UNL     1       8.347   3.031  23.351  0.00  0.00    +0.340 C 
ATOM     26  O   UNL     1       9.293   4.115  23.360  0.00  0.00    -0.330 OA
ATOM     27  C   UNL     1       8.814   5.312  23.989  0.00  0.00    +0.191 C 
ATOM     28  C   UNL     1       7.669   5.846  23.133  0.00  0.00    +0.178 C 
ATOM     29  C   UNL     1       6.534   4.814  23.123  0.00  0.00    +0.180 C 
ATOM     30  C   UNL     1       7.038   3.448  22.632  0.00  0.00    +0.214 C 
BRANCH  28  31
ATOM     31  O   UNL     1       8.117   6.049  21.777  0.00  0.00    -0.386 OA
ATOM     32  H   UNL     1       9.083   5.891  21.759  0.00  0.00    +0.210 HD
ENDBRANCH  28  31
BRANCH  29  33
ATOM     33  O   UNL     1       5.482   5.288  22.272  0.00  0.00    -0.386 OA
ATOM     34  H   UNL     1       4.659   5.227  22.797  0.00  0.00    +0.210 HD
ENDBRANCH  29  33
BRANCH  30  35
ATOM     35  O   UNL     1       6.026   2.438  22.736  0.00  0.00    -0.383 OA
ATOM     36  H   UNL     1       5.157   2.875  22.708  0.00  0.00    +0.210 HD
ENDBRANCH  30  35
BRANCH  27  37
ATOM     37  C   UNL     1       9.968   6.321  24.081  0.00  0.00    +0.266 C 
BRANCH  37  38
ATOM     38  O   UNL     1      11.079   5.933  23.247  0.00  0.00    -0.462 OA
BRANCH  38  39
ATOM     39  C   UNL     1      12.288   5.866  23.864  0.00  0.00    +0.304 C 
ATOM     40  C   UNL     1      13.277   5.119  23.020  0.00  0.00    +0.136 C 
ATOM     41  O   UNL     1      12.542   6.346  24.960  0.00  0.00    -0.251 OA
ENDBRANCH  38  39
ENDBRANCH  37  38
ENDBRANCH  27  37
ENDBRANCH  24  25
ENDBRANCH   6  24
BRANCH   1  42
ATOM     42  O   UNL     1       6.405  -5.133  24.230  0.00  0.00    -0.461 OA
BRANCH  42  46
ATOM     43  C   UNL     1       3.312  -6.722  26.726  0.00  0.00    +0.041 C 
ATOM     44  C   UNL     1       3.733  -7.345  25.391  0.00  0.00    +0.150 C 
ATOM     45  O   UNL     1       5.032  -6.891  24.992  0.00  0.00    -0.334 OA
ATOM     46  C   UNL     1       5.084  -5.510  24.619  0.00  0.00    +0.339 C 
ATOM     47  C   UNL     1       4.160  -5.284  23.397  0.00  0.00    +0.214 C 
ATOM     48  C   UNL     1       2.731  -5.689  23.766  0.00  0.00    +0.180 C 
ATOM     49  C   UNL     1       2.699  -7.143  24.271  0.00  0.00    +0.174 C 
BRANCH  49  50
ATOM     50  O   UNL     1       1.402  -7.518  24.740  0.00  0.00    -0.387 OA
ATOM     51  H   UNL     1       1.504  -7.919  25.623  0.00  0.00    +0.210 HD
ENDBRANCH  49  50
BRANCH  48  52
ATOM     52  O   UNL     1       1.863  -5.559  22.633  0.00  0.00    -0.386 OA
ATOM     53  H   UNL     1       2.399  -5.128  21.934  0.00  0.00    +0.210 HD
ENDBRANCH  48  52
BRANCH  47  54
ATOM     54  O   UNL     1       4.556  -6.087  22.260  0.00  0.00    -0.383 OA
ATOM     55  H   UNL     1       5.478  -5.843  22.046  0.00  0.00    +0.210 HD
ENDBRANCH  47  54
ENDBRANCH  42  46
ENDBRANCH   1  42
TORSDOF 17
ENDMDL
MODEL 6
REMARK VINA RESULT:      -7.0      1.480      2.211
REMARK  Name = 
REMARK  19 active torsions:
REMARK  status: ('A' for Active; 'I' for Inactive)
REMARK    1  A    between atoms: C_1  and  C_2
REMARK    2  A    between atoms: C_3  and  O_46
REMARK    3  A    between atoms: C_4  and  O_45
REMARK    4  A    between atoms: C_5  and  O_44
REMARK    5  A    between atoms: C_6  and  O_8
REMARK    6  A    between atoms: O_8  and  C_9
REMARK    7  A    between atoms: C_11  and  O_43
REMARK    8  A    between atoms: C_16  and  C_35
REMARK    9  A    between atoms: C_17  and  O_20
REMARK   10  A    between atoms: O_20  and  C_21
REMARK   11  A    between atoms: C_22  and  O_34
REMARK   12  A    between atoms: C_23  and  O_33
REMARK   13  A    between atoms: C_24  and  O_32
REMARK   14  A    between atoms: C_25  and  C_27
REMARK   15  A    between atoms: C_27  and  O_28
REMARK   16  A    between atoms: O_28  and  C_29
REMARK   17  A    between atoms: C_29  and  C_31
REMARK   18  A    between atoms: C_37  and  O_42
REMARK   19  A    between atoms: C_38  and  O_41
REMARK                            x       y       z     vdW  Elec       q    Type
REMARK                         _______ _______ _______ _____ _____    ______ ____
ROOT
ATOM      1  C   UNL     1       6.985   1.958  26.043  0.00  0.00    +0.131 A 
ATOM      2  C   UNL     1       7.064   0.753  25.330  0.00  0.00    +0.093 A 
ATOM      3  C   UNL     1       6.155  -0.288  25.595  0.00  0.00    +0.147 A 
ATOM      4  O   UNL     1       6.275  -1.454  24.877  0.00  0.00    -0.451 OA
ATOM      5  C   UNL     1       5.317  -2.466  25.035  0.00  0.00    +0.181 A 
ATOM      6  C   UNL     1       4.358  -2.450  25.996  0.00  0.00    +0.214 A 
ATOM      7  C   UNL     1       4.375  -1.279  26.940  0.00  0.00    +0.238 A 
ATOM      8  O   UNL     1       3.782  -1.279  28.011  0.00  0.00    -0.283 OA
ATOM      9  C   UNL     1       5.187  -0.118  26.574  0.00  0.00    +0.109 A 
ATOM     10  C   UNL     1       5.065   1.111  27.236  0.00  0.00    +0.135 A 
ATOM     11  C   UNL     1       5.963   2.138  26.974  0.00  0.00    +0.092 A 
ENDROOT
BRANCH   5  12
ATOM     12  C   UNL     1       5.493  -3.578  24.041  0.00  0.00    +0.025 A 
ATOM     13  C   UNL     1       6.754  -3.817  23.454  0.00  0.00    +0.015 A 
ATOM     14  C   UNL     1       6.960  -4.875  22.559  0.00  0.00    +0.050 A 
ATOM     15  C   UNL     1       5.907  -5.707  22.226  0.00  0.00    +0.158 A 
ATOM     16  C   UNL     1       4.645  -5.496  22.780  0.00  0.00    +0.159 A 
ATOM     17  C   UNL     1       4.448  -4.457  23.686  0.00  0.00    +0.060 A 
BRANCH  15  18
ATOM     18  O   UNL     1       6.097  -6.748  21.365  0.00  0.00    -0.503 OA
ATOM     19  H   UNL     1       5.206  -7.129  21.233  0.00  0.00    +0.292 HD
ENDBRANCH  15  18
BRANCH  16  20
ATOM     20  O   UNL     1       3.641  -6.342  22.409  0.00  0.00    -0.503 OA
ATOM     21  H   UNL     1       2.977  -6.369  23.118  0.00  0.00    +0.292 HD
ENDBRANCH  16  20
ENDBRANCH   5  12
BRANCH  10  22
ATOM     22  O   UNL     1       4.056   1.340  28.126  0.00  0.00    -0.506 OA
ATOM     23  H   UNL     1       4.320   2.014  28.771  0.00  0.00    +0.292 HD
ENDBRANCH  10  22
BRANCH   6  24
ATOM     24  O   UNL     1       3.413  -3.478  26.103  0.00  0.00    -0.453 OA
BRANCH  24  25
ATOM     25  C   UNL     1       3.341  -4.196  27.346  0.00  0.00    +0.340 C 
ATOM     26  O   UNL     1       4.645  -4.520  27.857  0.00  0.00    -0.330 OA
ATOM     27  C   UNL     1       5.377  -5.461  27.057  0.00  0.00    +0.191 C 
ATOM     28  C   UNL     1       4.628  -6.789  27.124  0.00  0.00    +0.178 C 
ATOM     29  C   UNL     1       3.235  -6.605  26.507  0.00  0.00    +0.180 C 
ATOM     30  C   UNL     1       2.470  -5.471  27.207  0.00  0.00    +0.214 C 
BRANCH  28  31
ATOM     31  O   UNL     1       4.471  -7.201  28.497  0.00  0.00    -0.386 OA
ATOM     32  H   UNL     1       4.197  -8.142  28.493  0.00  0.00    +0.210 HD
ENDBRANCH  28  31
BRANCH  29  33
ATOM     33  O   UNL     1       2.510  -7.836  26.622  0.00  0.00    -0.386 OA
ATOM     34  H   UNL     1       2.093  -7.988  25.750  0.00  0.00    +0.210 HD
ENDBRANCH  29  33
BRANCH  30  35
ATOM     35  O   UNL     1       1.218  -5.197  26.565  0.00  0.00    -0.383 OA
ATOM     36  H   UNL     1       1.403  -4.794  25.698  0.00  0.00    +0.210 HD
ENDBRANCH  30  35
BRANCH  27  37
ATOM     37  C   UNL     1       6.801  -5.587  27.617  0.00  0.00    +0.266 C 
BRANCH  37  38
ATOM     38  O   UNL     1       7.771  -5.764  26.564  0.00  0.00    -0.462 OA
BRANCH  38  39
ATOM     39  C   UNL     1       8.539  -4.681  26.277  0.00  0.00    +0.304 C 
ATOM     40  C   UNL     1       9.728  -5.074  25.452  0.00  0.00    +0.136 C 
ATOM     41  O   UNL     1       8.301  -3.538  26.641  0.00  0.00    -0.251 OA
ENDBRANCH  38  39
ENDBRANCH  37  38
ENDBRANCH  27  37
ENDBRANCH  24  25
ENDBRANCH   6  24
BRANCH   1  42
ATOM     42  O   UNL     1       7.819   3.037  25.961  0.00  0.00    -0.461 OA
BRANCH  42  46
ATOM     43  C   UNL     1       5.469   5.512  23.379  0.00  0.00    +0.041 C 
ATOM     44  C   UNL     1       6.494   4.491  22.877  0.00  0.00    +0.150 C 
ATOM     45  O   UNL     1       6.806   3.527  23.890  0.00  0.00    -0.334 OA
ATOM     46  C   UNL     1       7.542   4.054  24.999  0.00  0.00    +0.339 C 
ATOM     47  C   UNL     1       8.902   4.592  24.490  0.00  0.00    +0.214 C 
ATOM     48  C   UNL     1       8.652   5.680  23.443  0.00  0.00    +0.180 C 
ATOM     49  C   UNL     1       7.767   5.137  22.306  0.00  0.00    +0.174 C 
BRANCH  49  50
ATOM     50  O   UNL     1       7.412   6.157  21.371  0.00  0.00    -0.387 OA
ATOM     51  H   UNL     1       7.770   5.906  20.500  0.00  0.00    +0.210 HD
ENDBRANCH  49  50
BRANCH  48  52
ATOM     52  O   UNL     1       9.892   6.149  22.899  0.00  0.00    -0.386 OA
ATOM     53  H   UNL     1       9.664   6.924  22.343  0.00  0.00    +0.210 HD
ENDBRANCH  48  52
BRANCH  47  54
ATOM     54  O   UNL     1       9.693   3.558  23.858  0.00  0.00    -0.383 OA
ATOM     55  H   UNL     1      10.552   3.530  24.325  0.00  0.00    +0.210 HD
ENDBRANCH  47  54
ENDBRANCH  42  46
ENDBRANCH   1  42
TORSDOF 17
ENDMDL
MODEL 7
REMARK VINA RESULT:      -7.0      1.512      3.060
REMARK  Name = 
REMARK  19 active torsions:
REMARK  status: ('A' for Active; 'I' for Inactive)
REMARK    1  A    between atoms: C_1  and  C_2
REMARK    2  A    between atoms: C_3  and  O_46
REMARK    3  A    between atoms: C_4  and  O_45
REMARK    4  A    between atoms: C_5  and  O_44
REMARK    5  A    between atoms: C_6  and  O_8
REMARK    6  A    between atoms: O_8  and  C_9
REMARK    7  A    between atoms: C_11  and  O_43
REMARK    8  A    between atoms: C_16  and  C_35
REMARK    9  A    between atoms: C_17  and  O_20
REMARK   10  A    between atoms: O_20  and  C_21
REMARK   11  A    between atoms: C_22  and  O_34
REMARK   12  A    between atoms: C_23  and  O_33
REMARK   13  A    between atoms: C_24  and  O_32
REMARK   14  A    between atoms: C_25  and  C_27
REMARK   15  A    between atoms: C_27  and  O_28
REMARK   16  A    between atoms: O_28  and  C_29
REMARK   17  A    between atoms: C_29  and  C_31
REMARK   18  A    between atoms: C_37  and  O_42
REMARK   19  A    between atoms: C_38  and  O_41
REMARK                            x       y       z     vdW  Elec       q    Type
REMARK                         _______ _______ _______ _____ _____    ______ ____
ROOT
ATOM      1  C   UNL     1       5.850   2.683  24.705  0.00  0.00    +0.131 A 
ATOM      2  C   UNL     1       6.109   1.412  24.173  0.00  0.00    +0.093 A 
ATOM      3  C   UNL     1       5.700   0.259  24.866  0.00  0.00    +0.147 A 
ATOM      4  O   UNL     1       5.982  -0.967  24.311  0.00  0.00    -0.451 OA
ATOM      5  C   UNL     1       5.489  -2.132  24.918  0.00  0.00    +0.181 A 
ATOM      6  C   UNL     1       4.890  -2.149  26.136  0.00  0.00    +0.214 A 
ATOM      7  C   UNL     1       4.793  -0.831  26.854  0.00  0.00    +0.238 A 
ATOM      8  O   UNL     1       4.560  -0.742  28.053  0.00  0.00    -0.283 OA
ATOM      9  C   UNL     1       5.048   0.386  26.084  0.00  0.00    +0.109 A 
ATOM     10  C   UNL     1       4.727   1.657  26.579  0.00  0.00    +0.135 A 
ATOM     11  C   UNL     1       5.132   2.797  25.895  0.00  0.00    +0.092 A 
ENDROOT
BRANCH   5  12
ATOM     12  C   UNL     1       5.726  -3.355  24.079  0.00  0.00    +0.025 A 
ATOM     13  C   UNL     1       7.038  -3.829  23.863  0.00  0.00    +0.015 A 
ATOM     14  C   UNL     1       7.287  -4.993  23.124  0.00  0.00    +0.050 A 
ATOM     15  C   UNL     1       6.231  -5.699  22.580  0.00  0.00    +0.158 A 
ATOM     16  C   UNL     1       4.922  -5.257  22.765  0.00  0.00    +0.159 A 
ATOM     17  C   UNL     1       4.675  -4.111  23.518  0.00  0.00    +0.060 A 
BRANCH  15  18
ATOM     18  O   UNL     1       6.460  -6.841  21.869  0.00  0.00    -0.503 OA
ATOM     19  H   UNL     1       5.767  -6.849  21.179  0.00  0.00    +0.292 HD
ENDBRANCH  15  18
BRANCH  16  20
ATOM     20  O   UNL     1       3.920  -5.988  22.197  0.00  0.00    -0.503 OA
ATOM     21  H   UNL     1       4.039  -5.983  21.232  0.00  0.00    +0.292 HD
ENDBRANCH  16  20
ENDBRANCH   5  12
BRANCH  10  22
ATOM     22  O   UNL     1       3.994   1.810  27.720  0.00  0.00    -0.506 OA
ATOM     23  H   UNL     1       4.347   1.246  28.427  0.00  0.00    +0.292 HD
ENDBRANCH  10  22
BRANCH   6  24
ATOM     24  O   UNL     1       4.399  -3.337  26.692  0.00  0.00    -0.453 OA
BRANCH  24  25
ATOM     25  C   UNL     1       5.344  -4.238  27.292  0.00  0.00    +0.340 C 
ATOM     26  O   UNL     1       5.455  -5.469  26.557  0.00  0.00    -0.330 OA
ATOM     27  C   UNL     1       4.273  -6.281  26.580  0.00  0.00    +0.191 C 
ATOM     28  C   UNL     1       4.072  -6.744  28.021  0.00  0.00    +0.178 C 
ATOM     29  C   UNL     1       3.835  -5.515  28.908  0.00  0.00    +0.180 C 
ATOM     30  C   UNL     1       4.993  -4.512  28.777  0.00  0.00    +0.214 C 
BRANCH  28  31
ATOM     31  O   UNL     1       5.250  -7.430  28.491  0.00  0.00    -0.386 OA
ATOM     32  H   UNL     1       6.022  -6.864  28.286  0.00  0.00    +0.210 HD
ENDBRANCH  28  31
BRANCH  29  33
ATOM     33  O   UNL     1       3.704  -5.943  30.270  0.00  0.00    -0.386 OA
ATOM     34  H   UNL     1       3.269  -5.208  30.746  0.00  0.00    +0.210 HD
ENDBRANCH  29  33
BRANCH  30  35
ATOM     35  O   UNL     1       4.733  -3.301  29.498  0.00  0.00    -0.383 OA
ATOM     36  H   UNL     1       4.490  -2.611  28.856  0.00  0.00    +0.210 HD
ENDBRANCH  30  35
BRANCH  27  37
ATOM     37  C   UNL     1       4.467  -7.470  25.628  0.00  0.00    +0.266 C 
BRANCH  37  38
ATOM     38  O   UNL     1       3.514  -7.444  24.546  0.00  0.00    -0.462 OA
BRANCH  38  39
ATOM     39  C   UNL     1       2.368  -8.144  24.748  0.00  0.00    +0.304 C 
ATOM     40  C   UNL     1       1.168  -7.256  24.607  0.00  0.00    +0.136 C 
ATOM     41  O   UNL     1       2.314  -9.337  25.012  0.00  0.00    -0.251 OA
ENDBRANCH  38  39
ENDBRANCH  37  38
ENDBRANCH  27  37
ENDBRANCH  24  25
ENDBRANCH   6  24
BRANCH   1  42
ATOM     42  O   UNL     1       6.232   3.896  24.203  0.00  0.00    -0.461 OA
BRANCH  42  46
ATOM     43  C   UNL     1       9.196   6.343  26.084  0.00  0.00    +0.041 C 
ATOM     44  C   UNL     1       8.891   6.378  24.583  0.00  0.00    +0.150 C 
ATOM     45  O   UNL     1       7.609   5.806  24.300  0.00  0.00    -0.334 OA
ATOM     46  C   UNL     1       7.534   4.392  24.510  0.00  0.00    +0.339 C 
ATOM     47  C   UNL     1       8.533   3.689  23.558  0.00  0.00    +0.214 C 
ATOM     48  C   UNL     1       9.946   4.203  23.844  0.00  0.00    +0.180 C 
ATOM     49  C   UNL     1       9.994   5.737  23.724  0.00  0.00    +0.174 C 
BRANCH  49  50
ATOM     50  O   UNL     1      11.267   6.263  24.102  0.00  0.00    -0.387 OA
ATOM     51  H   UNL     1      11.120   6.957  24.772  0.00  0.00    +0.210 HD
ENDBRANCH  49  50
BRANCH  48  52
ATOM     52  O   UNL     1      10.886   3.624  22.930  0.00  0.00    -0.386 OA
ATOM     53  H   UNL     1      11.642   3.323  23.479  0.00  0.00    +0.210 HD
ENDBRANCH  48  52
BRANCH  47  54
ATOM     54  O   UNL     1       8.246   3.968  22.167  0.00  0.00    -0.383 OA
ATOM     55  H   UNL     1       8.239   4.940  22.066  0.00  0.00    +0.210 HD
ENDBRANCH  47  54
ENDBRANCH  42  46
ENDBRANCH   1  42
TORSDOF 17
ENDMDL
MODEL 8
REMARK VINA RESULT:      -6.9      2.260      9.495
REMARK  Name = 
REMARK  19 active torsions:
REMARK  status: ('A' for Active; 'I' for Inactive)
REMARK    1  A    between atoms: C_1  and  C_2
REMARK    2  A    between atoms: C_3  and  O_46
REMARK    3  A    between atoms: C_4  and  O_45
REMARK    4  A    between atoms: C_5  and  O_44
REMARK    5  A    between atoms: C_6  and  O_8
REMARK    6  A    between atoms: O_8  and  C_9
REMARK    7  A    between atoms: C_11  and  O_43
REMARK    8  A    between atoms: C_16  and  C_35
REMARK    9  A    between atoms: C_17  and  O_20
REMARK   10  A    between atoms: O_20  and  C_21
REMARK   11  A    between atoms: C_22  and  O_34
REMARK   12  A    between atoms: C_23  and  O_33
REMARK   13  A    between atoms: C_24  and  O_32
REMARK   14  A    between atoms: C_25  and  C_27
REMARK   15  A    between atoms: C_27  and  O_28
REMARK   16  A    between atoms: O_28  and  C_29
REMARK   17  A    between atoms: C_29  and  C_31
REMARK   18  A    between atoms: C_37  and  O_42
REMARK   19  A    between atoms: C_38  and  O_41
REMARK                            x       y       z     vdW  Elec       q    Type
REMARK                         _______ _______ _______ _____ _____    ______ ____
ROOT
ATOM      1  C   UNL     1       5.579  -4.690  25.370  0.00  0.00    +0.131 A 
ATOM      2  C   UNL     1       6.287  -3.664  24.728  0.00  0.00    +0.093 A 
ATOM      3  C   UNL     1       6.401  -2.399  25.332  0.00  0.00    +0.147 A 
ATOM      4  O   UNL     1       7.098  -1.421  24.663  0.00  0.00    -0.451 OA
ATOM      5  C   UNL     1       7.328  -0.185  25.286  0.00  0.00    +0.181 A 
ATOM      6  C   UNL     1       6.749   0.186  26.456  0.00  0.00    +0.214 A 
ATOM      7  C   UNL     1       5.794  -0.799  27.073  0.00  0.00    +0.238 A 
ATOM      8  O   UNL     1       4.988  -0.490  27.942  0.00  0.00    -0.283 OA
ATOM      9  C   UNL     1       5.800  -2.169  26.560  0.00  0.00    +0.109 A 
ATOM     10  C   UNL     1       5.153  -3.215  27.232  0.00  0.00    +0.135 A 
ATOM     11  C   UNL     1       5.039  -4.465  26.636  0.00  0.00    +0.092 A 
ENDROOT
BRANCH   5  12
ATOM     12  C   UNL     1       8.263   0.686  24.497  0.00  0.00    +0.025 A 
ATOM     13  C   UNL     1       9.659   0.577  24.672  0.00  0.00    +0.015 A 
ATOM     14  C   UNL     1      10.557   1.343  23.918  0.00  0.00    +0.050 A 
ATOM     15  C   UNL     1      10.076   2.241  22.983  0.00  0.00    +0.158 A 
ATOM     16  C   UNL     1       8.703   2.383  22.788  0.00  0.00    +0.159 A 
ATOM     17  C   UNL     1       7.813   1.604  23.524  0.00  0.00    +0.060 A 
BRANCH  15  18
ATOM     18  O   UNL     1      10.941   2.984  22.234  0.00  0.00    -0.503 OA
ATOM     19  H   UNL     1      11.578   3.351  22.879  0.00  0.00    +0.292 HD
ENDBRANCH  15  18
BRANCH  16  20
ATOM     20  O   UNL     1       8.285   3.290  21.860  0.00  0.00    -0.503 OA
ATOM     21  H   UNL     1       8.426   2.918  20.974  0.00  0.00    +0.292 HD
ENDBRANCH  16  20
ENDBRANCH   5  12
BRANCH  10  22
ATOM     22  O   UNL     1       4.646  -3.045  28.488  0.00  0.00    -0.506 OA
ATOM     23  H   UNL     1       5.177  -3.533  29.137  0.00  0.00    +0.292 HD
ENDBRANCH  10  22
BRANCH   6  24
ATOM     24  O   UNL     1       7.024   1.425  27.047  0.00  0.00    -0.453 OA
BRANCH  24  25
ATOM     25  C   UNL     1       6.029   2.457  26.937  0.00  0.00    +0.340 C 
ATOM     26  O   UNL     1       6.404   3.465  25.982  0.00  0.00    -0.330 OA
ATOM     27  C   UNL     1       7.545   4.246  26.364  0.00  0.00    +0.191 C 
ATOM     28  C   UNL     1       7.148   5.053  27.597  0.00  0.00    +0.178 C 
ATOM     29  C   UNL     1       6.818   4.084  28.739  0.00  0.00    +0.180 C 
ATOM     30  C   UNL     1       5.723   3.091  28.317  0.00  0.00    +0.214 C 
BRANCH  28  31
ATOM     31  O   UNL     1       5.978   5.846  27.315  0.00  0.00    -0.386 OA
ATOM     32  H   UNL     1       6.275   6.658  26.854  0.00  0.00    +0.210 HD
ENDBRANCH  28  31
BRANCH  29  33
ATOM     33  O   UNL     1       6.389   4.838  29.880  0.00  0.00    -0.386 OA
ATOM     34  H   UNL     1       5.419   4.928  29.799  0.00  0.00    +0.210 HD
ENDBRANCH  29  33
BRANCH  30  35
ATOM     35  O   UNL     1       5.490   2.097  29.324  0.00  0.00    -0.383 OA
ATOM     36  H   UNL     1       4.796   1.495  29.002  0.00  0.00    +0.210 HD
ENDBRANCH  30  35
BRANCH  27  37
ATOM     37  C   UNL     1       7.936   5.160  25.193  0.00  0.00    +0.266 C 
BRANCH  37  38
ATOM     38  O   UNL     1       9.351   5.097  24.921  0.00  0.00    -0.462 OA
BRANCH  38  39
ATOM     39  C   UNL     1       9.787   5.844  23.874  0.00  0.00    +0.304 C 
ATOM     40  C   UNL     1       8.691   6.727  23.355  0.00  0.00    +0.136 C 
ATOM     41  O   UNL     1      10.919   5.806  23.410  0.00  0.00    -0.251 OA
ENDBRANCH  38  39
ENDBRANCH  37  38
ENDBRANCH  27  37
ENDBRANCH  24  25
ENDBRANCH   6  24
BRANCH   1  42
ATOM     42  O   UNL     1       5.315  -5.947  24.902  0.00  0.00    -0.461 OA
BRANCH  42  46
ATOM     43  C   UNL     1       1.791  -8.188  25.837  0.00  0.00    +0.041 C 
ATOM     44  C   UNL     1       2.543  -8.301  24.508  0.00  0.00    +0.150 C 
ATOM     45  O   UNL     1       3.878  -7.794  24.622  0.00  0.00    -0.334 OA
ATOM     46  C   UNL     1       3.957  -6.377  24.802  0.00  0.00    +0.339 C 
ATOM     47  C   UNL     1       3.340  -5.677  23.566  0.00  0.00    +0.214 C 
ATOM     48  C   UNL     1       1.884  -6.120  23.413  0.00  0.00    +0.180 C 
ATOM     49  C   UNL     1       1.796  -7.655  23.329  0.00  0.00    +0.174 C 
BRANCH  49  50
ATOM     50  O   UNL     1       0.443  -8.113  23.307  0.00  0.00    -0.387 OA
ATOM     51  H   UNL     1      -0.123  -7.369  23.031  0.00  0.00    +0.210 HD
ENDBRANCH  49  50
BRANCH  48  52
ATOM     52  O   UNL     1       1.304  -5.545  22.235  0.00  0.00    -0.386 OA
ATOM     53  H   UNL     1       1.831  -5.890  21.482  0.00  0.00    +0.210 HD
ENDBRANCH  48  52
BRANCH  47  54
ATOM     54  O   UNL     1       4.030  -6.028  22.342  0.00  0.00    -0.383 OA
ATOM     55  H   UNL     1       4.641  -5.293  22.139  0.00  0.00    +0.210 HD
ENDBRANCH  47  54
ENDBRANCH  42  46
ENDBRANCH   1  42
TORSDOF 17
ENDMDL
MODEL 9
REMARK VINA RESULT:      -6.9      2.226      9.618
REMARK  Name = 
REMARK  19 active torsions:
REMARK  status: ('A' for Active; 'I' for Inactive)
REMARK    1  A    between atoms: C_1  and  C_2
REMARK    2  A    between atoms: C_3  and  O_46
REMARK    3  A    between atoms: C_4  and  O_45
REMARK    4  A    between atoms: C_5  and  O_44
REMARK    5  A    between atoms: C_6  and  O_8
REMARK    6  A    between atoms: O_8  and  C_9
REMARK    7  A    between atoms: C_11  and  O_43
REMARK    8  A    between atoms: C_16  and  C_35
REMARK    9  A    between atoms: C_17  and  O_20
REMARK   10  A    between atoms: O_20  and  C_21
REMARK   11  A    between atoms: C_22  and  O_34
REMARK   12  A    between atoms: C_23  and  O_33
REMARK   13  A    between atoms: C_24  and  O_32
REMARK   14  A    between atoms: C_25  and  C_27
REMARK   15  A    between atoms: C_27  and  O_28
REMARK   16  A    between atoms: O_28  and  C_29
REMARK   17  A    between atoms: C_29  and  C_31
REMARK   18  A    between atoms: C_37  and  O_42
REMARK   19  A    between atoms: C_38  and  O_41
REMARK                            x       y       z     vdW  Elec       q    Type
REMARK                         _______ _______ _______ _____ _____    ______ ____
ROOT
ATOM      1  C   UNL     1       6.195  -3.308  24.084  0.00  0.00    +0.131 A 
ATOM      2  C   UNL     1       5.350  -2.223  24.358  0.00  0.00    +0.093 A 
ATOM      3  C   UNL     1       5.894  -0.965  24.675  0.00  0.00    +0.147 A 
ATOM      4  O   UNL     1       5.029   0.069  24.943  0.00  0.00    -0.451 OA
ATOM      5  C   UNL     1       5.535   1.360  25.151  0.00  0.00    +0.181 A 
ATOM      6  C   UNL     1       6.857   1.637  25.283  0.00  0.00    +0.214 A 
ATOM      7  C   UNL     1       7.797   0.463  25.225  0.00  0.00    +0.238 A 
ATOM      8  O   UNL     1       8.954   0.517  25.621  0.00  0.00    -0.283 OA
ATOM      9  C   UNL     1       7.271  -0.807  24.725  0.00  0.00    +0.109 A 
ATOM     10  C   UNL     1       8.114  -1.874  24.383  0.00  0.00    +0.135 A 
ATOM     11  C   UNL     1       7.577  -3.117  24.071  0.00  0.00    +0.092 A 
ENDROOT
BRANCH   5  12
ATOM     12  C   UNL     1       4.447   2.392  25.237  0.00  0.00    +0.025 A 
ATOM     13  C   UNL     1       3.867   2.918  24.062  0.00  0.00    +0.015 A 
ATOM     14  C   UNL     1       2.820   3.848  24.112  0.00  0.00    +0.050 A 
ATOM     15  C   UNL     1       2.340   4.276  25.335  0.00  0.00    +0.158 A 
ATOM     16  C   UNL     1       2.893   3.785  26.517  0.00  0.00    +0.159 A 
ATOM     17  C   UNL     1       3.920   2.845  26.465  0.00  0.00    +0.060 A 
BRANCH  15  18
ATOM     18  O   UNL     1       1.313   5.171  25.396  0.00  0.00    -0.503 OA
ATOM     19  H   UNL     1       0.718   4.823  26.091  0.00  0.00    +0.292 HD
ENDBRANCH  15  18
BRANCH  16  20
ATOM     20  O   UNL     1       2.387   4.250  27.695  0.00  0.00    -0.503 OA
ATOM     21  H   UNL     1       3.091   4.232  28.365  0.00  0.00    +0.292 HD
ENDBRANCH  16  20
ENDBRANCH   5  12
BRANCH  10  22
ATOM     22  O   UNL     1       9.468  -1.717  24.322  0.00  0.00    -0.506 OA
ATOM     23  H   UNL     1       9.855  -2.350  23.697  0.00  0.00    +0.292 HD
ENDBRANCH  10  22
BRANCH   6  24
ATOM     24  O   UNL     1       7.314   2.947  25.472  0.00  0.00    -0.453 OA
BRANCH  24  25
ATOM     25  C   UNL     1       7.419   3.795  24.317  0.00  0.00    +0.340 C 
ATOM     26  O   UNL     1       8.523   3.423  23.475  0.00  0.00    -0.330 OA
ATOM     27  C   UNL     1       9.814   3.631  24.066  0.00  0.00    +0.191 C 
ATOM     28  C   UNL     1       9.993   5.136  24.243  0.00  0.00    +0.178 C 
ATOM     29  C   UNL     1       8.924   5.652  25.215  0.00  0.00    +0.180 C 
ATOM     30  C   UNL     1       7.514   5.288  24.724  0.00  0.00    +0.214 C 
BRANCH  28  31
ATOM     31  O   UNL     1       9.825   5.808  22.978  0.00  0.00    -0.386 OA
ATOM     32  H   UNL     1      10.710   6.108  22.684  0.00  0.00    +0.210 HD
ENDBRANCH  28  31
BRANCH  29  33
ATOM     33  O   UNL     1       9.054   7.074  25.337  0.00  0.00    -0.386 OA
ATOM     34  H   UNL     1       8.885   7.440  24.447  0.00  0.00    +0.210 HD
ENDBRANCH  29  33
BRANCH  30  35
ATOM     35  O   UNL     1       6.508   5.648  25.680  0.00  0.00    -0.383 OA
ATOM     36  H   UNL     1       6.147   4.830  26.065  0.00  0.00    +0.210 HD
ENDBRANCH  30  35
BRANCH  27  37
ATOM     37  C   UNL     1      10.887   3.041  23.138  0.00  0.00    +0.266 C 
BRANCH  37  38
ATOM     38  O   UNL     1      10.296   2.335  22.027  0.00  0.00    -0.462 OA
BRANCH  38  39
ATOM     39  C   UNL     1      10.042   1.017  22.229  0.00  0.00    +0.304 C 
ATOM     40  C   UNL     1       8.852   0.574  21.431  0.00  0.00    +0.136 C 
ATOM     41  O   UNL     1      10.691   0.283  22.963  0.00  0.00    -0.251 OA
ENDBRANCH  38  39
ENDBRANCH  37  38
ENDBRANCH  27  37
ENDBRANCH  24  25
ENDBRANCH   6  24
BRANCH   1  42
ATOM     42  O   UNL     1       5.840  -4.602  23.826  0.00  0.00    -0.461 OA
BRANCH  42  46
ATOM     43  C   UNL     1       2.972  -5.141  26.955  0.00  0.00    +0.041 C 
ATOM     44  C   UNL     1       4.001  -6.202  26.553  0.00  0.00    +0.150 C 
ATOM     45  O   UNL     1       5.080  -5.623  25.810  0.00  0.00    -0.334 OA
ATOM     46  C   UNL     1       4.715  -5.159  24.505  0.00  0.00    +0.339 C 
ATOM     47  C   UNL     1       4.217  -6.362  23.666  0.00  0.00    +0.214 C 
ATOM     48  C   UNL     1       3.016  -7.000  24.366  0.00  0.00    +0.180 C 
ATOM     49  C   UNL     1       3.384  -7.396  25.807  0.00  0.00    +0.174 C 
BRANCH  49  50
ATOM     50  O   UNL     1       2.253  -7.885  26.532  0.00  0.00    -0.387 OA
ATOM     51  H   UNL     1       1.452  -7.676  26.018  0.00  0.00    +0.210 HD
ENDBRANCH  49  50
BRANCH  48  52
ATOM     52  O   UNL     1       2.574  -8.160  23.650  0.00  0.00    -0.386 OA
ATOM     53  H   UNL     1       2.894  -8.930  24.167  0.00  0.00    +0.210 HD
ENDBRANCH  48  52
BRANCH  47  54
ATOM     54  O   UNL     1       5.231  -7.386  23.528  0.00  0.00    -0.383 OA
ATOM     55  H   UNL     1       5.699  -7.212  22.686  0.00  0.00    +0.210 HD
ENDBRANCH  47  54
ENDBRANCH  42  46
ENDBRANCH   1  42
TORSDOF 17
ENDMDL
