MODEL 1
REMARK VINA RESULT:      -6.5      0.000      0.000
REMARK  Name = 
REMARK  18 active torsions:
REMARK  status: ('A' for Active; 'I' for Inactive)
REMARK    1  A    between atoms: C_1  and  O_2
REMARK    2  A    between atoms: O_2  and  C_3
REMARK    3  A    between atoms: C_4  and  O_48
REMARK    4  A    between atoms: C_7  and  C_9
REMARK    5  A    between atoms: C_10  and  O_22
REMARK    6  A    between atoms: C_14  and  O_21
REMARK    7  A    between atoms: C_16  and  O_20
REMARK    8  A    between atoms: O_22  and  C_23
REMARK    9  A    between atoms: C_25  and  O_36
REMARK   10  A    between atoms: C_26  and  O_35
REMARK   11  A    between atoms: C_28  and  O_34
REMARK   12  A    between atoms: C_30  and  C_32
REMARK   13  A    between atoms: C_32  and  O_33
REMARK   14  A    between atoms: O_36  and  C_37
REMARK   15  A    between atoms: C_39  and  O_47
REMARK   16  A    between atoms: C_41  and  C_44
REMARK   17  A    between atoms: C_41  and  O_46
REMARK   18  A    between atoms: C_44  and  O_45
REMARK                            x       y       z     vdW  Elec       q    Type
REMARK                         _______ _______ _______ _____ _____    ______ ____
ROOT
ATOM      1  O   UNL     1       7.128  -0.046  24.601  0.00  0.00    -0.453 OA
ENDROOT
BRANCH   1  12
ATOM      2  C   UNL     1       5.550  -1.770  25.225  0.00  0.00    +0.181 A 
ATOM      3  O   UNL     1       4.561  -2.201  26.140  0.00  0.00    -0.451 OA
ATOM      4  C   UNL     1       4.046  -1.326  27.075  0.00  0.00    +0.147 A 
ATOM      5  C   UNL     1       4.412   0.009  27.130  0.00  0.00    +0.109 A 
ATOM      6  C   UNL     1       3.846   0.881  28.078  0.00  0.00    +0.135 A 
ATOM      7  C   UNL     1       2.898   0.428  28.981  0.00  0.00    +0.091 A 
ATOM      8  C   UNL     1       2.534  -0.914  28.931  0.00  0.00    +0.124 A 
ATOM      9  C   UNL     1       5.428   0.470  26.201  0.00  0.00    +0.238 A 
ATOM     10  O   UNL     1       5.842   1.622  26.299  0.00  0.00    -0.283 OA
ATOM     11  C   UNL     1       3.106  -1.792  28.000  0.00  0.00    +0.092 A 
ATOM     12  C   UNL     1       5.985  -0.484  25.208  0.00  0.00    +0.214 A 
BRANCH   2  15
ATOM     13  C   UNL     1       7.618  -4.648  23.564  0.00  0.00    +0.162 A 
ATOM     14  C   UNL     1       7.076  -3.761  24.524  0.00  0.00    +0.061 A 
ATOM     15  C   UNL     1       6.006  -2.874  24.277  0.00  0.00    +0.025 A 
ATOM     16  C   UNL     1       5.389  -3.037  23.030  0.00  0.00    +0.015 A 
ATOM     17  C   UNL     1       5.862  -3.966  22.084  0.00  0.00    +0.050 A 
ATOM     18  C   UNL     1       6.977  -4.758  22.340  0.00  0.00    +0.158 A 
BRANCH  18  19
ATOM     19  O   UNL     1       7.327  -5.650  21.369  0.00  0.00    -0.503 OA
ATOM     20  H   UNL     1       7.375  -5.164  20.529  0.00  0.00    +0.292 HD
ENDBRANCH  18  19
BRANCH  13  22
ATOM     21  C   UNL     1       9.064  -5.395  25.365  0.00  0.00    +0.277 C 
ATOM     22  O   UNL     1       8.725  -5.341  23.979  0.00  0.00    -0.491 OA
ENDBRANCH  13  22
ENDBRANCH   2  15
BRANCH   8  23
ATOM     23  O   UNL     1       1.605  -1.405  29.799  0.00  0.00    -0.507 OA
ATOM     24  H   UNL     1       0.947  -1.929  29.306  0.00  0.00    +0.292 HD
ENDBRANCH   8  23
BRANCH   6  25
ATOM     25  O   UNL     1       4.184   2.204  28.179  0.00  0.00    -0.506 OA
ATOM     26  H   UNL     1       4.282   2.426  29.132  0.00  0.00    +0.292 HD
ENDBRANCH   6  25
ENDBRANCH   1  12
BRANCH   1  27
ATOM     27  C   UNL     1       7.174   0.424  23.245  0.00  0.00    +0.340 C 
ATOM     28  O   UNL     1       8.139  -0.426  22.563  0.00  0.00    -0.331 OA
ATOM     29  C   UNL     1       9.365  -0.526  23.319  0.00  0.00    +0.179 C 
ATOM     30  C   UNL     1      10.049   0.847  23.416  0.00  0.00    +0.177 C 
ATOM     31  C   UNL     1       9.069   1.962  23.849  0.00  0.00    +0.180 C 
ATOM     32  C   UNL     1       7.710   1.885  23.091  0.00  0.00    +0.221 C 
BRANCH  31  33
ATOM     33  O   UNL     1       8.960   1.858  25.284  0.00  0.00    -0.386 OA
ATOM     34  H   UNL     1       8.297   1.169  25.490  0.00  0.00    +0.210 HD
ENDBRANCH  31  33
BRANCH  30  35
ATOM     35  O   UNL     1      11.124   0.762  24.372  0.00  0.00    -0.386 OA
ATOM     36  H   UNL     1      11.695   1.540  24.171  0.00  0.00    +0.210 HD
ENDBRANCH  30  35
BRANCH  32  37
ATOM     37  O   UNL     1       6.795   2.884  23.576  0.00  0.00    -0.337 OA
BRANCH  37  38
ATOM     38  C   UNL     1       5.880   3.517  22.679  0.00  0.00    +0.282 C 
ATOM     39  O   UNL     1       5.750   4.944  22.740  0.00  0.00    -0.346 OA
ATOM     40  C   UNL     1       4.350   5.277  22.803  0.00  0.00    +0.202 C 
ATOM     41  C   UNL     1       3.527   4.064  22.358  0.00  0.00    +0.142 C 
ATOM     42  C   UNL     1       4.459   2.888  22.676  0.00  0.00    +0.206 C 
BRANCH  42  43
ATOM     43  O   UNL     1       4.115   2.273  23.920  0.00  0.00    -0.384 OA
ATOM     44  H   UNL     1       3.810   2.995  24.504  0.00  0.00    +0.210 HD
ENDBRANCH  42  43
BRANCH  41  45
ATOM     45  O   UNL     1       3.268   4.101  20.942  0.00  0.00    -0.381 OA
ATOM     46  H   UNL     1       3.138   3.197  20.612  0.00  0.00    +0.210 HD
ENDBRANCH  41  45
BRANCH  41  47
ATOM     47  C   UNL     1       2.154   4.034  23.061  0.00  0.00    +0.195 C 
BRANCH  47  48
ATOM     48  O   UNL     1       1.505   2.770  22.967  0.00  0.00    -0.392 OA
ATOM     49  H   UNL     1       2.201   2.102  23.157  0.00  0.00    +0.210 HD
ENDBRANCH  47  48
ENDBRANCH  41  47
ENDBRANCH  37  38
ENDBRANCH  32  37
BRANCH  29  50
ATOM     50  C   UNL     1      10.298  -1.595  22.714  0.00  0.00    +0.190 C 
BRANCH  50  51
ATOM     51  O   UNL     1      10.407  -2.758  23.534  0.00  0.00    -0.392 OA
ATOM     52  H   UNL     1       9.501  -3.110  23.674  0.00  0.00    +0.210 HD
ENDBRANCH  50  51
ENDBRANCH  29  50
ENDBRANCH   1  27
TORSDOF 17
ENDMDL
MODEL 2
REMARK VINA RESULT:      -6.5      2.552      7.062
REMARK  Name = 
REMARK  18 active torsions:
REMARK  status: ('A' for Active; 'I' for Inactive)
REMARK    1  A    between atoms: C_1  and  O_2
REMARK    2  A    between atoms: O_2  and  C_3
REMARK    3  A    between atoms: C_4  and  O_48
REMARK    4  A    between atoms: C_7  and  C_9
REMARK    5  A    between atoms: C_10  and  O_22
REMARK    6  A    between atoms: C_14  and  O_21
REMARK    7  A    between atoms: C_16  and  O_20
REMARK    8  A    between atoms: O_22  and  C_23
REMARK    9  A    between atoms: C_25  and  O_36
REMARK   10  A    between atoms: C_26  and  O_35
REMARK   11  A    between atoms: C_28  and  O_34
REMARK   12  A    between atoms: C_30  and  C_32
REMARK   13  A    between atoms: C_32  and  O_33
REMARK   14  A    between atoms: O_36  and  C_37
REMARK   15  A    between atoms: C_39  and  O_47
REMARK   16  A    between atoms: C_41  and  C_44
REMARK   17  A    between atoms: C_41  and  O_46
REMARK   18  A    between atoms: C_44  and  O_45
REMARK                            x       y       z     vdW  Elec       q    Type
REMARK                         _______ _______ _______ _____ _____    ______ ____
ROOT
ATOM      1  O   UNL     1       6.480   0.237  26.126  0.00  0.00    -0.453 OA
ENDROOT
BRANCH   1  12
ATOM      2  C   UNL     1       8.630   0.120  25.024  0.00  0.00    +0.181 A 
ATOM      3  O   UNL     1       9.647   0.812  24.325  0.00  0.00    -0.451 OA
ATOM      4  C   UNL     1       9.643   2.191  24.273  0.00  0.00    +0.147 A 
ATOM      5  C   UNL     1       8.702   2.961  24.938  0.00  0.00    +0.109 A 
ATOM      6  C   UNL     1       8.744   4.368  24.887  0.00  0.00    +0.135 A 
ATOM      7  C   UNL     1       9.735   5.022  24.174  0.00  0.00    +0.091 A 
ATOM      8  C   UNL     1      10.676   4.250  23.501  0.00  0.00    +0.124 A 
ATOM      9  C   UNL     1       7.649   2.269  25.658  0.00  0.00    +0.238 A 
ATOM     10  O   UNL     1       6.747   2.928  26.169  0.00  0.00    -0.283 OA
ATOM     11  C   UNL     1      10.631   2.849  23.533  0.00  0.00    +0.092 A 
ATOM     12  C   UNL     1       7.655   0.784  25.696  0.00  0.00    +0.214 A 
BRANCH   2  15
ATOM     13  C   UNL     1       8.842  -3.656  26.030  0.00  0.00    +0.162 A 
ATOM     14  C   UNL     1       8.504  -2.283  26.023  0.00  0.00    +0.061 A 
ATOM     15  C   UNL     1       8.793  -1.395  24.963  0.00  0.00    +0.025 A 
ATOM     16  C   UNL     1       9.314  -2.007  23.816  0.00  0.00    +0.015 A 
ATOM     17  C   UNL     1       9.590  -3.386  23.770  0.00  0.00    +0.050 A 
ATOM     18  C   UNL     1       9.369  -4.207  24.873  0.00  0.00    +0.158 A 
BRANCH  18  19
ATOM     19  O   UNL     1       9.636  -5.534  24.708  0.00  0.00    -0.503 OA
ATOM     20  H   UNL     1       9.271  -6.004  25.476  0.00  0.00    +0.292 HD
ENDBRANCH  18  19
BRANCH  13  22
ATOM     21  C   UNL     1       7.486  -5.241  27.274  0.00  0.00    +0.277 C 
ATOM     22  O   UNL     1       8.569  -4.311  27.203  0.00  0.00    -0.491 OA
ENDBRANCH  13  22
ENDBRANCH   2  15
BRANCH   8  23
ATOM     23  O   UNL     1      11.671   4.850  22.786  0.00  0.00    -0.507 OA
ATOM     24  H   UNL     1      11.836   5.740  23.146  0.00  0.00    +0.292 HD
ENDBRANCH   8  23
BRANCH   6  25
ATOM     25  O   UNL     1       7.831   5.170  25.517  0.00  0.00    -0.506 OA
ATOM     26  H   UNL     1       7.886   4.999  26.484  0.00  0.00    +0.292 HD
ENDBRANCH   6  25
ENDBRANCH   1  12
BRANCH   1  27
ATOM     27  C   UNL     1       5.333   0.062  25.281  0.00  0.00    +0.340 C 
ATOM     28  O   UNL     1       4.279   0.875  25.871  0.00  0.00    -0.331 OA
ATOM     29  C   UNL     1       4.160   0.619  27.287  0.00  0.00    +0.179 C 
ATOM     30  C   UNL     1       3.723  -0.833  27.535  0.00  0.00    +0.177 C 
ATOM     31  C   UNL     1       4.566  -1.846  26.727  0.00  0.00    +0.180 C 
ATOM     32  C   UNL     1       4.776  -1.400  25.250  0.00  0.00    +0.221 C 
BRANCH  31  33
ATOM     33  O   UNL     1       5.786  -2.032  27.475  0.00  0.00    -0.386 OA
ATOM     34  H   UNL     1       6.250  -1.172  27.519  0.00  0.00    +0.210 HD
ENDBRANCH  31  33
BRANCH  30  35
ATOM     35  O   UNL     1       3.853  -1.121  28.941  0.00  0.00    -0.386 OA
ATOM     36  H   UNL     1       3.994  -0.241  29.362  0.00  0.00    +0.210 HD
ENDBRANCH  30  35
BRANCH  32  37
ATOM     37  O   UNL     1       5.631  -2.322  24.551  0.00  0.00    -0.337 OA
BRANCH  37  38
ATOM     38  C   UNL     1       5.129  -3.593  24.133  0.00  0.00    +0.282 C 
ATOM     39  O   UNL     1       5.563  -4.760  24.845  0.00  0.00    -0.346 OA
ATOM     40  C   UNL     1       5.997  -5.747  23.891  0.00  0.00    +0.202 C 
ATOM     41  C   UNL     1       5.452  -5.379  22.508  0.00  0.00    +0.142 C 
ATOM     42  C   UNL     1       5.269  -3.860  22.609  0.00  0.00    +0.206 C 
BRANCH  42  43
ATOM     43  O   UNL     1       6.369  -3.163  22.017  0.00  0.00    -0.384 OA
ATOM     44  H   UNL     1       7.168  -3.682  22.236  0.00  0.00    +0.210 HD
ENDBRANCH  42  43
BRANCH  41  45
ATOM     45  O   UNL     1       4.174  -6.000  22.269  0.00  0.00    -0.381 OA
ATOM     46  H   UNL     1       3.886  -6.468  23.070  0.00  0.00    +0.210 HD
ENDBRANCH  41  45
BRANCH  41  47
ATOM     47  C   UNL     1       6.398  -5.863  21.389  0.00  0.00    +0.195 C 
BRANCH  47  48
ATOM     48  O   UNL     1       5.962  -5.487  20.086  0.00  0.00    -0.392 OA
ATOM     49  H   UNL     1       5.598  -4.579  20.183  0.00  0.00    +0.210 HD
ENDBRANCH  47  48
ENDBRANCH  41  47
ENDBRANCH  37  38
ENDBRANCH  32  37
BRANCH  29  50
ATOM     50  C   UNL     1       3.204   1.633  27.949  0.00  0.00    +0.190 C 
BRANCH  50  51
ATOM     51  O   UNL     1       3.417   1.753  29.355  0.00  0.00    -0.392 OA
ATOM     52  H   UNL     1       4.183   2.351  29.490  0.00  0.00    +0.210 HD
ENDBRANCH  50  51
ENDBRANCH  29  50
ENDBRANCH   1  27
TORSDOF 17
ENDMDL
MODEL 3
REMARK VINA RESULT:      -6.3      1.685      2.503
REMARK  Name = 
REMARK  18 active torsions:
REMARK  status: ('A' for Active; 'I' for Inactive)
REMARK    1  A    between atoms: C_1  and  O_2
REMARK    2  A    between atoms: O_2  and  C_3
REMARK    3  A    between atoms: C_4  and  O_48
REMARK    4  A    between atoms: C_7  and  C_9
REMARK    5  A    between atoms: C_10  and  O_22
REMARK    6  A    between atoms: C_14  and  O_21
REMARK    7  A    between atoms: C_16  and  O_20
REMARK    8  A    between atoms: O_22  and  C_23
REMARK    9  A    between atoms: C_25  and  O_36
REMARK   10  A    between atoms: C_26  and  O_35
REMARK   11  A    between atoms: C_28  and  O_34
REMARK   12  A    between atoms: C_30  and  C_32
REMARK   13  A    between atoms: C_32  and  O_33
REMARK   14  A    between atoms: O_36  and  C_37
REMARK   15  A    between atoms: C_39  and  O_47
REMARK   16  A    between atoms: C_41  and  C_44
REMARK   17  A    between atoms: C_41  and  O_46
REMARK   18  A    between atoms: C_44  and  O_45
REMARK                            x       y       z     vdW  Elec       q    Type
REMARK                         _______ _______ _______ _____ _____    ______ ____
ROOT
ATOM      1  O   UNL     1       6.710  -0.440  24.978  0.00  0.00    -0.453 OA
ENDROOT
BRANCH   1  12
ATOM      2  C   UNL     1       5.341  -2.351  25.544  0.00  0.00    +0.181 A 
ATOM      3  O   UNL     1       4.440  -2.939  26.463  0.00  0.00    -0.451 OA
ATOM      4  C   UNL     1       3.882  -2.181  27.472  0.00  0.00    +0.147 A 
ATOM      5  C   UNL     1       4.115  -0.821  27.603  0.00  0.00    +0.109 A 
ATOM      6  C   UNL     1       3.505  -0.073  28.627  0.00  0.00    +0.135 A 
ATOM      7  C   UNL     1       2.647  -0.676  29.532  0.00  0.00    +0.091 A 
ATOM      8  C   UNL     1       2.417  -2.042  29.406  0.00  0.00    +0.124 A 
ATOM      9  C   UNL     1       5.038  -0.202  26.670  0.00  0.00    +0.238 A 
ATOM     10  O   UNL     1       5.339   0.979  26.829  0.00  0.00    -0.283 OA
ATOM     11  C   UNL     1       3.033  -2.797  28.399  0.00  0.00    +0.092 A 
ATOM     12  C   UNL     1       5.644  -1.029  25.596  0.00  0.00    +0.214 A 
BRANCH   2  15
ATOM     13  C   UNL     1       7.591  -4.931  23.646  0.00  0.00    +0.162 A 
ATOM     14  C   UNL     1       6.999  -4.164  24.677  0.00  0.00    +0.061 A 
ATOM     15  C   UNL     1       5.863  -3.342  24.508  0.00  0.00    +0.025 A 
ATOM     16  C   UNL     1       5.244  -3.454  23.257  0.00  0.00    +0.015 A 
ATOM     17  C   UNL     1       5.770  -4.268  22.238  0.00  0.00    +0.050 A 
ATOM     18  C   UNL     1       6.943  -4.993  22.422  0.00  0.00    +0.158 A 
BRANCH  18  19
ATOM     19  O   UNL     1       7.345  -5.778  21.382  0.00  0.00    -0.503 OA
ATOM     20  H   UNL     1       7.145  -5.300  20.560  0.00  0.00    +0.292 HD
ENDBRANCH  18  19
BRANCH  13  22
ATOM     21  C   UNL     1       9.423  -5.231  25.211  0.00  0.00    +0.277 C 
ATOM     22  O   UNL     1       8.752  -5.570  23.996  0.00  0.00    -0.491 OA
ENDBRANCH  13  22
ENDBRANCH   2  15
BRANCH   8  23
ATOM     23  O   UNL     1       1.580  -2.680  30.274  0.00  0.00    -0.507 OA
ATOM     24  H   UNL     1       1.631  -3.641  30.124  0.00  0.00    +0.292 HD
ENDBRANCH   8  23
BRANCH   6  25
ATOM     25  O   UNL     1       3.713   1.269  28.803  0.00  0.00    -0.506 OA
ATOM     26  H   UNL     1       4.210   1.609  28.025  0.00  0.00    +0.292 HD
ENDBRANCH   6  25
ENDBRANCH   1  12
BRANCH   1  27
ATOM     27  C   UNL     1       6.618   0.238  23.716  0.00  0.00    +0.340 C 
ATOM     28  O   UNL     1       7.330  -0.601  22.763  0.00  0.00    -0.331 OA
ATOM     29  C   UNL     1       8.628  -0.975  23.271  0.00  0.00    +0.179 C 
ATOM     30  C   UNL     1       9.516   0.268  23.442  0.00  0.00    +0.177 C 
ATOM     31  C   UNL     1       8.791   1.409  24.192  0.00  0.00    +0.180 C 
ATOM     32  C   UNL     1       7.336   1.627  23.680  0.00  0.00    +0.221 C 
BRANCH  31  33
ATOM     33  O   UNL     1       8.888   1.084  25.595  0.00  0.00    -0.386 OA
ATOM     34  H   UNL     1       7.987   0.914  25.932  0.00  0.00    +0.210 HD
ENDBRANCH  31  33
BRANCH  30  35
ATOM     35  O   UNL     1      10.699  -0.106  24.173  0.00  0.00    -0.386 OA
ATOM     36  H   UNL     1      10.436  -0.039  25.121  0.00  0.00    +0.210 HD
ENDBRANCH  30  35
BRANCH  32  37
ATOM     37  O   UNL     1       6.665   2.638  24.454  0.00  0.00    -0.337 OA
BRANCH  37  38
ATOM     38  C   UNL     1       6.458   3.942  23.907  0.00  0.00    +0.282 C 
ATOM     39  O   UNL     1       6.554   4.103  22.486  0.00  0.00    -0.346 OA
ATOM     40  C   UNL     1       7.415   5.224  22.206  0.00  0.00    +0.202 C 
ATOM     41  C   UNL     1       7.558   6.072  23.473  0.00  0.00    +0.142 C 
ATOM     42  C   UNL     1       7.296   5.056  24.592  0.00  0.00    +0.206 C 
BRANCH  42  43
ATOM     43  O   UNL     1       8.520   4.573  25.152  0.00  0.00    -0.384 OA
ATOM     44  H   UNL     1       8.527   3.608  24.996  0.00  0.00    +0.210 HD
ENDBRANCH  42  43
BRANCH  41  45
ATOM     45  O   UNL     1       6.558   7.108  23.523  0.00  0.00    -0.381 OA
ATOM     46  H   UNL     1       6.832   7.794  24.152  0.00  0.00    +0.210 HD
ENDBRANCH  41  45
BRANCH  41  47
ATOM     47  C   UNL     1       8.930   6.775  23.521  0.00  0.00    +0.195 C 
BRANCH  47  48
ATOM     48  O   UNL     1       9.984   5.983  22.984  0.00  0.00    -0.392 OA
ATOM     49  H   UNL     1      10.555   5.751  23.750  0.00  0.00    +0.210 HD
ENDBRANCH  47  48
ENDBRANCH  41  47
ENDBRANCH  37  38
ENDBRANCH  32  37
BRANCH  29  50
ATOM     50  C   UNL     1       9.287  -2.037  22.367  0.00  0.00    +0.190 C 
BRANCH  50  51
ATOM     51  O   UNL     1      10.232  -1.475  21.457  0.00  0.00    -0.392 OA
ATOM     52  H   UNL     1      10.666  -0.719  21.908  0.00  0.00    +0.210 HD
ENDBRANCH  50  51
ENDBRANCH  29  50
ENDBRANCH   1  27
TORSDOF 17
ENDMDL
MODEL 4
REMARK VINA RESULT:      -6.2      2.451      5.535
REMARK  Name = 
REMARK  18 active torsions:
REMARK  status: ('A' for Active; 'I' for Inactive)
REMARK    1  A    between atoms: C_1  and  O_2
REMARK    2  A    between atoms: O_2  and  C_3
REMARK    3  A    between atoms: C_4  and  O_48
REMARK    4  A    between atoms: C_7  and  C_9
REMARK    5  A    between atoms: C_10  and  O_22
REMARK    6  A    between atoms: C_14  and  O_21
REMARK    7  A    between atoms: C_16  and  O_20
REMARK    8  A    between atoms: O_22  and  C_23
REMARK    9  A    between atoms: C_25  and  O_36
REMARK   10  A    between atoms: C_26  and  O_35
REMARK   11  A    between atoms: C_28  and  O_34
REMARK   12  A    between atoms: C_30  and  C_32
REMARK   13  A    between atoms: C_32  and  O_33
REMARK   14  A    between atoms: O_36  and  C_37
REMARK   15  A    between atoms: C_39  and  O_47
REMARK   16  A    between atoms: C_41  and  C_44
REMARK   17  A    between atoms: C_41  and  O_46
REMARK   18  A    between atoms: C_44  and  O_45
REMARK                            x       y       z     vdW  Elec       q    Type
REMARK                         _______ _______ _______ _____ _____    ______ ____
ROOT
ATOM      1  O   UNL     1       5.000   0.486  25.356  0.00  0.00    -0.453 OA
ENDROOT
BRANCH   1  12
ATOM      2  C   UNL     1       6.787  -1.114  25.042  0.00  0.00    +0.181 A 
ATOM      3  O   UNL     1       7.395  -2.317  25.472  0.00  0.00    -0.451 OA
ATOM      4  C   UNL     1       6.746  -3.146  26.364  0.00  0.00    +0.147 A 
ATOM      5  C   UNL     1       5.466  -2.888  26.829  0.00  0.00    +0.109 A 
ATOM      6  C   UNL     1       4.822  -3.772  27.716  0.00  0.00    +0.135 A 
ATOM      7  C   UNL     1       5.449  -4.930  28.143  0.00  0.00    +0.091 A 
ATOM      8  C   UNL     1       6.736  -5.187  27.682  0.00  0.00    +0.124 A 
ATOM      9  C   UNL     1       4.827  -1.658  26.401  0.00  0.00    +0.238 A 
ATOM     10  O   UNL     1       3.736  -1.358  26.880  0.00  0.00    -0.283 OA
ATOM     11  C   UNL     1       7.390  -4.304  26.812  0.00  0.00    +0.092 A 
ATOM     12  C   UNL     1       5.540  -0.765  25.452  0.00  0.00    +0.214 A 
BRANCH   2  15
ATOM     13  C   UNL     1       9.666   1.061  23.525  0.00  0.00    +0.162 A 
ATOM     14  C   UNL     1       8.949   0.165  24.353  0.00  0.00    +0.061 A 
ATOM     15  C   UNL     1       7.655  -0.324  24.069  0.00  0.00    +0.025 A 
ATOM     16  C   UNL     1       7.168   0.019  22.801  0.00  0.00    +0.015 A 
ATOM     17  C   UNL     1       7.894   0.847  21.926  0.00  0.00    +0.050 A 
ATOM     18  C   UNL     1       9.130   1.378  22.287  0.00  0.00    +0.158 A 
BRANCH  18  19
ATOM     19  O   UNL     1       9.764   2.138  21.349  0.00  0.00    -0.503 OA
ATOM     20  H   UNL     1      10.232   1.534  20.749  0.00  0.00    +0.292 HD
ENDBRANCH  18  19
BRANCH  13  22
ATOM     21  C   UNL     1      11.642   0.636  24.870  0.00  0.00    +0.277 C 
ATOM     22  O   UNL     1      10.858   1.496  24.041  0.00  0.00    -0.491 OA
ENDBRANCH  13  22
ENDBRANCH   2  15
BRANCH   8  23
ATOM     23  O   UNL     1       7.393  -6.316  28.075  0.00  0.00    -0.507 OA
ATOM     24  H   UNL     1       7.443  -6.938  27.326  0.00  0.00    +0.292 HD
ENDBRANCH   8  23
BRANCH   6  25
ATOM     25  O   UNL     1       3.564  -3.554  28.212  0.00  0.00    -0.506 OA
ATOM     26  H   UNL     1       3.648  -3.244  29.141  0.00  0.00    +0.292 HD
ENDBRANCH   6  25
ENDBRANCH   1  12
BRANCH   1  27
ATOM     27  C   UNL     1       5.399   1.586  26.188  0.00  0.00    +0.340 C 
ATOM     28  O   UNL     1       4.273   1.841  27.075  0.00  0.00    -0.331 OA
ATOM     29  C   UNL     1       3.038   1.926  26.332  0.00  0.00    +0.179 C 
ATOM     30  C   UNL     1       3.068   3.131  25.378  0.00  0.00    +0.177 C 
ATOM     31  C   UNL     1       4.370   3.190  24.547  0.00  0.00    +0.180 C 
ATOM     32  C   UNL     1       5.638   2.922  25.410  0.00  0.00    +0.221 C 
BRANCH  31  33
ATOM     33  O   UNL     1       4.184   2.265  23.455  0.00  0.00    -0.386 OA
ATOM     34  H   UNL     1       3.342   2.486  23.009  0.00  0.00    +0.210 HD
ENDBRANCH  31  33
BRANCH  30  35
ATOM     35  O   UNL     1       1.938   3.044  24.488  0.00  0.00    -0.386 OA
ATOM     36  H   UNL     1       2.015   3.840  23.912  0.00  0.00    +0.210 HD
ENDBRANCH  30  35
BRANCH  32  37
ATOM     37  O   UNL     1       6.822   2.903  24.592  0.00  0.00    -0.337 OA
BRANCH  37  38
ATOM     38  C   UNL     1       7.551   4.109  24.354  0.00  0.00    +0.282 C 
ATOM     39  O   UNL     1       7.220   5.266  25.134  0.00  0.00    -0.346 OA
ATOM     40  C   UNL     1       7.045   6.386  24.245  0.00  0.00    +0.202 C 
ATOM     41  C   UNL     1       7.680   6.054  22.892  0.00  0.00    +0.142 C 
ATOM     42  C   UNL     1       7.622   4.522  22.858  0.00  0.00    +0.206 C 
BRANCH  42  43
ATOM     43  O   UNL     1       6.503   4.061  22.095  0.00  0.00    -0.384 OA
ATOM     44  H   UNL     1       5.894   3.641  22.734  0.00  0.00    +0.210 HD
ENDBRANCH  42  43
BRANCH  41  45
ATOM     45  O   UNL     1       9.054   6.482  22.841  0.00  0.00    -0.381 OA
ATOM     46  H   UNL     1       9.315   6.840  23.705  0.00  0.00    +0.210 HD
ENDBRANCH  41  45
BRANCH  41  47
ATOM     47  C   UNL     1       6.946   6.774  21.741  0.00  0.00    +0.195 C 
BRANCH  47  48
ATOM     48  O   UNL     1       5.532   6.618  21.794  0.00  0.00    -0.392 OA
ATOM     49  H   UNL     1       5.350   5.732  21.409  0.00  0.00    +0.210 HD
ENDBRANCH  47  48
ENDBRANCH  41  47
ENDBRANCH  37  38
ENDBRANCH  32  37
BRANCH  29  50
ATOM     50  C   UNL     1       1.826   1.973  27.286  0.00  0.00    +0.190 C 
BRANCH  50  51
ATOM     51  O   UNL     1       1.210   3.259  27.330  0.00  0.00    -0.392 OA
ATOM     52  H   UNL     1       0.808   3.427  26.450  0.00  0.00    +0.210 HD
ENDBRANCH  50  51
ENDBRANCH  29  50
ENDBRANCH   1  27
TORSDOF 17
ENDMDL
MODEL 5
REMARK VINA RESULT:      -6.1      2.573      7.466
REMARK  Name = 
REMARK  18 active torsions:
REMARK  status: ('A' for Active; 'I' for Inactive)
REMARK    1  A    between atoms: C_1  and  O_2
REMARK    2  A    between atoms: O_2  and  C_3
REMARK    3  A    between atoms: C_4  and  O_48
REMARK    4  A    between atoms: C_7  and  C_9
REMARK    5  A    between atoms: C_10  and  O_22
REMARK    6  A    between atoms: C_14  and  O_21
REMARK    7  A    between atoms: C_16  and  O_20
REMARK    8  A    between atoms: O_22  and  C_23
REMARK    9  A    between atoms: C_25  and  O_36
REMARK   10  A    between atoms: C_26  and  O_35
REMARK   11  A    between atoms: C_28  and  O_34
REMARK   12  A    between atoms: C_30  and  C_32
REMARK   13  A    between atoms: C_32  and  O_33
REMARK   14  A    between atoms: O_36  and  C_37
REMARK   15  A    between atoms: C_39  and  O_47
REMARK   16  A    between atoms: C_41  and  C_44
REMARK   17  A    between atoms: C_41  and  O_46
REMARK   18  A    between atoms: C_44  and  O_45
REMARK                            x       y       z     vdW  Elec       q    Type
REMARK                         _______ _______ _______ _____ _____    ______ ____
ROOT
ATOM      1  O   UNL     1       6.392  -0.131  26.309  0.00  0.00    -0.453 OA
ENDROOT
BRANCH   1  12
ATOM      2  C   UNL     1       8.554  -0.354  25.247  0.00  0.00    +0.181 A 
ATOM      3  O   UNL     1       9.586   0.272  24.510  0.00  0.00    -0.451 OA
ATOM      4  C   UNL     1       9.597   1.643  24.350  0.00  0.00    +0.147 A 
ATOM      5  C   UNL     1       8.656   2.471  24.941  0.00  0.00    +0.109 A 
ATOM      6  C   UNL     1       8.713   3.869  24.780  0.00  0.00    +0.135 A 
ATOM      7  C   UNL     1       9.719   4.456  24.032  0.00  0.00    +0.091 A 
ATOM      8  C   UNL     1      10.660   3.625  23.432  0.00  0.00    +0.124 A 
ATOM      9  C   UNL     1       7.587   1.848  25.699  0.00  0.00    +0.238 A 
ATOM     10  O   UNL     1       6.686   2.553  26.145  0.00  0.00    -0.283 OA
ATOM     11  C   UNL     1      10.600   2.232  23.574  0.00  0.00    +0.092 A 
ATOM     12  C   UNL     1       7.578   0.370  25.853  0.00  0.00    +0.214 A 
BRANCH   2  15
ATOM     13  C   UNL     1       8.543  -4.148  24.287  0.00  0.00    +0.162 A 
ATOM     14  C   UNL     1       8.603  -2.737  24.197  0.00  0.00    +0.061 A 
ATOM     15  C   UNL     1       8.702  -1.871  25.307  0.00  0.00    +0.025 A 
ATOM     16  C   UNL     1       8.901  -2.516  26.535  0.00  0.00    +0.015 A 
ATOM     17  C   UNL     1       8.922  -3.918  26.641  0.00  0.00    +0.050 A 
ATOM     18  C   UNL     1       8.731  -4.733  25.529  0.00  0.00    +0.158 A 
BRANCH  18  19
ATOM     19  O   UNL     1       8.807  -6.079  25.739  0.00  0.00    -0.503 OA
ATOM     20  H   UNL     1       9.688  -6.270  26.099  0.00  0.00    +0.292 HD
ENDBRANCH  18  19
BRANCH  13  22
ATOM     21  C   UNL     1       7.031  -5.257  22.745  0.00  0.00    +0.277 C 
ATOM     22  O   UNL     1       8.336  -4.793  23.096  0.00  0.00    -0.491 OA
ENDBRANCH  13  22
ENDBRANCH   2  15
BRANCH   8  23
ATOM     23  O   UNL     1      11.670   4.158  22.686  0.00  0.00    -0.507 OA
ATOM     24  H   UNL     1      11.325   4.905  22.163  0.00  0.00    +0.292 HD
ENDBRANCH   8  23
BRANCH   6  25
ATOM     25  O   UNL     1       7.800   4.727  25.334  0.00  0.00    -0.506 OA
ATOM     26  H   UNL     1       7.241   4.218  25.963  0.00  0.00    +0.292 HD
ENDBRANCH   6  25
ENDBRANCH   1  12
BRANCH   1  27
ATOM     27  C   UNL     1       5.309  -0.511  25.446  0.00  0.00    +0.340 C 
ATOM     28  O   UNL     1       4.303   0.530  25.591  0.00  0.00    -0.331 OA
ATOM     29  C   UNL     1       4.036   0.802  26.984  0.00  0.00    +0.179 C 
ATOM     30  C   UNL     1       3.425  -0.433  27.663  0.00  0.00    +0.177 C 
ATOM     31  C   UNL     1       4.219  -1.724  27.360  0.00  0.00    +0.180 C 
ATOM     32  C   UNL     1       4.602  -1.846  25.855  0.00  0.00    +0.221 C 
BRANCH  31  33
ATOM     33  O   UNL     1       5.343  -1.719  28.265  0.00  0.00    -0.386 OA
ATOM     34  H   UNL     1       5.446  -0.814  28.618  0.00  0.00    +0.210 HD
ENDBRANCH  31  33
BRANCH  30  35
ATOM     35  O   UNL     1       3.401  -0.213  29.087  0.00  0.00    -0.386 OA
ATOM     36  H   UNL     1       4.080  -0.831  29.445  0.00  0.00    +0.210 HD
ENDBRANCH  30  35
BRANCH  32  37
ATOM     37  O   UNL     1       5.409  -3.014  25.624  0.00  0.00    -0.337 OA
BRANCH  37  38
ATOM     38  C   UNL     1       4.799  -4.304  25.538  0.00  0.00    +0.282 C 
ATOM     39  O   UNL     1       3.367  -4.379  25.572  0.00  0.00    -0.346 OA
ATOM     40  C   UNL     1       2.981  -5.374  26.540  0.00  0.00    +0.202 C 
ATOM     41  C   UNL     1       4.189  -6.264  26.850  0.00  0.00    +0.142 C 
ATOM     42  C   UNL     1       5.375  -5.345  26.536  0.00  0.00    +0.206 C 
BRANCH  42  43
ATOM     43  O   UNL     1       5.902  -4.750  27.725  0.00  0.00    -0.384 OA
ATOM     44  H   UNL     1       5.858  -5.440  28.415  0.00  0.00    +0.210 HD
ENDBRANCH  42  43
BRANCH  41  45
ATOM     45  O   UNL     1       4.227  -7.411  25.980  0.00  0.00    -0.381 OA
ATOM     46  H   UNL     1       4.881  -8.048  26.312  0.00  0.00    +0.210 HD
ENDBRANCH  41  45
BRANCH  41  47
ATOM     47  C   UNL     1       4.127  -6.802  28.295  0.00  0.00    +0.195 C 
BRANCH  47  48
ATOM     48  O   UNL     1       5.276  -7.561  28.658  0.00  0.00    -0.392 OA
ATOM     49  H   UNL     1       5.762  -7.006  29.308  0.00  0.00    +0.210 HD
ENDBRANCH  47  48
ENDBRANCH  41  47
ENDBRANCH  37  38
ENDBRANCH  32  37
BRANCH  29  50
ATOM     50  C   UNL     1       3.142   2.050  27.138  0.00  0.00    +0.190 C 
BRANCH  50  51
ATOM     51  O   UNL     1       3.830   3.261  26.827  0.00  0.00    -0.392 OA
ATOM     52  H   UNL     1       3.306   4.005  27.196  0.00  0.00    +0.210 HD
ENDBRANCH  50  51
ENDBRANCH  29  50
ENDBRANCH   1  27
TORSDOF 17
ENDMDL
MODEL 6
REMARK VINA RESULT:      -6.1      2.317      5.227
REMARK  Name = 
REMARK  18 active torsions:
REMARK  status: ('A' for Active; 'I' for Inactive)
REMARK    1  A    between atoms: C_1  and  O_2
REMARK    2  A    between atoms: O_2  and  C_3
REMARK    3  A    between atoms: C_4  and  O_48
REMARK    4  A    between atoms: C_7  and  C_9
REMARK    5  A    between atoms: C_10  and  O_22
REMARK    6  A    between atoms: C_14  and  O_21
REMARK    7  A    between atoms: C_16  and  O_20
REMARK    8  A    between atoms: O_22  and  C_23
REMARK    9  A    between atoms: C_25  and  O_36
REMARK   10  A    between atoms: C_26  and  O_35
REMARK   11  A    between atoms: C_28  and  O_34
REMARK   12  A    between atoms: C_30  and  C_32
REMARK   13  A    between atoms: C_32  and  O_33
REMARK   14  A    between atoms: O_36  and  C_37
REMARK   15  A    between atoms: C_39  and  O_47
REMARK   16  A    between atoms: C_41  and  C_44
REMARK   17  A    between atoms: C_41  and  O_46
REMARK   18  A    between atoms: C_44  and  O_45
REMARK                            x       y       z     vdW  Elec       q    Type
REMARK                         _______ _______ _______ _____ _____    ______ ____
ROOT
ATOM      1  O   UNL     1       7.750   0.501  24.504  0.00  0.00    -0.453 OA
ENDROOT
BRANCH   1  12
ATOM      2  C   UNL     1       6.550  -0.544  26.324  0.00  0.00    +0.181 A 
ATOM      3  O   UNL     1       6.235  -1.741  27.009  0.00  0.00    -0.451 OA
ATOM      4  C   UNL     1       6.935  -2.901  26.743  0.00  0.00    +0.147 A 
ATOM      5  C   UNL     1       8.000  -2.944  25.858  0.00  0.00    +0.109 A 
ATOM      6  C   UNL     1       8.711  -4.139  25.631  0.00  0.00    +0.135 A 
ATOM      7  C   UNL     1       8.367  -5.305  26.294  0.00  0.00    +0.091 A 
ATOM      8  C   UNL     1       7.293  -5.264  27.178  0.00  0.00    +0.124 A 
ATOM      9  C   UNL     1       8.336  -1.727  25.143  0.00  0.00    +0.238 A 
ATOM     10  O   UNL     1       9.209  -1.766  24.280  0.00  0.00    -0.283 OA
ATOM     11  C   UNL     1       6.571  -4.083  27.397  0.00  0.00    +0.092 A 
ATOM     12  C   UNL     1       7.568  -0.487  25.428  0.00  0.00    +0.214 A 
BRANCH   2  15
ATOM     13  C   UNL     1       3.562   1.971  26.592  0.00  0.00    +0.162 A 
ATOM     14  C   UNL     1       4.314   0.793  26.370  0.00  0.00    +0.061 A 
ATOM     15  C   UNL     1       5.667   0.628  26.741  0.00  0.00    +0.025 A 
ATOM     16  C   UNL     1       6.194   1.677  27.505  0.00  0.00    +0.015 A 
ATOM     17  C   UNL     1       5.443   2.828  27.805  0.00  0.00    +0.050 A 
ATOM     18  C   UNL     1       4.139   2.984  27.342  0.00  0.00    +0.158 A 
BRANCH  18  19
ATOM     19  O   UNL     1       3.490   4.122  27.721  0.00  0.00    -0.503 OA
ATOM     20  H   UNL     1       2.709   4.218  27.150  0.00  0.00    +0.292 HD
ENDBRANCH  18  19
BRANCH  13  22
ATOM     21  C   UNL     1       1.196   1.478  26.820  0.00  0.00    +0.277 C 
ATOM     22  O   UNL     1       2.302   1.960  26.055  0.00  0.00    -0.491 OA
ENDBRANCH  13  22
ENDBRANCH   2  15
BRANCH   8  23
ATOM     23  O   UNL     1       6.919  -6.388  27.855  0.00  0.00    -0.507 OA
ATOM     24  H   UNL     1       7.495  -7.129  27.594  0.00  0.00    +0.292 HD
ENDBRANCH   8  23
BRANCH   6  25
ATOM     25  O   UNL     1       9.762  -4.234  24.759  0.00  0.00    -0.506 OA
ATOM     26  H   UNL     1      10.460  -4.786  25.176  0.00  0.00    +0.292 HD
ENDBRANCH   6  25
ENDBRANCH   1  12
BRANCH   1  27
ATOM     27  C   UNL     1       6.825   0.771  23.440  0.00  0.00    +0.340 C 
ATOM     28  O   UNL     1       7.370   0.111  22.263  0.00  0.00    -0.331 OA
ATOM     29  C   UNL     1       8.766   0.438  22.086  0.00  0.00    +0.179 C 
ATOM     30  C   UNL     1       8.933   1.940  21.809  0.00  0.00    +0.177 C 
ATOM     31  C   UNL     1       8.149   2.814  22.814  0.00  0.00    +0.180 C 
ATOM     32  C   UNL     1       6.706   2.284  23.062  0.00  0.00    +0.221 C 
BRANCH  31  33
ATOM     33  O   UNL     1       8.970   2.889  23.998  0.00  0.00    -0.386 OA
ATOM     34  H   UNL     1       8.502   2.431  24.723  0.00  0.00    +0.210 HD
ENDBRANCH  31  33
BRANCH  30  35
ATOM     35  O   UNL     1      10.334   2.270  21.883  0.00  0.00    -0.386 OA
ATOM     36  H   UNL     1      10.798   1.414  21.735  0.00  0.00    +0.210 HD
ENDBRANCH  30  35
BRANCH  32  37
ATOM     37  O   UNL     1       6.034   3.072  24.062  0.00  0.00    -0.337 OA
BRANCH  37  38
ATOM     38  C   UNL     1       5.325   4.255  23.688  0.00  0.00    +0.282 C 
ATOM     39  O   UNL     1       5.099   5.254  24.692  0.00  0.00    -0.346 OA
ATOM     40  C   UNL     1       3.707   5.625  24.668  0.00  0.00    +0.202 C 
ATOM     41  C   UNL     1       3.090   5.162  23.345  0.00  0.00    +0.142 C 
ATOM     42  C   UNL     1       3.987   3.985  22.946  0.00  0.00    +0.206 C 
BRANCH  42  43
ATOM     43  O   UNL     1       3.392   2.733  23.302  0.00  0.00    -0.384 OA
ATOM     44  H   UNL     1       4.096   2.063  23.209  0.00  0.00    +0.210 HD
ENDBRANCH  42  43
BRANCH  41  45
ATOM     45  O   UNL     1       3.177   6.192  22.341  0.00  0.00    -0.381 OA
ATOM     46  H   UNL     1       3.593   6.982  22.721  0.00  0.00    +0.210 HD
ENDBRANCH  41  45
BRANCH  41  47
ATOM     47  C   UNL     1       1.593   4.831  23.514  0.00  0.00    +0.195 C 
BRANCH  47  48
ATOM     48  O   UNL     1       1.270   4.345  24.813  0.00  0.00    -0.392 OA
ATOM     49  H   UNL     1       2.115   4.360  25.316  0.00  0.00    +0.210 HD
ENDBRANCH  47  48
ENDBRANCH  41  47
ENDBRANCH  37  38
ENDBRANCH  32  37
BRANCH  29  50
ATOM     50  C   UNL     1       9.397  -0.430  20.978  0.00  0.00    +0.190 C 
BRANCH  50  51
ATOM     51  O   UNL     1      10.144  -1.529  21.498  0.00  0.00    -0.392 OA
ATOM     52  H   UNL     1      10.476  -2.051  20.736  0.00  0.00    +0.210 HD
ENDBRANCH  50  51
ENDBRANCH  29  50
ENDBRANCH   1  27
TORSDOF 17
ENDMDL
MODEL 7
REMARK VINA RESULT:      -6.1      2.519      4.673
REMARK  Name = 
REMARK  18 active torsions:
REMARK  status: ('A' for Active; 'I' for Inactive)
REMARK    1  A    between atoms: C_1  and  O_2
REMARK    2  A    between atoms: O_2  and  C_3
REMARK    3  A    between atoms: C_4  and  O_48
REMARK    4  A    between atoms: C_7  and  C_9
REMARK    5  A    between atoms: C_10  and  O_22
REMARK    6  A    between atoms: C_14  and  O_21
REMARK    7  A    between atoms: C_16  and  O_20
REMARK    8  A    between atoms: O_22  and  C_23
REMARK    9  A    between atoms: C_25  and  O_36
REMARK   10  A    between atoms: C_26  and  O_35
REMARK   11  A    between atoms: C_28  and  O_34
REMARK   12  A    between atoms: C_30  and  C_32
REMARK   13  A    between atoms: C_32  and  O_33
REMARK   14  A    between atoms: O_36  and  C_37
REMARK   15  A    between atoms: C_39  and  O_47
REMARK   16  A    between atoms: C_41  and  C_44
REMARK   17  A    between atoms: C_41  and  O_46
REMARK   18  A    between atoms: C_44  and  O_45
REMARK                            x       y       z     vdW  Elec       q    Type
REMARK                         _______ _______ _______ _____ _____    ______ ____
ROOT
ATOM      1  O   UNL     1       6.541  -2.595  25.144  0.00  0.00    -0.453 OA
ENDROOT
BRANCH   1  12
ATOM      2  C   UNL     1       4.240  -2.846  25.845  0.00  0.00    +0.181 A 
ATOM      3  O   UNL     1       3.172  -2.340  26.622  0.00  0.00    -0.451 OA
ATOM      4  C   UNL     1       3.257  -1.085  27.191  0.00  0.00    +0.147 A 
ATOM      5  C   UNL     1       4.340  -0.244  26.988  0.00  0.00    +0.109 A 
ATOM      6  C   UNL     1       4.381   1.041  27.561  0.00  0.00    +0.135 A 
ATOM      7  C   UNL     1       3.333   1.504  28.339  0.00  0.00    +0.091 A 
ATOM      8  C   UNL     1       2.249   0.659  28.550  0.00  0.00    +0.124 A 
ATOM      9  C   UNL     1       5.447  -0.747  26.196  0.00  0.00    +0.238 A 
ATOM     10  O   UNL     1       6.459  -0.060  26.088  0.00  0.00    -0.283 OA
ATOM     11  C   UNL     1       2.208  -0.628  27.996  0.00  0.00    +0.092 A 
ATOM     12  C   UNL     1       5.351  -2.104  25.600  0.00  0.00    +0.214 A 
BRANCH   2  15
ATOM     13  C   UNL     1       2.864  -5.832  23.722  0.00  0.00    +0.162 A 
ATOM     14  C   UNL     1       3.281  -4.538  24.111  0.00  0.00    +0.061 A 
ATOM     15  C   UNL     1       3.972  -4.249  25.309  0.00  0.00    +0.025 A 
ATOM     16  C   UNL     1       4.370  -5.376  26.039  0.00  0.00    +0.015 A 
ATOM     17  C   UNL     1       4.033  -6.680  25.633  0.00  0.00    +0.050 A 
ATOM     18  C   UNL     1       3.274  -6.911  24.490  0.00  0.00    +0.158 A 
BRANCH  18  19
ATOM     19  O   UNL     1       3.036  -8.214  24.169  0.00  0.00    -0.503 OA
ATOM     20  H   UNL     1       2.384  -8.224  23.449  0.00  0.00    +0.292 HD
ENDBRANCH  18  19
BRANCH  13  22
ATOM     21  C   UNL     1       0.717  -6.179  22.644  0.00  0.00    +0.277 C 
ATOM     22  O   UNL     1       2.111  -5.875  22.578  0.00  0.00    -0.491 OA
ENDBRANCH  13  22
ENDBRANCH   2  15
BRANCH   8  23
ATOM     23  O   UNL     1       1.194   1.072  29.309  0.00  0.00    -0.507 OA
ATOM     24  H   UNL     1       1.510   1.308  30.200  0.00  0.00    +0.292 HD
ENDBRANCH   8  23
BRANCH   6  25
ATOM     25  O   UNL     1       5.433   1.903  27.398  0.00  0.00    -0.506 OA
ATOM     26  H   UNL     1       5.674   2.265  28.280  0.00  0.00    +0.292 HD
ENDBRANCH   6  25
ENDBRANCH   1  12
BRANCH   1  27
ATOM     27  C   UNL     1       7.062  -2.318  23.835  0.00  0.00    +0.340 C 
ATOM     28  O   UNL     1       6.743  -3.486  23.027  0.00  0.00    -0.331 OA
ATOM     29  C   UNL     1       7.132  -4.703  23.700  0.00  0.00    +0.179 C 
ATOM     30  C   UNL     1       8.658  -4.752  23.880  0.00  0.00    +0.177 C 
ATOM     31  C   UNL     1       9.223  -3.437  24.465  0.00  0.00    +0.180 C 
ATOM     32  C   UNL     1       8.619  -2.175  23.782  0.00  0.00    +0.221 C 
BRANCH  31  33
ATOM     33  O   UNL     1       9.001  -3.510  25.890  0.00  0.00    -0.386 OA
ATOM     34  H   UNL     1       9.494  -4.280  26.235  0.00  0.00    +0.210 HD
ENDBRANCH  31  33
BRANCH  30  35
ATOM     35  O   UNL     1       8.984  -5.844  24.762  0.00  0.00    -0.386 OA
ATOM     36  H   UNL     1       8.111  -6.185  25.068  0.00  0.00    +0.210 HD
ENDBRANCH  30  35
BRANCH  32  37
ATOM     37  O   UNL     1       9.104  -0.972  24.404  0.00  0.00    -0.337 OA
BRANCH  37  38
ATOM     38  C   UNL     1       9.783   0.016  23.627  0.00  0.00    +0.282 C 
ATOM     39  O   UNL     1      10.926   0.662  24.203  0.00  0.00    -0.346 OA
ATOM     40  C   UNL     1      10.782   2.086  24.041  0.00  0.00    +0.202 C 
ATOM     41  C   UNL     1       9.721   2.362  22.971  0.00  0.00    +0.142 C 
ATOM     42  C   UNL     1       8.849   1.103  23.027  0.00  0.00    +0.206 C 
BRANCH  42  43
ATOM     43  O   UNL     1       7.670   1.321  23.807  0.00  0.00    -0.384 OA
ATOM     44  H   UNL     1       7.972   1.705  24.653  0.00  0.00    +0.210 HD
ENDBRANCH  42  43
BRANCH  41  45
ATOM     45  O   UNL     1      10.317   2.475  21.664  0.00  0.00    -0.381 OA
ATOM     46  H   UNL     1      10.348   1.599  21.246  0.00  0.00    +0.210 HD
ENDBRANCH  41  45
BRANCH  41  47
ATOM     47  C   UNL     1       8.989   3.692  23.243  0.00  0.00    +0.195 C 
BRANCH  47  48
ATOM     48  O   UNL     1       8.043   4.027  22.232  0.00  0.00    -0.392 OA
ATOM     49  H   UNL     1       7.184   3.667  22.547  0.00  0.00    +0.210 HD
ENDBRANCH  47  48
ENDBRANCH  41  47
ENDBRANCH  37  38
ENDBRANCH  32  37
BRANCH  29  50
ATOM     50  C   UNL     1       6.597  -5.940  22.951  0.00  0.00    +0.190 C 
BRANCH  50  51
ATOM     51  O   UNL     1       5.819  -5.595  21.805  0.00  0.00    -0.392 OA
ATOM     52  H   UNL     1       5.741  -4.617  21.782  0.00  0.00    +0.210 HD
ENDBRANCH  50  51
ENDBRANCH  29  50
ENDBRANCH   1  27
TORSDOF 17
ENDMDL
MODEL 8
REMARK VINA RESULT:      -6.0      2.622      6.963
REMARK  Name = 
REMARK  18 active torsions:
REMARK  status: ('A' for Active; 'I' for Inactive)
REMARK    1  A    between atoms: C_1  and  O_2
REMARK    2  A    between atoms: O_2  and  C_3
REMARK    3  A    between atoms: C_4  and  O_48
REMARK    4  A    between atoms: C_7  and  C_9
REMARK    5  A    between atoms: C_10  and  O_22
REMARK    6  A    between atoms: C_14  and  O_21
REMARK    7  A    between atoms: C_16  and  O_20
REMARK    8  A    between atoms: O_22  and  C_23
REMARK    9  A    between atoms: C_25  and  O_36
REMARK   10  A    between atoms: C_26  and  O_35
REMARK   11  A    between atoms: C_28  and  O_34
REMARK   12  A    between atoms: C_30  and  C_32
REMARK   13  A    between atoms: C_32  and  O_33
REMARK   14  A    between atoms: O_36  and  C_37
REMARK   15  A    between atoms: C_39  and  O_47
REMARK   16  A    between atoms: C_41  and  C_44
REMARK   17  A    between atoms: C_41  and  O_46
REMARK   18  A    between atoms: C_44  and  O_45
REMARK                            x       y       z     vdW  Elec       q    Type
REMARK                         _______ _______ _______ _____ _____    ______ ____
ROOT
ATOM      1  O   UNL     1       5.723  -2.040  24.758  0.00  0.00    -0.453 OA
ENDROOT
BRANCH   1  12
ATOM      2  C   UNL     1       5.751   0.329  25.246  0.00  0.00    +0.181 A 
ATOM      3  O   UNL     1       5.114   1.418  25.885  0.00  0.00    -0.451 OA
ATOM      4  C   UNL     1       4.087   1.199  26.780  0.00  0.00    +0.147 A 
ATOM      5  C   UNL     1       3.671  -0.073  27.143  0.00  0.00    +0.109 A 
ATOM      6  C   UNL     1       2.638  -0.261  28.081  0.00  0.00    +0.135 A 
ATOM      7  C   UNL     1       2.013   0.823  28.674  0.00  0.00    +0.091 A 
ATOM      8  C   UNL     1       2.425   2.100  28.306  0.00  0.00    +0.124 A 
ATOM      9  C   UNL     1       4.310  -1.203  26.496  0.00  0.00    +0.238 A 
ATOM     10  O   UNL     1       3.889  -2.334  26.725  0.00  0.00    -0.283 OA
ATOM     11  C   UNL     1       3.441   2.295  27.360  0.00  0.00    +0.092 A 
ATOM     12  C   UNL     1       5.406  -0.955  25.524  0.00  0.00    +0.214 A 
BRANCH   2  15
ATOM     13  C   UNL     1       9.179   1.541  23.799  0.00  0.00    +0.162 A 
ATOM     14  C   UNL     1       8.207   0.950  24.640  0.00  0.00    +0.061 A 
ATOM     15  C   UNL     1       6.853   0.764  24.285  0.00  0.00    +0.025 A 
ATOM     16  C   UNL     1       6.551   1.068  22.951  0.00  0.00    +0.015 A 
ATOM     17  C   UNL     1       7.519   1.587  22.072  0.00  0.00    +0.050 A 
ATOM     18  C   UNL     1       8.822   1.836  22.492  0.00  0.00    +0.158 A 
BRANCH  18  19
ATOM     19  O   UNL     1       9.688   2.305  21.549  0.00  0.00    -0.503 OA
ATOM     20  H   UNL     1      10.447   2.694  22.015  0.00  0.00    +0.292 HD
ENDBRANCH  18  19
BRANCH  13  22
ATOM     21  C   UNL     1      11.264   0.612  24.624  0.00  0.00    +0.277 C 
ATOM     22  O   UNL     1      10.407   1.727  24.379  0.00  0.00    -0.491 OA
ENDBRANCH  13  22
ENDBRANCH   2  15
BRANCH   8  23
ATOM     23  O   UNL     1       1.838   3.198  28.863  0.00  0.00    -0.507 OA
ATOM     24  H   UNL     1       2.447   3.595  29.511  0.00  0.00    +0.292 HD
ENDBRANCH   8  23
BRANCH   6  25
ATOM     25  O   UNL     1       2.186  -1.496  28.463  0.00  0.00    -0.506 OA
ATOM     26  H   UNL     1       1.735  -1.404  29.332  0.00  0.00    +0.292 HD
ENDBRANCH   6  25
ENDBRANCH   1  12
BRANCH   1  27
ATOM     27  C   UNL     1       6.767  -2.967  25.091  0.00  0.00    +0.340 C 
ATOM     28  O   UNL     1       7.883  -2.637  24.217  0.00  0.00    -0.331 OA
ATOM     29  C   UNL     1       7.450  -2.524  22.845  0.00  0.00    +0.179 C 
ATOM     30  C   UNL     1       6.934  -3.878  22.332  0.00  0.00    +0.177 C 
ATOM     31  C   UNL     1       5.935  -4.535  23.311  0.00  0.00    +0.180 C 
ATOM     32  C   UNL     1       6.417  -4.462  24.790  0.00  0.00    +0.221 C 
BRANCH  31  33
ATOM     33  O   UNL     1       4.663  -3.899  23.064  0.00  0.00    -0.386 OA
ATOM     34  H   UNL     1       4.725  -2.969  23.359  0.00  0.00    +0.210 HD
ENDBRANCH  31  33
BRANCH  30  35
ATOM     35  O   UNL     1       6.290  -3.675  21.059  0.00  0.00    -0.386 OA
ATOM     36  H   UNL     1       6.688  -4.356  20.468  0.00  0.00    +0.210 HD
ENDBRANCH  30  35
BRANCH  32  37
ATOM     37  O   UNL     1       5.428  -5.008  25.680  0.00  0.00    -0.337 OA
BRANCH  37  38
ATOM     38  C   UNL     1       5.802  -5.971  26.668  0.00  0.00    +0.282 C 
ATOM     39  O   UNL     1       4.891  -7.042  26.949  0.00  0.00    -0.346 OA
ATOM     40  C   UNL     1       4.717  -7.137  28.375  0.00  0.00    +0.202 C 
ATOM     41  C   UNL     1       5.855  -6.382  29.069  0.00  0.00    +0.142 C 
ATOM     42  C   UNL     1       6.269  -5.350  28.013  0.00  0.00    +0.206 C 
BRANCH  42  43
ATOM     43  O   UNL     1       5.680  -4.073  28.276  0.00  0.00    -0.384 OA
ATOM     44  H   UNL     1       4.798  -4.090  27.855  0.00  0.00    +0.210 HD
ENDBRANCH  42  43
BRANCH  41  45
ATOM     45  O   UNL     1       6.966  -7.256  29.346  0.00  0.00    -0.381 OA
ATOM     46  H   UNL     1       7.608  -7.206  28.619  0.00  0.00    +0.210 HD
ENDBRANCH  41  45
BRANCH  41  47
ATOM     47  C   UNL     1       5.395  -5.803  30.423  0.00  0.00    +0.195 C 
BRANCH  47  48
ATOM     48  O   UNL     1       4.136  -5.142  30.350  0.00  0.00    -0.392 OA
ATOM     49  H   UNL     1       3.528  -5.782  29.917  0.00  0.00    +0.210 HD
ENDBRANCH  47  48
ENDBRANCH  41  47
ENDBRANCH  37  38
ENDBRANCH  32  37
BRANCH  29  50
ATOM     50  C   UNL     1       8.579  -1.961  21.958  0.00  0.00    +0.190 C 
BRANCH  50  51
ATOM     51  O   UNL     1       9.837  -1.916  22.631  0.00  0.00    -0.392 OA
ATOM     52  H   UNL     1       9.831  -2.615  23.321  0.00  0.00    +0.210 HD
ENDBRANCH  50  51
ENDBRANCH  29  50
ENDBRANCH   1  27
TORSDOF 17
ENDMDL
MODEL 9
REMARK VINA RESULT:      -6.0      1.888      6.482
REMARK  Name = 
REMARK  18 active torsions:
REMARK  status: ('A' for Active; 'I' for Inactive)
REMARK    1  A    between atoms: C_1  and  O_2
REMARK    2  A    between atoms: O_2  and  C_3
REMARK    3  A    between atoms: C_4  and  O_48
REMARK    4  A    between atoms: C_7  and  C_9
REMARK    5  A    between atoms: C_10  and  O_22
REMARK    6  A    between atoms: C_14  and  O_21
REMARK    7  A    between atoms: C_16  and  O_20
REMARK    8  A    between atoms: O_22  and  C_23
REMARK    9  A    between atoms: C_25  and  O_36
REMARK   10  A    between atoms: C_26  and  O_35
REMARK   11  A    between atoms: C_28  and  O_34
REMARK   12  A    between atoms: C_30  and  C_32
REMARK   13  A    between atoms: C_32  and  O_33
REMARK   14  A    between atoms: O_36  and  C_37
REMARK   15  A    between atoms: C_39  and  O_47
REMARK   16  A    between atoms: C_41  and  C_44
REMARK   17  A    between atoms: C_41  and  O_46
REMARK   18  A    between atoms: C_44  and  O_45
REMARK                            x       y       z     vdW  Elec       q    Type
REMARK                         _______ _______ _______ _____ _____    ______ ____
ROOT
ATOM      1  O   UNL     1       7.907  -0.227  24.226  0.00  0.00    -0.453 OA
ENDROOT
BRANCH   1  12
ATOM      2  C   UNL     1       5.997   1.003  25.057  0.00  0.00    +0.181 A 
ATOM      3  O   UNL     1       4.792   0.969  25.797  0.00  0.00    -0.451 OA
ATOM      4  C   UNL     1       4.476  -0.133  26.565  0.00  0.00    +0.147 A 
ATOM      5  C   UNL     1       5.329  -1.216  26.704  0.00  0.00    +0.109 A 
ATOM      6  C   UNL     1       4.987  -2.312  27.519  0.00  0.00    +0.135 A 
ATOM      7  C   UNL     1       3.789  -2.333  28.213  0.00  0.00    +0.091 A 
ATOM      8  C   UNL     1       2.929  -1.249  28.070  0.00  0.00    +0.124 A 
ATOM      9  C   UNL     1       6.568  -1.202  25.950  0.00  0.00    +0.238 A 
ATOM     10  O   UNL     1       7.291  -2.194  25.977  0.00  0.00    -0.283 OA
ATOM     11  C   UNL     1       3.255  -0.162  27.247  0.00  0.00    +0.092 A 
ATOM     12  C   UNL     1       6.892  -0.016  25.115  0.00  0.00    +0.214 A 
BRANCH   2  15
ATOM     13  C   UNL     1       6.219   4.786  24.079  0.00  0.00    +0.162 A 
ATOM     14  C   UNL     1       6.258   3.585  24.824  0.00  0.00    +0.061 A 
ATOM     15  C   UNL     1       6.170   2.293  24.261  0.00  0.00    +0.025 A 
ATOM     16  C   UNL     1       6.198   2.264  22.861  0.00  0.00    +0.015 A 
ATOM     17  C   UNL     1       6.235   3.443  22.095  0.00  0.00    +0.050 A 
ATOM     18  C   UNL     1       6.232   4.699  22.696  0.00  0.00    +0.158 A 
BRANCH  18  19
ATOM     19  O   UNL     1       6.307   5.775  21.861  0.00  0.00    -0.503 OA
ATOM     20  H   UNL     1       7.054   6.321  22.153  0.00  0.00    +0.292 HD
ENDBRANCH  18  19
BRANCH  13  22
ATOM     21  C   UNL     1       7.402   6.697  24.997  0.00  0.00    +0.277 C 
ATOM     22  O   UNL     1       6.207   5.931  24.831  0.00  0.00    -0.491 OA
ENDBRANCH  13  22
ENDBRANCH   2  15
BRANCH   8  23
ATOM     23  O   UNL     1       1.738  -1.225  28.735  0.00  0.00    -0.507 OA
ATOM     24  H   UNL     1       1.898  -1.034  29.677  0.00  0.00    +0.292 HD
ENDBRANCH   8  23
BRANCH   6  25
ATOM     25  O   UNL     1       5.790  -3.410  27.679  0.00  0.00    -0.506 OA
ATOM     26  H   UNL     1       6.617  -3.124  28.129  0.00  0.00    +0.292 HD
ENDBRANCH   6  25
ENDBRANCH   1  12
BRANCH   1  27
ATOM     27  C   UNL     1       9.275  -0.420  24.616  0.00  0.00    +0.340 C 
ATOM     28  O   UNL     1       9.790   0.906  24.924  0.00  0.00    -0.331 OA
ATOM     29  C   UNL     1       9.482   1.840  23.866  0.00  0.00    +0.179 C 
ATOM     30  C   UNL     1      10.193   1.432  22.566  0.00  0.00    +0.177 C 
ATOM     31  C   UNL     1       9.998  -0.065  22.234  0.00  0.00    +0.180 C 
ATOM     32  C   UNL     1      10.193  -0.980  23.480  0.00  0.00    +0.221 C 
BRANCH  31  33
ATOM     33  O   UNL     1       8.699  -0.167  21.615  0.00  0.00    -0.386 OA
ATOM     34  H   UNL     1       8.411  -1.100  21.661  0.00  0.00    +0.210 HD
ENDBRANCH  31  33
BRANCH  30  35
ATOM     35  O   UNL     1       9.675   2.231  21.485  0.00  0.00    -0.386 OA
ATOM     36  H   UNL     1       9.020   2.831  21.912  0.00  0.00    +0.210 HD
ENDBRANCH  30  35
BRANCH  32  37
ATOM     37  O   UNL     1       9.924  -2.355  23.154  0.00  0.00    -0.337 OA
BRANCH  37  38
ATOM     38  C   UNL     1       8.930  -3.085  23.877  0.00  0.00    +0.282 C 
ATOM     39  O   UNL     1       9.307  -4.335  24.471  0.00  0.00    -0.346 OA
ATOM     40  C   UNL     1       8.331  -5.330  24.110  0.00  0.00    +0.202 C 
ATOM     41  C   UNL     1       7.064  -4.629  23.610  0.00  0.00    +0.142 C 
ATOM     42  C   UNL     1       7.600  -3.286  23.100  0.00  0.00    +0.206 C 
BRANCH  42  43
ATOM     43  O   UNL     1       7.776  -3.301  21.681  0.00  0.00    -0.384 OA
ATOM     44  H   UNL     1       7.921  -2.371  21.416  0.00  0.00    +0.210 HD
ENDBRANCH  42  43
BRANCH  41  45
ATOM     45  O   UNL     1       6.137  -4.397  24.688  0.00  0.00    -0.381 OA
ATOM     46  H   UNL     1       6.491  -3.713  25.279  0.00  0.00    +0.210 HD
ENDBRANCH  41  45
BRANCH  41  47
ATOM     47  C   UNL     1       6.326  -5.490  22.565  0.00  0.00    +0.195 C 
BRANCH  47  48
ATOM     48  O   UNL     1       5.318  -4.773  21.860  0.00  0.00    -0.392 OA
ATOM     49  H   UNL     1       5.153  -5.290  21.039  0.00  0.00    +0.210 HD
ENDBRANCH  47  48
ENDBRANCH  41  47
ENDBRANCH  37  38
ENDBRANCH  32  37
BRANCH  29  50
ATOM     50  C   UNL     1       9.829   3.282  24.288  0.00  0.00    +0.190 C 
BRANCH  50  51
ATOM     51  O   UNL     1       9.543   4.238  23.268  0.00  0.00    -0.392 OA
ATOM     52  H   UNL     1       9.159   5.031  23.701  0.00  0.00    +0.210 HD
ENDBRANCH  50  51
ENDBRANCH  29  50
ENDBRANCH   1  27
TORSDOF 17
ENDMDL
