MODEL 1
REMARK VINA RESULT:      -7.7      0.000      0.000
REMARK  Name = 
REMARK  17 active torsions:
REMARK  status: ('A' for Active; 'I' for Inactive)
REMARK    1  A    between atoms: C_1  and  C_2
REMARK    2  A    between atoms: C_3  and  O_48
REMARK    3  A    between atoms: C_5  and  O_47
REMARK    4  A    between atoms: C_7  and  O_46
REMARK    5  A    between atoms: C_8  and  O_11
REMARK    6  A    between atoms: O_11  and  C_12
REMARK    7  A    between atoms: C_14  and  O_45
REMARK    8  A    between atoms: C_19  and  C_37
REMARK    9  A    between atoms: C_20  and  O_23
REMARK   10  A    between atoms: O_23  and  C_24
REMARK   11  A    between atoms: C_26  and  O_36
REMARK   12  A    between atoms: C_27  and  O_35
REMARK   13  A    between atoms: C_28  and  O_34
REMARK   14  A    between atoms: C_30  and  C_32
REMARK   15  A    between atoms: C_32  and  O_33
REMARK   16  A    between atoms: C_39  and  O_44
REMARK   17  A    between atoms: C_40  and  O_43
REMARK                            x       y       z     vdW  Elec       q    Type
REMARK                         _______ _______ _______ _____ _____    ______ ____
ROOT
ATOM      1  C   UNL     1       5.904  -5.461  25.358  0.00  0.00    +0.131 A 
ATOM      2  C   UNL     1       5.753  -4.381  26.238  0.00  0.00    +0.093 A 
ATOM      3  C   UNL     1       6.543  -3.233  26.087  0.00  0.00    +0.147 A 
ATOM      4  O   UNL     1       6.397  -2.200  26.983  0.00  0.00    -0.451 OA
ATOM      5  C   UNL     1       7.032  -0.973  26.724  0.00  0.00    +0.181 A 
ATOM      6  C   UNL     1       8.003  -0.812  25.785  0.00  0.00    +0.214 A 
ATOM      7  C   UNL     1       8.443  -2.075  25.116  0.00  0.00    +0.238 A 
ATOM      8  O   UNL     1       9.587  -2.266  24.721  0.00  0.00    -0.283 OA
ATOM      9  C   UNL     1       7.485  -3.176  25.064  0.00  0.00    +0.109 A 
ATOM     10  C   UNL     1       7.580  -4.219  24.137  0.00  0.00    +0.135 A 
ATOM     11  C   UNL     1       6.796  -5.354  24.285  0.00  0.00    +0.092 A 
ENDROOT
BRANCH   5  12
ATOM     12  C   UNL     1       6.569   0.109  27.654  0.00  0.00    +0.025 A 
ATOM     13  C   UNL     1       5.194   0.329  27.880  0.00  0.00    +0.015 A 
ATOM     14  C   UNL     1       4.750   1.288  28.805  0.00  0.00    +0.050 A 
ATOM     15  C   UNL     1       5.675   2.039  29.505  0.00  0.00    +0.158 A 
ATOM     16  C   UNL     1       7.033   1.844  29.298  0.00  0.00    +0.159 A 
ATOM     17  C   UNL     1       7.480   0.880  28.403  0.00  0.00    +0.060 A 
BRANCH  15  18
ATOM     18  O   UNL     1       5.245   2.961  30.416  0.00  0.00    -0.503 OA
ATOM     19  H   UNL     1       4.280   3.026  30.266  0.00  0.00    +0.292 HD
ENDBRANCH  15  18
BRANCH  16  20
ATOM     20  O   UNL     1       7.898   2.625  30.022  0.00  0.00    -0.503 OA
ATOM     21  H   UNL     1       7.491   2.814  30.883  0.00  0.00    +0.292 HD
ENDBRANCH  16  20
ENDBRANCH   5  12
BRANCH  10  22
ATOM     22  O   UNL     1       8.421  -4.121  23.064  0.00  0.00    -0.506 OA
ATOM     23  H   UNL     1       8.976  -3.326  23.149  0.00  0.00    +0.292 HD
ENDBRANCH  10  22
BRANCH   6  24
ATOM     24  O   UNL     1       8.559   0.449  25.487  0.00  0.00    -0.453 OA
BRANCH  24  25
ATOM     25  C   UNL     1       8.070   1.148  24.326  0.00  0.00    +0.340 C 
ATOM     26  O   UNL     1       8.286   0.379  23.136  0.00  0.00    -0.331 OA
ATOM     27  C   UNL     1       9.612   0.445  22.588  0.00  0.00    +0.179 C 
ATOM     28  C   UNL     1      10.001   1.894  22.271  0.00  0.00    +0.177 C 
ATOM     29  C   UNL     1       9.994   2.691  23.572  0.00  0.00    +0.180 C 
ATOM     30  C   UNL     1       8.619   2.596  24.238  0.00  0.00    +0.214 C 
BRANCH  28  31
ATOM     31  O   UNL     1       9.061   2.495  21.370  0.00  0.00    -0.386 OA
ATOM     32  H   UNL     1       8.179   2.351  21.761  0.00  0.00    +0.210 HD
ENDBRANCH  28  31
BRANCH  29  33
ATOM     33  O   UNL     1      10.331   4.054  23.259  0.00  0.00    -0.386 OA
ATOM     34  H   UNL     1      11.267   4.193  23.502  0.00  0.00    +0.210 HD
ENDBRANCH  29  33
BRANCH  30  35
ATOM     35  O   UNL     1       8.639   3.265  25.507  0.00  0.00    -0.383 OA
ATOM     36  H   UNL     1       8.211   4.133  25.388  0.00  0.00    +0.210 HD
ENDBRANCH  30  35
BRANCH  27  37
ATOM     37  C   UNL     1       9.657  -0.464  21.348  0.00  0.00    +0.190 C 
BRANCH  37  38
ATOM     38  O   UNL     1       9.816  -1.838  21.672  0.00  0.00    -0.392 OA
ATOM     39  H   UNL     1       9.709  -2.330  20.833  0.00  0.00    +0.210 HD
ENDBRANCH  37  38
ENDBRANCH  27  37
ENDBRANCH  24  25
ENDBRANCH   6  24
BRANCH   1  40
ATOM     40  O   UNL     1       5.278  -6.675  25.410  0.00  0.00    -0.461 OA
BRANCH  40  44
ATOM     41  C   UNL     1       1.244  -7.858  26.329  0.00  0.00    +0.041 C 
ATOM     42  C   UNL     1       1.974  -8.238  25.042  0.00  0.00    +0.150 C 
ATOM     43  O   UNL     1       3.392  -8.088  25.214  0.00  0.00    -0.334 OA
ATOM     44  C   UNL     1       3.853  -6.735  25.292  0.00  0.00    +0.339 C 
ATOM     45  C   UNL     1       3.493  -6.008  23.974  0.00  0.00    +0.214 C 
ATOM     46  C   UNL     1       1.966  -6.020  23.816  0.00  0.00    +0.180 C 
ATOM     47  C   UNL     1       1.443  -7.468  23.817  0.00  0.00    +0.174 C 
BRANCH  47  48
ATOM     48  O   UNL     1       1.835  -8.146  22.615  0.00  0.00    -0.387 OA
ATOM     49  H   UNL     1       1.759  -9.110  22.793  0.00  0.00    +0.210 HD
ENDBRANCH  47  48
BRANCH  46  50
ATOM     50  O   UNL     1       1.564  -5.300  22.648  0.00  0.00    -0.386 OA
ATOM     51  H   UNL     1       0.589  -5.291  22.620  0.00  0.00    +0.210 HD
ENDBRANCH  46  50
BRANCH  45  52
ATOM     52  O   UNL     1       4.101  -6.707  22.859  0.00  0.00    -0.383 OA
ATOM     53  H   UNL     1       4.822  -7.249  23.235  0.00  0.00    +0.210 HD
ENDBRANCH  45  52
ENDBRANCH  40  44
ENDBRANCH   1  40
TORSDOF 16
ENDMDL
MODEL 2
REMARK VINA RESULT:      -7.4      2.502      3.983
REMARK  Name = 
REMARK  17 active torsions:
REMARK  status: ('A' for Active; 'I' for Inactive)
REMARK    1  A    between atoms: C_1  and  C_2
REMARK    2  A    between atoms: C_3  and  O_48
REMARK    3  A    between atoms: C_5  and  O_47
REMARK    4  A    between atoms: C_7  and  O_46
REMARK    5  A    between atoms: C_8  and  O_11
REMARK    6  A    between atoms: O_11  and  C_12
REMARK    7  A    between atoms: C_14  and  O_45
REMARK    8  A    between atoms: C_19  and  C_37
REMARK    9  A    between atoms: C_20  and  O_23
REMARK   10  A    between atoms: O_23  and  C_24
REMARK   11  A    between atoms: C_26  and  O_36
REMARK   12  A    between atoms: C_27  and  O_35
REMARK   13  A    between atoms: C_28  and  O_34
REMARK   14  A    between atoms: C_30  and  C_32
REMARK   15  A    between atoms: C_32  and  O_33
REMARK   16  A    between atoms: C_39  and  O_44
REMARK   17  A    between atoms: C_40  and  O_43
REMARK                            x       y       z     vdW  Elec       q    Type
REMARK                         _______ _______ _______ _____ _____    ______ ____
ROOT
ATOM      1  C   UNL     1       6.763  -4.144  24.608  0.00  0.00    +0.131 A 
ATOM      2  C   UNL     1       6.026  -2.955  24.692  0.00  0.00    +0.093 A 
ATOM      3  C   UNL     1       6.660  -1.718  24.517  0.00  0.00    +0.147 A 
ATOM      4  O   UNL     1       5.919  -0.566  24.635  0.00  0.00    -0.451 OA
ATOM      5  C   UNL     1       6.495   0.661  24.263  0.00  0.00    +0.181 A 
ATOM      6  C   UNL     1       7.828   0.831  24.046  0.00  0.00    +0.214 A 
ATOM      7  C   UNL     1       8.670  -0.367  24.350  0.00  0.00    +0.238 A 
ATOM      8  O   UNL     1       9.818  -0.295  24.770  0.00  0.00    -0.283 OA
ATOM      9  C   UNL     1       8.029  -1.676  24.268  0.00  0.00    +0.109 A 
ATOM     10  C   UNL     1       8.750  -2.863  24.104  0.00  0.00    +0.135 A 
ATOM     11  C   UNL     1       8.121  -4.088  24.275  0.00  0.00    +0.092 A 
ENDROOT
BRANCH   5  12
ATOM     12  C   UNL     1       5.484   1.768  24.213  0.00  0.00    +0.025 A 
ATOM     13  C   UNL     1       4.711   2.093  25.349  0.00  0.00    +0.015 A 
ATOM     14  C   UNL     1       3.816   3.174  25.337  0.00  0.00    +0.050 A 
ATOM     15  C   UNL     1       3.680   3.935  24.192  0.00  0.00    +0.158 A 
ATOM     16  C   UNL     1       4.426   3.634  23.061  0.00  0.00    +0.159 A 
ATOM     17  C   UNL     1       5.333   2.581  23.073  0.00  0.00    +0.060 A 
BRANCH  15  18
ATOM     18  O   UNL     1       2.821   4.996  24.184  0.00  0.00    -0.503 OA
ATOM     19  H   UNL     1       2.404   4.972  23.300  0.00  0.00    +0.292 HD
ENDBRANCH  15  18
BRANCH  16  20
ATOM     20  O   UNL     1       4.242   4.425  21.956  0.00  0.00    -0.503 OA
ATOM     21  H   UNL     1       4.738   5.251  22.085  0.00  0.00    +0.292 HD
ENDBRANCH  16  20
ENDBRANCH   5  12
BRANCH  10  22
ATOM     22  O   UNL     1      10.069  -2.831  23.746  0.00  0.00    -0.506 OA
ATOM     23  H   UNL     1      10.394  -3.737  23.599  0.00  0.00    +0.292 HD
ENDBRANCH  10  22
BRANCH   6  24
ATOM     24  O   UNL     1       8.365   2.052  23.589  0.00  0.00    -0.453 OA
BRANCH  24  25
ATOM     25  C   UNL     1       9.158   2.829  24.507  0.00  0.00    +0.340 C 
ATOM     26  O   UNL     1       8.341   3.394  25.539  0.00  0.00    -0.331 OA
ATOM     27  C   UNL     1       7.629   4.589  25.182  0.00  0.00    +0.179 C 
ATOM     28  C   UNL     1       8.596   5.683  24.716  0.00  0.00    +0.177 C 
ATOM     29  C   UNL     1       9.325   5.185  23.472  0.00  0.00    +0.180 C 
ATOM     30  C   UNL     1      10.047   3.871  23.778  0.00  0.00    +0.214 C 
BRANCH  28  31
ATOM     31  O   UNL     1       9.573   5.972  25.725  0.00  0.00    -0.386 OA
ATOM     32  H   UNL     1       9.951   6.843  25.496  0.00  0.00    +0.210 HD
ENDBRANCH  28  31
BRANCH  29  33
ATOM     33  O   UNL     1      10.250   6.208  23.061  0.00  0.00    -0.386 OA
ATOM     34  H   UNL     1       9.947   7.054  23.442  0.00  0.00    +0.210 HD
ENDBRANCH  29  33
BRANCH  30  35
ATOM     35  O   UNL     1      10.653   3.352  22.586  0.00  0.00    -0.383 OA
ATOM     36  H   UNL     1      11.460   3.873  22.417  0.00  0.00    +0.210 HD
ENDBRANCH  30  35
BRANCH  27  37
ATOM     37  C   UNL     1       6.789   5.020  26.396  0.00  0.00    +0.190 C 
BRANCH  37  38
ATOM     38  O   UNL     1       7.489   4.899  27.627  0.00  0.00    -0.392 OA
ATOM     39  H   UNL     1       8.057   5.692  27.696  0.00  0.00    +0.210 HD
ENDBRANCH  37  38
ENDBRANCH  27  37
ENDBRANCH  24  25
ENDBRANCH   6  24
BRANCH   1  40
ATOM     40  O   UNL     1       6.323  -5.419  24.830  0.00  0.00    -0.461 OA
BRANCH  40  44
ATOM     41  C   UNL     1       3.019  -5.740  27.569  0.00  0.00    +0.041 C 
ATOM     42  C   UNL     1       3.587  -6.914  26.774  0.00  0.00    +0.150 C 
ATOM     43  O   UNL     1       4.912  -6.605  26.312  0.00  0.00    -0.334 OA
ATOM     44  C   UNL     1       4.975  -5.629  25.266  0.00  0.00    +0.339 C 
ATOM     45  C   UNL     1       4.197  -6.161  24.039  0.00  0.00    +0.214 C 
ATOM     46  C   UNL     1       2.734  -6.375  24.450  0.00  0.00    +0.180 C 
ATOM     47  C   UNL     1       2.652  -7.357  25.632  0.00  0.00    +0.174 C 
BRANCH  47  48
ATOM     48  O   UNL     1       3.002  -8.683  25.210  0.00  0.00    -0.387 OA
ATOM     49  H   UNL     1       2.384  -9.299  25.662  0.00  0.00    +0.210 HD
ENDBRANCH  47  48
BRANCH  46  50
ATOM     50  O   UNL     1       1.945  -6.801  23.336  0.00  0.00    -0.386 OA
ATOM     51  H   UNL     1       2.010  -7.772  23.274  0.00  0.00    +0.210 HD
ENDBRANCH  46  50
BRANCH  45  52
ATOM     52  O   UNL     1       4.772  -7.422  23.615  0.00  0.00    -0.383 OA
ATOM     53  H   UNL     1       5.699  -7.232  23.370  0.00  0.00    +0.210 HD
ENDBRANCH  45  52
ENDBRANCH  40  44
ENDBRANCH   1  40
TORSDOF 16
ENDMDL
MODEL 3
REMARK VINA RESULT:      -7.2      2.573      9.121
REMARK  Name = 
REMARK  17 active torsions:
REMARK  status: ('A' for Active; 'I' for Inactive)
REMARK    1  A    between atoms: C_1  and  C_2
REMARK    2  A    between atoms: C_3  and  O_48
REMARK    3  A    between atoms: C_5  and  O_47
REMARK    4  A    between atoms: C_7  and  O_46
REMARK    5  A    between atoms: C_8  and  O_11
REMARK    6  A    between atoms: O_11  and  C_12
REMARK    7  A    between atoms: C_14  and  O_45
REMARK    8  A    between atoms: C_19  and  C_37
REMARK    9  A    between atoms: C_20  and  O_23
REMARK   10  A    between atoms: O_23  and  C_24
REMARK   11  A    between atoms: C_26  and  O_36
REMARK   12  A    between atoms: C_27  and  O_35
REMARK   13  A    between atoms: C_28  and  O_34
REMARK   14  A    between atoms: C_30  and  C_32
REMARK   15  A    between atoms: C_32  and  O_33
REMARK   16  A    between atoms: C_39  and  O_44
REMARK   17  A    between atoms: C_40  and  O_43
REMARK                            x       y       z     vdW  Elec       q    Type
REMARK                         _______ _______ _______ _____ _____    ______ ____
ROOT
ATOM      1  C   UNL     1      10.019   0.244  24.260  0.00  0.00    +0.131 A 
ATOM      2  C   UNL     1       9.227  -0.369  25.239  0.00  0.00    +0.093 A 
ATOM      3  C   UNL     1       8.429  -1.473  24.912  0.00  0.00    +0.147 A 
ATOM      4  O   UNL     1       7.638  -2.037  25.885  0.00  0.00    -0.451 OA
ATOM      5  C   UNL     1       6.995  -3.259  25.625  0.00  0.00    +0.181 A 
ATOM      6  C   UNL     1       6.881  -3.797  24.380  0.00  0.00    +0.214 A 
ATOM      7  C   UNL     1       7.389  -2.930  23.273  0.00  0.00    +0.238 A 
ATOM      8  O   UNL     1       6.906  -2.921  22.148  0.00  0.00    -0.283 OA
ATOM      9  C   UNL     1       8.421  -1.953  23.606  0.00  0.00    +0.109 A 
ATOM     10  C   UNL     1       9.271  -1.394  22.647  0.00  0.00    +0.135 A 
ATOM     11  C   UNL     1      10.063  -0.302  22.972  0.00  0.00    +0.092 A 
ENDROOT
BRANCH   5  12
ATOM     12  C   UNL     1       6.387  -3.853  26.861  0.00  0.00    +0.025 A 
ATOM     13  C   UNL     1       5.300  -3.224  27.505  0.00  0.00    +0.015 A 
ATOM     14  C   UNL     1       4.674  -3.808  28.618  0.00  0.00    +0.050 A 
ATOM     15  C   UNL     1       5.132  -5.019  29.100  0.00  0.00    +0.158 A 
ATOM     16  C   UNL     1       6.201  -5.657  28.485  0.00  0.00    +0.159 A 
ATOM     17  C   UNL     1       6.809  -5.097  27.368  0.00  0.00    +0.060 A 
BRANCH  15  18
ATOM     18  O   UNL     1       4.514  -5.596  30.172  0.00  0.00    -0.503 OA
ATOM     19  H   UNL     1       5.226  -6.074  30.641  0.00  0.00    +0.292 HD
ENDBRANCH  15  18
BRANCH  16  20
ATOM     20  O   UNL     1       6.608  -6.854  29.015  0.00  0.00    -0.503 OA
ATOM     21  H   UNL     1       7.077  -7.350  28.323  0.00  0.00    +0.292 HD
ENDBRANCH  16  20
ENDBRANCH   5  12
BRANCH  10  22
ATOM     22  O   UNL     1       9.355  -1.932  21.393  0.00  0.00    -0.506 OA
ATOM     23  H   UNL     1       9.316  -1.224  20.725  0.00  0.00    +0.292 HD
ENDBRANCH  10  22
BRANCH   6  24
ATOM     24  O   UNL     1       6.308  -5.067  24.161  0.00  0.00    -0.453 OA
BRANCH  24  25
ATOM     25  C   UNL     1       5.121  -5.143  23.347  0.00  0.00    +0.340 C 
ATOM     26  O   UNL     1       4.127  -4.218  23.802  0.00  0.00    -0.331 OA
ATOM     27  C   UNL     1       3.351  -4.648  24.931  0.00  0.00    +0.179 C 
ATOM     28  C   UNL     1       2.637  -5.972  24.632  0.00  0.00    +0.177 C 
ATOM     29  C   UNL     1       3.695  -7.038  24.359  0.00  0.00    +0.180 C 
ATOM     30  C   UNL     1       4.599  -6.597  23.205  0.00  0.00    +0.214 C 
BRANCH  28  31
ATOM     31  O   UNL     1       1.803  -5.858  23.471  0.00  0.00    -0.386 OA
ATOM     32  H   UNL     1       2.224  -5.190  22.898  0.00  0.00    +0.210 HD
ENDBRANCH  28  31
BRANCH  29  33
ATOM     33  O   UNL     1       3.015  -8.268  24.051  0.00  0.00    -0.386 OA
ATOM     34  H   UNL     1       2.298  -8.383  24.704  0.00  0.00    +0.210 HD
ENDBRANCH  29  33
BRANCH  30  35
ATOM     35  O   UNL     1       5.650  -7.553  23.011  0.00  0.00    -0.383 OA
ATOM     36  H   UNL     1       5.237  -8.434  22.945  0.00  0.00    +0.210 HD
ENDBRANCH  30  35
BRANCH  27  37
ATOM     37  C   UNL     1       2.372  -3.518  25.290  0.00  0.00    +0.190 C 
BRANCH  37  38
ATOM     38  O   UNL     1       1.076  -3.992  25.633  0.00  0.00    -0.392 OA
ATOM     39  H   UNL     1       1.196  -4.915  25.934  0.00  0.00    +0.210 HD
ENDBRANCH  37  38
ENDBRANCH  27  37
ENDBRANCH  24  25
ENDBRANCH   6  24
BRANCH   1  40
ATOM     40  O   UNL     1      10.786   1.368  24.387  0.00  0.00    -0.461 OA
BRANCH  40  44
ATOM     41  C   UNL     1       7.972   4.225  25.946  0.00  0.00    +0.041 C 
ATOM     42  C   UNL     1       8.020   3.783  24.485  0.00  0.00    +0.150 C 
ATOM     43  O   UNL     1       8.734   2.542  24.365  0.00  0.00    -0.334 OA
ATOM     44  C   UNL     1      10.147   2.635  24.575  0.00  0.00    +0.339 C 
ATOM     45  C   UNL     1      10.748   3.589  23.514  0.00  0.00    +0.214 C 
ATOM     46  C   UNL     1      10.113   4.974  23.695  0.00  0.00    +0.180 C 
ATOM     47  C   UNL     1       8.582   4.879  23.559  0.00  0.00    +0.174 C 
BRANCH  47  48
ATOM     48  O   UNL     1       8.215   4.598  22.201  0.00  0.00    -0.387 OA
ATOM     49  H   UNL     1       8.988   4.161  21.780  0.00  0.00    +0.210 HD
ENDBRANCH  47  48
BRANCH  46  50
ATOM     50  O   UNL     1      10.679   5.922  22.786  0.00  0.00    -0.386 OA
ATOM     51  H   UNL     1      10.163   6.747  22.849  0.00  0.00    +0.210 HD
ENDBRANCH  46  50
BRANCH  45  52
ATOM     52  O   UNL     1      10.445   3.085  22.189  0.00  0.00    -0.383 OA
ATOM     53  H   UNL     1       9.496   3.266  22.037  0.00  0.00    +0.210 HD
ENDBRANCH  45  52
ENDBRANCH  40  44
ENDBRANCH   1  40
TORSDOF 16
ENDMDL
MODEL 4
REMARK VINA RESULT:      -7.1      1.913      4.327
REMARK  Name = 
REMARK  17 active torsions:
REMARK  status: ('A' for Active; 'I' for Inactive)
REMARK    1  A    between atoms: C_1  and  C_2
REMARK    2  A    between atoms: C_3  and  O_48
REMARK    3  A    between atoms: C_5  and  O_47
REMARK    4  A    between atoms: C_7  and  O_46
REMARK    5  A    between atoms: C_8  and  O_11
REMARK    6  A    between atoms: O_11  and  C_12
REMARK    7  A    between atoms: C_14  and  O_45
REMARK    8  A    between atoms: C_19  and  C_37
REMARK    9  A    between atoms: C_20  and  O_23
REMARK   10  A    between atoms: O_23  and  C_24
REMARK   11  A    between atoms: C_26  and  O_36
REMARK   12  A    between atoms: C_27  and  O_35
REMARK   13  A    between atoms: C_28  and  O_34
REMARK   14  A    between atoms: C_30  and  C_32
REMARK   15  A    between atoms: C_32  and  O_33
REMARK   16  A    between atoms: C_39  and  O_44
REMARK   17  A    between atoms: C_40  and  O_43
REMARK                            x       y       z     vdW  Elec       q    Type
REMARK                         _______ _______ _______ _____ _____    ______ ____
ROOT
ATOM      1  C   UNL     1       5.077  -5.200  25.161  0.00  0.00    +0.131 A 
ATOM      2  C   UNL     1       5.791  -4.250  24.420  0.00  0.00    +0.093 A 
ATOM      3  C   UNL     1       5.981  -2.958  24.928  0.00  0.00    +0.147 A 
ATOM      4  O   UNL     1       6.660  -2.035  24.167  0.00  0.00    -0.451 OA
ATOM      5  C   UNL     1       7.031  -0.809  24.745  0.00  0.00    +0.181 A 
ATOM      6  C   UNL     1       6.534  -0.354  25.927  0.00  0.00    +0.214 A 
ATOM      7  C   UNL     1       5.458  -1.204  26.523  0.00  0.00    +0.238 A 
ATOM      8  O   UNL     1       4.534  -0.754  27.189  0.00  0.00    -0.283 OA
ATOM      9  C   UNL     1       5.448  -2.621  26.169  0.00  0.00    +0.109 A 
ATOM     10  C   UNL     1       4.805  -3.590  26.944  0.00  0.00    +0.135 A 
ATOM     11  C   UNL     1       4.619  -4.871  26.442  0.00  0.00    +0.092 A 
ENDROOT
BRANCH   5  12
ATOM     12  C   UNL     1       7.972  -0.034  23.871  0.00  0.00    +0.025 A 
ATOM     13  C   UNL     1       7.675   0.189  22.509  0.00  0.00    +0.015 A 
ATOM     14  C   UNL     1       8.510   0.976  21.700  0.00  0.00    +0.050 A 
ATOM     15  C   UNL     1       9.650   1.540  22.241  0.00  0.00    +0.158 A 
ATOM     16  C   UNL     1       9.966   1.333  23.576  0.00  0.00    +0.159 A 
ATOM     17  C   UNL     1       9.131   0.576  24.390  0.00  0.00    +0.060 A 
BRANCH  15  18
ATOM     18  O   UNL     1      10.454   2.318  21.458  0.00  0.00    -0.503 OA
ATOM     19  H   UNL     1       9.852   2.705  20.792  0.00  0.00    +0.292 HD
ENDBRANCH  15  18
BRANCH  16  20
ATOM     20  O   UNL     1      11.112   1.917  24.050  0.00  0.00    -0.503 OA
ATOM     21  H   UNL     1      11.795   1.231  24.128  0.00  0.00    +0.292 HD
ENDBRANCH  16  20
ENDBRANCH   5  12
BRANCH  10  22
ATOM     22  O   UNL     1       4.380  -3.300  28.210  0.00  0.00    -0.506 OA
ATOM     23  H   UNL     1       3.647  -2.660  28.175  0.00  0.00    +0.292 HD
ENDBRANCH  10  22
BRANCH   6  24
ATOM     24  O   UNL     1       6.992   0.838  26.526  0.00  0.00    -0.453 OA
BRANCH  24  25
ATOM     25  C   UNL     1       6.082   1.954  26.593  0.00  0.00    +0.340 C 
ATOM     26  O   UNL     1       5.519   2.235  25.306  0.00  0.00    -0.331 OA
ATOM     27  C   UNL     1       6.351   2.997  24.418  0.00  0.00    +0.179 C 
ATOM     28  C   UNL     1       6.737   4.340  25.048  0.00  0.00    +0.177 C 
ATOM     29  C   UNL     1       7.538   4.065  26.318  0.00  0.00    +0.180 C 
ATOM     30  C   UNL     1       6.722   3.192  27.274  0.00  0.00    +0.214 C 
BRANCH  28  31
ATOM     31  O   UNL     1       5.572   5.096  25.407  0.00  0.00    -0.386 OA
ATOM     32  H   UNL     1       5.259   4.726  26.255  0.00  0.00    +0.210 HD
ENDBRANCH  28  31
BRANCH  29  33
ATOM     33  O   UNL     1       7.869   5.330  26.916  0.00  0.00    -0.386 OA
ATOM     34  H   UNL     1       7.095   5.917  26.820  0.00  0.00    +0.210 HD
ENDBRANCH  29  33
BRANCH  30  35
ATOM     35  O   UNL     1       7.509   2.853  28.425  0.00  0.00    -0.383 OA
ATOM     36  H   UNL     1       7.193   3.400  29.167  0.00  0.00    +0.210 HD
ENDBRANCH  30  35
BRANCH  27  37
ATOM     37  C   UNL     1       5.596   3.164  23.088  0.00  0.00    +0.190 C 
BRANCH  37  38
ATOM     38  O   UNL     1       5.932   4.365  22.405  0.00  0.00    -0.392 OA
ATOM     39  H   UNL     1       6.306   4.092  21.544  0.00  0.00    +0.210 HD
ENDBRANCH  37  38
ENDBRANCH  27  37
ENDBRANCH  24  25
ENDBRANCH   6  24
BRANCH   1  40
ATOM     40  O   UNL     1       4.732  -6.468  24.784  0.00  0.00    -0.461 OA
BRANCH  40  44
ATOM     41  C   UNL     1       1.020  -8.524  25.499  0.00  0.00    +0.041 C 
ATOM     42  C   UNL     1       1.814  -8.622  24.198  0.00  0.00    +0.150 C 
ATOM     43  O   UNL     1       3.173  -8.207  24.414  0.00  0.00    -0.334 OA
ATOM     44  C   UNL     1       3.349  -6.802  24.630  0.00  0.00    +0.339 C 
ATOM     45  C   UNL     1       2.852  -6.038  23.380  0.00  0.00    +0.214 C 
ATOM     46  C   UNL     1       1.360  -6.342  23.189  0.00  0.00    +0.180 C 
ATOM     47  C   UNL     1       1.141  -7.858  23.041  0.00  0.00    +0.174 C 
BRANCH  47  48
ATOM     48  O   UNL     1       1.664  -8.323  21.788  0.00  0.00    -0.387 OA
ATOM     49  H   UNL     1       2.536  -7.885  21.664  0.00  0.00    +0.210 HD
ENDBRANCH  47  48
BRANCH  46  50
ATOM     50  O   UNL     1       0.822  -5.607  22.086  0.00  0.00    -0.386 OA
ATOM     51  H   UNL     1       0.056  -5.097  22.408  0.00  0.00    +0.210 HD
ENDBRANCH  46  50
BRANCH  45  52
ATOM     52  O   UNL     1       3.591  -6.487  22.217  0.00  0.00    -0.383 OA
ATOM     53  H   UNL     1       3.500  -7.460  22.193  0.00  0.00    +0.210 HD
ENDBRANCH  45  52
ENDBRANCH  40  44
ENDBRANCH   1  40
TORSDOF 16
ENDMDL
MODEL 5
REMARK VINA RESULT:      -6.8      1.807      2.802
REMARK  Name = 
REMARK  17 active torsions:
REMARK  status: ('A' for Active; 'I' for Inactive)
REMARK    1  A    between atoms: C_1  and  C_2
REMARK    2  A    between atoms: C_3  and  O_48
REMARK    3  A    between atoms: C_5  and  O_47
REMARK    4  A    between atoms: C_7  and  O_46
REMARK    5  A    between atoms: C_8  and  O_11
REMARK    6  A    between atoms: O_11  and  C_12
REMARK    7  A    between atoms: C_14  and  O_45
REMARK    8  A    between atoms: C_19  and  C_37
REMARK    9  A    between atoms: C_20  and  O_23
REMARK   10  A    between atoms: O_23  and  C_24
REMARK   11  A    between atoms: C_26  and  O_36
REMARK   12  A    between atoms: C_27  and  O_35
REMARK   13  A    between atoms: C_28  and  O_34
REMARK   14  A    between atoms: C_30  and  C_32
REMARK   15  A    between atoms: C_32  and  O_33
REMARK   16  A    between atoms: C_39  and  O_44
REMARK   17  A    between atoms: C_40  and  O_43
REMARK                            x       y       z     vdW  Elec       q    Type
REMARK                         _______ _______ _______ _____ _____    ______ ____
ROOT
ATOM      1  C   UNL     1       6.668  -3.812  23.896  0.00  0.00    +0.131 A 
ATOM      2  C   UNL     1       6.370  -2.899  24.916  0.00  0.00    +0.093 A 
ATOM      3  C   UNL     1       7.008  -1.652  24.955  0.00  0.00    +0.147 A 
ATOM      4  O   UNL     1       6.720  -0.786  25.984  0.00  0.00    -0.451 OA
ATOM      5  C   UNL     1       7.195   0.535  25.922  0.00  0.00    +0.181 A 
ATOM      6  C   UNL     1       8.149   0.951  25.046  0.00  0.00    +0.214 A 
ATOM      7  C   UNL     1       8.755  -0.137  24.217  0.00  0.00    +0.238 A 
ATOM      8  O   UNL     1       9.918  -0.123  23.835  0.00  0.00    -0.283 OA
ATOM      9  C   UNL     1       7.947  -1.329  23.980  0.00  0.00    +0.109 A 
ATOM     10  C   UNL     1       8.186  -2.206  22.917  0.00  0.00    +0.135 A 
ATOM     11  C   UNL     1       7.552  -3.439  22.877  0.00  0.00    +0.092 A 
ENDROOT
BRANCH   5  12
ATOM     12  C   UNL     1       6.586   1.404  26.983  0.00  0.00    +0.025 A 
ATOM     13  C   UNL     1       5.298   1.956  26.814  0.00  0.00    +0.015 A 
ATOM     14  C   UNL     1       4.687   2.708  27.830  0.00  0.00    +0.050 A 
ATOM     15  C   UNL     1       5.360   2.922  29.018  0.00  0.00    +0.158 A 
ATOM     16  C   UNL     1       6.628   2.392  29.208  0.00  0.00    +0.159 A 
ATOM     17  C   UNL     1       7.229   1.625  28.216  0.00  0.00    +0.060 A 
BRANCH  15  18
ATOM     18  O   UNL     1       4.760   3.640  30.013  0.00  0.00    -0.503 OA
ATOM     19  H   UNL     1       4.608   4.524  29.623  0.00  0.00    +0.292 HD
ENDBRANCH  15  18
BRANCH  16  20
ATOM     20  O   UNL     1       7.242   2.644  30.408  0.00  0.00    -0.503 OA
ATOM     21  H   UNL     1       6.926   1.991  31.055  0.00  0.00    +0.292 HD
ENDBRANCH  16  20
ENDBRANCH   5  12
BRANCH  10  22
ATOM     22  O   UNL     1       9.020  -1.848  21.894  0.00  0.00    -0.506 OA
ATOM     23  H   UNL     1       9.245  -2.631  21.361  0.00  0.00    +0.292 HD
ENDBRANCH  10  22
BRANCH   6  24
ATOM     24  O   UNL     1       8.542   2.301  24.948  0.00  0.00    -0.453 OA
BRANCH  24  25
ATOM     25  C   UNL     1       8.563   2.908  23.641  0.00  0.00    +0.340 C 
ATOM     26  O   UNL     1       9.650   3.833  23.523  0.00  0.00    -0.331 OA
ATOM     27  C   UNL     1       9.425   5.131  24.095  0.00  0.00    +0.179 C 
ATOM     28  C   UNL     1       8.192   5.796  23.473  0.00  0.00    +0.177 C 
ATOM     29  C   UNL     1       6.972   4.933  23.781  0.00  0.00    +0.180 C 
ATOM     30  C   UNL     1       7.188   3.512  23.253  0.00  0.00    +0.214 C 
BRANCH  28  31
ATOM     31  O   UNL     1       8.324   5.899  22.049  0.00  0.00    -0.386 OA
ATOM     32  H   UNL     1       9.087   5.342  21.806  0.00  0.00    +0.210 HD
ENDBRANCH  28  31
BRANCH  29  33
ATOM     33  O   UNL     1       5.826   5.551  23.168  0.00  0.00    -0.386 OA
ATOM     34  H   UNL     1       6.136   6.341  22.686  0.00  0.00    +0.210 HD
ENDBRANCH  29  33
BRANCH  30  35
ATOM     35  O   UNL     1       6.084   2.676  23.624  0.00  0.00    -0.383 OA
ATOM     36  H   UNL     1       6.191   1.825  23.160  0.00  0.00    +0.210 HD
ENDBRANCH  30  35
BRANCH  27  37
ATOM     37  C   UNL     1      10.705   5.962  23.902  0.00  0.00    +0.190 C 
BRANCH  37  38
ATOM     38  O   UNL     1      11.416   5.620  22.720  0.00  0.00    -0.392 OA
ATOM     39  H   UNL     1      12.116   6.296  22.619  0.00  0.00    +0.210 HD
ENDBRANCH  37  38
ENDBRANCH  27  37
ENDBRANCH  24  25
ENDBRANCH   6  24
BRANCH   1  40
ATOM     40  O   UNL     1       6.203  -5.090  23.755  0.00  0.00    -0.461 OA
BRANCH  40  44
ATOM     41  C   UNL     1       3.359  -6.475  26.672  0.00  0.00    +0.041 C 
ATOM     42  C   UNL     1       3.676  -7.210  25.372  0.00  0.00    +0.150 C 
ATOM     43  O   UNL     1       4.935  -6.763  24.843  0.00  0.00    -0.334 OA
ATOM     44  C   UNL     1       4.927  -5.436  24.305  0.00  0.00    +0.339 C 
ATOM     45  C   UNL     1       3.917  -5.377  23.135  0.00  0.00    +0.214 C 
ATOM     46  C   UNL     1       2.523  -5.713  23.683  0.00  0.00    +0.180 C 
ATOM     47  C   UNL     1       2.533  -7.104  24.343  0.00  0.00    +0.174 C 
BRANCH  47  48
ATOM     48  O   UNL     1       2.679  -8.130  23.352  0.00  0.00    -0.387 OA
ATOM     49  H   UNL     1       3.578  -8.029  22.967  0.00  0.00    +0.210 HD
ENDBRANCH  47  48
BRANCH  46  50
ATOM     50  O   UNL     1       1.529  -5.607  22.660  0.00  0.00    -0.386 OA
ATOM     51  H   UNL     1       0.768  -6.159  22.920  0.00  0.00    +0.210 HD
ENDBRANCH  46  50
BRANCH  45  52
ATOM     52  O   UNL     1       4.290  -6.350  22.128  0.00  0.00    -0.383 OA
ATOM     53  H   UNL     1       3.583  -6.331  21.453  0.00  0.00    +0.210 HD
ENDBRANCH  45  52
ENDBRANCH  40  44
ENDBRANCH   1  40
TORSDOF 16
ENDMDL
MODEL 6
REMARK VINA RESULT:      -6.8      2.412      3.789
REMARK  Name = 
REMARK  17 active torsions:
REMARK  status: ('A' for Active; 'I' for Inactive)
REMARK    1  A    between atoms: C_1  and  C_2
REMARK    2  A    between atoms: C_3  and  O_48
REMARK    3  A    between atoms: C_5  and  O_47
REMARK    4  A    between atoms: C_7  and  O_46
REMARK    5  A    between atoms: C_8  and  O_11
REMARK    6  A    between atoms: O_11  and  C_12
REMARK    7  A    between atoms: C_14  and  O_45
REMARK    8  A    between atoms: C_19  and  C_37
REMARK    9  A    between atoms: C_20  and  O_23
REMARK   10  A    between atoms: O_23  and  C_24
REMARK   11  A    between atoms: C_26  and  O_36
REMARK   12  A    between atoms: C_27  and  O_35
REMARK   13  A    between atoms: C_28  and  O_34
REMARK   14  A    between atoms: C_30  and  C_32
REMARK   15  A    between atoms: C_32  and  O_33
REMARK   16  A    between atoms: C_39  and  O_44
REMARK   17  A    between atoms: C_40  and  O_43
REMARK                            x       y       z     vdW  Elec       q    Type
REMARK                         _______ _______ _______ _____ _____    ______ ____
ROOT
ATOM      1  C   UNL     1       6.788  -3.490  23.440  0.00  0.00    +0.131 A 
ATOM      2  C   UNL     1       6.183  -2.390  24.063  0.00  0.00    +0.093 A 
ATOM      3  C   UNL     1       6.772  -1.121  23.981  0.00  0.00    +0.147 A 
ATOM      4  O   UNL     1       6.174  -0.065  24.627  0.00  0.00    -0.451 OA
ATOM      5  C   UNL     1       6.638   1.239  24.385  0.00  0.00    +0.181 A 
ATOM      6  C   UNL     1       7.815   1.514  23.760  0.00  0.00    +0.214 A 
ATOM      7  C   UNL     1       8.654   0.317  23.449  0.00  0.00    +0.238 A 
ATOM      8  O   UNL     1       9.878   0.335  23.442  0.00  0.00    -0.283 OA
ATOM      9  C   UNL     1       7.965  -0.960  23.284  0.00  0.00    +0.109 A 
ATOM     10  C   UNL     1       8.528  -2.039  22.594  0.00  0.00    +0.135 A 
ATOM     11  C   UNL     1       7.943  -3.295  22.674  0.00  0.00    +0.092 A 
ENDROOT
BRANCH   5  12
ATOM     12  C   UNL     1       5.725   2.280  24.963  0.00  0.00    +0.025 A 
ATOM     13  C   UNL     1       4.835   3.000  24.138  0.00  0.00    +0.015 A 
ATOM     14  C   UNL     1       3.924   3.923  24.677  0.00  0.00    +0.050 A 
ATOM     15  C   UNL     1       3.900   4.139  26.042  0.00  0.00    +0.158 A 
ATOM     16  C   UNL     1       4.767   3.446  26.874  0.00  0.00    +0.159 A 
ATOM     17  C   UNL     1       5.654   2.513  26.351  0.00  0.00    +0.060 A 
BRANCH  15  18
ATOM     18  O   UNL     1       3.004   5.024  26.569  0.00  0.00    -0.503 OA
ATOM     19  H   UNL     1       2.248   4.472  26.854  0.00  0.00    +0.292 HD
ENDBRANCH  15  18
BRANCH  16  20
ATOM     20  O   UNL     1       4.694   3.709  28.218  0.00  0.00    -0.503 OA
ATOM     21  H   UNL     1       5.567   4.013  28.518  0.00  0.00    +0.292 HD
ENDBRANCH  16  20
ENDBRANCH   5  12
BRANCH  10  22
ATOM     22  O   UNL     1       9.636  -1.865  21.814  0.00  0.00    -0.506 OA
ATOM     23  H   UNL     1      10.359  -2.433  22.133  0.00  0.00    +0.292 HD
ENDBRANCH  10  22
BRANCH   6  24
ATOM     24  O   UNL     1       8.212   2.832  23.453  0.00  0.00    -0.453 OA
BRANCH  24  25
ATOM     25  C   UNL     1       9.068   3.517  24.388  0.00  0.00    +0.340 C 
ATOM     26  O   UNL     1       8.361   4.569  25.055  0.00  0.00    -0.331 OA
ATOM     27  C   UNL     1       8.230   5.793  24.316  0.00  0.00    +0.179 C 
ATOM     28  C   UNL     1       9.606   6.346  23.925  0.00  0.00    +0.177 C 
ATOM     29  C   UNL     1      10.295   5.327  23.021  0.00  0.00    +0.180 C 
ATOM     30  C   UNL     1      10.399   3.978  23.737  0.00  0.00    +0.214 C 
BRANCH  28  31
ATOM     31  O   UNL     1      10.428   6.551  25.081  0.00  0.00    -0.386 OA
ATOM     32  H   UNL     1      11.288   6.871  24.749  0.00  0.00    +0.210 HD
ENDBRANCH  28  31
BRANCH  29  33
ATOM     33  O   UNL     1      11.596   5.842  22.684  0.00  0.00    -0.386 OA
ATOM     34  H   UNL     1      11.888   5.400  21.864  0.00  0.00    +0.210 HD
ENDBRANCH  29  33
BRANCH  30  35
ATOM     35  O   UNL     1      10.960   2.995  22.855  0.00  0.00    -0.383 OA
ATOM     36  H   UNL     1      11.813   2.715  23.233  0.00  0.00    +0.210 HD
ENDBRANCH  30  35
BRANCH  27  37
ATOM     37  C   UNL     1       7.420   6.780  25.173  0.00  0.00    +0.190 C 
BRANCH  37  38
ATOM     38  O   UNL     1       6.858   6.177  26.332  0.00  0.00    -0.392 OA
ATOM     39  H   UNL     1       6.381   5.381  26.020  0.00  0.00    +0.210 HD
ENDBRANCH  37  38
ENDBRANCH  27  37
ENDBRANCH  24  25
ENDBRANCH   6  24
BRANCH   1  40
ATOM     40  O   UNL     1       6.396  -4.798  23.488  0.00  0.00    -0.461 OA
BRANCH  40  44
ATOM     41  C   UNL     1       3.852  -5.951  26.761  0.00  0.00    +0.041 C 
ATOM     42  C   UNL     1       4.131  -6.832  25.545  0.00  0.00    +0.150 C 
ATOM     43  O   UNL     1       5.319  -6.385  24.872  0.00  0.00    -0.334 OA
ATOM     44  C   UNL     1       5.186  -5.143  24.171  0.00  0.00    +0.339 C 
ATOM     45  C   UNL     1       4.098  -5.297  23.082  0.00  0.00    +0.214 C 
ATOM     46  C   UNL     1       2.770  -5.640  23.771  0.00  0.00    +0.180 C 
ATOM     47  C   UNL     1       2.918  -6.928  24.600  0.00  0.00    +0.174 C 
BRANCH  47  48
ATOM     48  O   UNL     1       3.067  -8.066  23.739  0.00  0.00    -0.387 OA
ATOM     49  H   UNL     1       3.629  -8.715  24.218  0.00  0.00    +0.210 HD
ENDBRANCH  47  48
BRANCH  46  50
ATOM     50  O   UNL     1       1.706  -5.727  22.820  0.00  0.00    -0.386 OA
ATOM     51  H   UNL     1       1.193  -6.533  23.014  0.00  0.00    +0.210 HD
ENDBRANCH  46  50
BRANCH  45  52
ATOM     52  O   UNL     1       4.469  -6.371  22.182  0.00  0.00    -0.383 OA
ATOM     53  H   UNL     1       5.258  -6.060  21.695  0.00  0.00    +0.210 HD
ENDBRANCH  45  52
ENDBRANCH  40  44
ENDBRANCH   1  40
TORSDOF 16
ENDMDL
MODEL 7
REMARK VINA RESULT:      -6.8      2.564      9.146
REMARK  Name = 
REMARK  17 active torsions:
REMARK  status: ('A' for Active; 'I' for Inactive)
REMARK    1  A    between atoms: C_1  and  C_2
REMARK    2  A    between atoms: C_3  and  O_48
REMARK    3  A    between atoms: C_5  and  O_47
REMARK    4  A    between atoms: C_7  and  O_46
REMARK    5  A    between atoms: C_8  and  O_11
REMARK    6  A    between atoms: O_11  and  C_12
REMARK    7  A    between atoms: C_14  and  O_45
REMARK    8  A    between atoms: C_19  and  C_37
REMARK    9  A    between atoms: C_20  and  O_23
REMARK   10  A    between atoms: O_23  and  C_24
REMARK   11  A    between atoms: C_26  and  O_36
REMARK   12  A    between atoms: C_27  and  O_35
REMARK   13  A    between atoms: C_28  and  O_34
REMARK   14  A    between atoms: C_30  and  C_32
REMARK   15  A    between atoms: C_32  and  O_33
REMARK   16  A    between atoms: C_39  and  O_44
REMARK   17  A    between atoms: C_40  and  O_43
REMARK                            x       y       z     vdW  Elec       q    Type
REMARK                         _______ _______ _______ _____ _____    ______ ____
ROOT
ATOM      1  C   UNL     1       7.806  -1.290  23.260  0.00  0.00    +0.131 A 
ATOM      2  C   UNL     1       6.773  -1.089  24.185  0.00  0.00    +0.093 A 
ATOM      3  C   UNL     1       5.737  -2.026  24.300  0.00  0.00    +0.147 A 
ATOM      4  O   UNL     1       4.719  -1.790  25.194  0.00  0.00    -0.451 OA
ATOM      5  C   UNL     1       3.791  -2.810  25.462  0.00  0.00    +0.181 A 
ATOM      6  C   UNL     1       3.664  -3.930  24.700  0.00  0.00    +0.214 A 
ATOM      7  C   UNL     1       4.511  -3.949  23.468  0.00  0.00    +0.238 A 
ATOM      8  O   UNL     1       4.174  -4.497  22.426  0.00  0.00    -0.283 OA
ATOM      9  C   UNL     1       5.735  -3.152  23.483  0.00  0.00    +0.109 A 
ATOM     10  C   UNL     1       6.805  -3.394  22.616  0.00  0.00    +0.135 A 
ATOM     11  C   UNL     1       7.832  -2.468  22.505  0.00  0.00    +0.092 A 
ENDROOT
BRANCH   5  12
ATOM     12  C   UNL     1       2.911  -2.481  26.632  0.00  0.00    +0.025 A 
ATOM     13  C   UNL     1       1.510  -2.634  26.548  0.00  0.00    +0.015 A 
ATOM     14  C   UNL     1       0.683  -2.402  27.658  0.00  0.00    +0.050 A 
ATOM     15  C   UNL     1       1.246  -2.007  28.857  0.00  0.00    +0.158 A 
ATOM     16  C   UNL     1       2.620  -1.846  28.964  0.00  0.00    +0.159 A 
ATOM     17  C   UNL     1       3.447  -2.099  27.877  0.00  0.00    +0.060 A 
BRANCH  15  18
ATOM     18  O   UNL     1       0.444  -1.796  29.942  0.00  0.00    -0.503 OA
ATOM     19  H   UNL     1       0.619  -0.870  30.203  0.00  0.00    +0.292 HD
ENDBRANCH  15  18
BRANCH  16  20
ATOM     20  O   UNL     1       3.115  -1.450  30.180  0.00  0.00    -0.503 OA
ATOM     21  H   UNL     1       3.280  -0.493  30.146  0.00  0.00    +0.292 HD
ENDBRANCH  16  20
ENDBRANCH   5  12
BRANCH  10  22
ATOM     22  O   UNL     1       6.869  -4.554  21.895  0.00  0.00    -0.506 OA
ATOM     23  H   UNL     1       6.056  -4.661  21.369  0.00  0.00    +0.292 HD
ENDBRANCH  10  22
BRANCH   6  24
ATOM     24  O   UNL     1       2.785  -4.977  25.044  0.00  0.00    -0.453 OA
BRANCH  24  25
ATOM     25  C   UNL     1       3.314  -6.317  25.095  0.00  0.00    +0.340 C 
ATOM     26  O   UNL     1       2.814  -7.107  24.010  0.00  0.00    -0.331 OA
ATOM     27  C   UNL     1       1.495  -7.646  24.192  0.00  0.00    +0.179 C 
ATOM     28  C   UNL     1       1.428  -8.514  25.454  0.00  0.00    +0.177 C 
ATOM     29  C   UNL     1       1.742  -7.633  26.661  0.00  0.00    +0.180 C 
ATOM     30  C   UNL     1       3.113  -6.974  26.486  0.00  0.00    +0.214 C 
BRANCH  28  31
ATOM     31  O   UNL     1       2.394  -9.572  25.406  0.00  0.00    -0.386 OA
ATOM     32  H   UNL     1       2.587  -9.721  24.461  0.00  0.00    +0.210 HD
ENDBRANCH  28  31
BRANCH  29  33
ATOM     33  O   UNL     1       1.706  -8.462  27.836  0.00  0.00    -0.386 OA
ATOM     34  H   UNL     1       2.589  -8.429  28.251  0.00  0.00    +0.210 HD
ENDBRANCH  29  33
BRANCH  30  35
ATOM     35  O   UNL     1       3.368  -6.073  27.573  0.00  0.00    -0.383 OA
ATOM     36  H   UNL     1       4.101  -6.445  28.097  0.00  0.00    +0.210 HD
ENDBRANCH  30  35
BRANCH  27  37
ATOM     37  C   UNL     1       1.124  -8.426  22.919  0.00  0.00    +0.190 C 
BRANCH  37  38
ATOM     38  O   UNL     1       1.892  -8.041  21.787  0.00  0.00    -0.392 OA
ATOM     39  H   UNL     1       1.942  -7.064  21.812  0.00  0.00    +0.210 HD
ENDBRANCH  37  38
ENDBRANCH  27  37
ENDBRANCH  24  25
ENDBRANCH   6  24
BRANCH   1  40
ATOM     40  O   UNL     1       8.839  -0.446  22.965  0.00  0.00    -0.461 OA
BRANCH  40  44
ATOM     41  C   UNL     1       7.783   2.700  25.705  0.00  0.00    +0.041 C 
ATOM     42  C   UNL     1       7.696   2.825  24.186  0.00  0.00    +0.150 C 
ATOM     43  O   UNL     1       7.681   1.523  23.580  0.00  0.00    -0.334 OA
ATOM     44  C   UNL     1       8.926   0.817  23.634  0.00  0.00    +0.339 C 
ATOM     45  C   UNL     1       9.999   1.638  22.879  0.00  0.00    +0.214 C 
ATOM     46  C   UNL     1      10.150   2.995  23.579  0.00  0.00    +0.180 C 
ATOM     47  C   UNL     1       8.800   3.733  23.608  0.00  0.00    +0.174 C 
BRANCH  47  48
ATOM     48  O   UNL     1       8.431   4.159  22.288  0.00  0.00    -0.387 OA
ATOM     49  H   UNL     1       7.589   4.659  22.375  0.00  0.00    +0.210 HD
ENDBRANCH  47  48
BRANCH  46  50
ATOM     50  O   UNL     1      11.181   3.777  22.969  0.00  0.00    -0.386 OA
ATOM     51  H   UNL     1      11.667   3.202  22.348  0.00  0.00    +0.210 HD
ENDBRANCH  46  50
BRANCH  45  52
ATOM     52  O   UNL     1       9.571   1.844  21.510  0.00  0.00    -0.383 OA
ATOM     53  H   UNL     1       9.288   2.778  21.448  0.00  0.00    +0.210 HD
ENDBRANCH  45  52
ENDBRANCH  40  44
ENDBRANCH   1  40
TORSDOF 16
ENDMDL
MODEL 8
REMARK VINA RESULT:      -6.7      2.840     10.102
REMARK  Name = 
REMARK  17 active torsions:
REMARK  status: ('A' for Active; 'I' for Inactive)
REMARK    1  A    between atoms: C_1  and  C_2
REMARK    2  A    between atoms: C_3  and  O_48
REMARK    3  A    between atoms: C_5  and  O_47
REMARK    4  A    between atoms: C_7  and  O_46
REMARK    5  A    between atoms: C_8  and  O_11
REMARK    6  A    between atoms: O_11  and  C_12
REMARK    7  A    between atoms: C_14  and  O_45
REMARK    8  A    between atoms: C_19  and  C_37
REMARK    9  A    between atoms: C_20  and  O_23
REMARK   10  A    between atoms: O_23  and  C_24
REMARK   11  A    between atoms: C_26  and  O_36
REMARK   12  A    between atoms: C_27  and  O_35
REMARK   13  A    between atoms: C_28  and  O_34
REMARK   14  A    between atoms: C_30  and  C_32
REMARK   15  A    between atoms: C_32  and  O_33
REMARK   16  A    between atoms: C_39  and  O_44
REMARK   17  A    between atoms: C_40  and  O_43
REMARK                            x       y       z     vdW  Elec       q    Type
REMARK                         _______ _______ _______ _____ _____    ______ ____
ROOT
ATOM      1  C   UNL     1       5.736   2.764  24.760  0.00  0.00    +0.131 A 
ATOM      2  C   UNL     1       5.975   1.504  24.196  0.00  0.00    +0.093 A 
ATOM      3  C   UNL     1       5.555   0.343  24.860  0.00  0.00    +0.147 A 
ATOM      4  O   UNL     1       5.828  -0.882  24.299  0.00  0.00    -0.451 OA
ATOM      5  C   UNL     1       5.239  -2.035  24.847  0.00  0.00    +0.181 A 
ATOM      6  C   UNL     1       4.626  -2.060  26.061  0.00  0.00    +0.214 A 
ATOM      7  C   UNL     1       4.727  -0.788  26.841  0.00  0.00    +0.238 A 
ATOM      8  O   UNL     1       4.781  -0.750  28.064  0.00  0.00    -0.283 OA
ATOM      9  C   UNL     1       4.907   0.449  26.087  0.00  0.00    +0.109 A 
ATOM     10  C   UNL     1       4.598   1.707  26.612  0.00  0.00    +0.135 A 
ATOM     11  C   UNL     1       5.011   2.856  25.954  0.00  0.00    +0.092 A 
ENDROOT
BRANCH   5  12
ATOM     12  C   UNL     1       5.435  -3.239  23.974  0.00  0.00    +0.025 A 
ATOM     13  C   UNL     1       6.717  -3.578  23.489  0.00  0.00    +0.015 A 
ATOM     14  C   UNL     1       6.926  -4.744  22.735  0.00  0.00    +0.050 A 
ATOM     15  C   UNL     1       5.859  -5.575  22.453  0.00  0.00    +0.158 A 
ATOM     16  C   UNL     1       4.589  -5.262  22.917  0.00  0.00    +0.159 A 
ATOM     17  C   UNL     1       4.378  -4.123  23.685  0.00  0.00    +0.060 A 
BRANCH  15  18
ATOM     18  O   UNL     1       6.064  -6.717  21.733  0.00  0.00    -0.503 OA
ATOM     19  H   UNL     1       6.448  -7.348  22.374  0.00  0.00    +0.292 HD
ENDBRANCH  15  18
BRANCH  16  20
ATOM     20  O   UNL     1       3.572  -6.126  22.600  0.00  0.00    -0.503 OA
ATOM     21  H   UNL     1       2.738  -5.751  22.929  0.00  0.00    +0.292 HD
ENDBRANCH  16  20
ENDBRANCH   5  12
BRANCH  10  22
ATOM     22  O   UNL     1       3.861   1.820  27.758  0.00  0.00    -0.506 OA
ATOM     23  H   UNL     1       3.419   2.688  27.784  0.00  0.00    +0.292 HD
ENDBRANCH  10  22
BRANCH   6  24
ATOM     24  O   UNL     1       3.967  -3.209  26.546  0.00  0.00    -0.453 OA
BRANCH  24  25
ATOM     25  C   UNL     1       4.563  -3.917  27.650  0.00  0.00    +0.340 C 
ATOM     26  O   UNL     1       5.893  -4.342  27.329  0.00  0.00    -0.331 OA
ATOM     27  C   UNL     1       5.987  -5.540  26.542  0.00  0.00    +0.179 C 
ATOM     28  C   UNL     1       5.292  -6.712  27.245  0.00  0.00    +0.177 C 
ATOM     29  C   UNL     1       3.812  -6.371  27.400  0.00  0.00    +0.180 C 
ATOM     30  C   UNL     1       3.655  -5.060  28.174  0.00  0.00    +0.214 C 
BRANCH  28  31
ATOM     31  O   UNL     1       5.842  -6.932  28.550  0.00  0.00    -0.386 OA
ATOM     32  H   UNL     1       5.977  -7.895  28.629  0.00  0.00    +0.210 HD
ENDBRANCH  28  31
BRANCH  29  33
ATOM     33  O   UNL     1       3.176  -7.464  28.086  0.00  0.00    -0.386 OA
ATOM     34  H   UNL     1       2.400  -7.735  27.559  0.00  0.00    +0.210 HD
ENDBRANCH  29  33
BRANCH  30  35
ATOM     35  O   UNL     1       2.270  -4.690  28.238  0.00  0.00    -0.383 OA
ATOM     36  H   UNL     1       2.062  -4.192  27.426  0.00  0.00    +0.210 HD
ENDBRANCH  30  35
BRANCH  27  37
ATOM     37  C   UNL     1       7.477  -5.812  26.273  0.00  0.00    +0.190 C 
BRANCH  37  38
ATOM     38  O   UNL     1       8.284  -5.687  27.436  0.00  0.00    -0.392 OA
ATOM     39  H   UNL     1       7.668  -5.679  28.195  0.00  0.00    +0.210 HD
ENDBRANCH  37  38
ENDBRANCH  27  37
ENDBRANCH  24  25
ENDBRANCH   6  24
BRANCH   1  40
ATOM     40  O   UNL     1       6.145   3.981  24.292  0.00  0.00    -0.461 OA
BRANCH  40  44
ATOM     41  C   UNL     1       9.075   6.404  26.308  0.00  0.00    +0.041 C 
ATOM     42  C   UNL     1       8.803   6.465  24.806  0.00  0.00    +0.150 C 
ATOM     43  O   UNL     1       7.518   5.894  24.512  0.00  0.00    -0.334 OA
ATOM     44  C   UNL     1       7.441   4.472  24.653  0.00  0.00    +0.339 C 
ATOM     45  C   UNL     1       8.444   3.817  23.674  0.00  0.00    +0.214 C 
ATOM     46  C   UNL     1       9.857   4.292  24.041  0.00  0.00    +0.180 C 
ATOM     47  C   UNL     1       9.936   5.827  23.978  0.00  0.00    +0.174 C 
BRANCH  47  48
ATOM     48  O   UNL     1       9.853   6.280  22.619  0.00  0.00    -0.387 OA
ATOM     49  H   UNL     1      10.685   6.767  22.429  0.00  0.00    +0.210 HD
ENDBRANCH  47  48
BRANCH  46  50
ATOM     50  O   UNL     1      10.841   3.665  23.213  0.00  0.00    -0.386 OA
ATOM     51  H   UNL     1      11.184   2.886  23.690  0.00  0.00    +0.210 HD
ENDBRANCH  46  50
BRANCH  45  52
ATOM     52  O   UNL     1       8.131   4.228  22.320  0.00  0.00    -0.383 OA
ATOM     53  H   UNL     1       8.851   3.883  21.755  0.00  0.00    +0.210 HD
ENDBRANCH  45  52
ENDBRANCH  40  44
ENDBRANCH   1  40
TORSDOF 16
ENDMDL
MODEL 9
REMARK VINA RESULT:      -6.6      2.690      9.168
REMARK  Name = 
REMARK  17 active torsions:
REMARK  status: ('A' for Active; 'I' for Inactive)
REMARK    1  A    between atoms: C_1  and  C_2
REMARK    2  A    between atoms: C_3  and  O_48
REMARK    3  A    between atoms: C_5  and  O_47
REMARK    4  A    between atoms: C_7  and  O_46
REMARK    5  A    between atoms: C_8  and  O_11
REMARK    6  A    between atoms: O_11  and  C_12
REMARK    7  A    between atoms: C_14  and  O_45
REMARK    8  A    between atoms: C_19  and  C_37
REMARK    9  A    between atoms: C_20  and  O_23
REMARK   10  A    between atoms: O_23  and  C_24
REMARK   11  A    between atoms: C_26  and  O_36
REMARK   12  A    between atoms: C_27  and  O_35
REMARK   13  A    between atoms: C_28  and  O_34
REMARK   14  A    between atoms: C_30  and  C_32
REMARK   15  A    between atoms: C_32  and  O_33
REMARK   16  A    between atoms: C_39  and  O_44
REMARK   17  A    between atoms: C_40  and  O_43
REMARK                            x       y       z     vdW  Elec       q    Type
REMARK                         _______ _______ _______ _____ _____    ______ ____
ROOT
ATOM      1  C   UNL     1       7.208   1.519  22.609  0.00  0.00    +0.131 A 
ATOM      2  C   UNL     1       6.229   1.190  23.555  0.00  0.00    +0.093 A 
ATOM      3  C   UNL     1       6.238  -0.069  24.171  0.00  0.00    +0.147 A 
ATOM      4  O   UNL     1       5.248  -0.377  25.074  0.00  0.00    -0.451 OA
ATOM      5  C   UNL     1       5.361  -1.548  25.843  0.00  0.00    +0.181 A 
ATOM      6  C   UNL     1       6.249  -2.543  25.572  0.00  0.00    +0.214 A 
ATOM      7  C   UNL     1       7.028  -2.360  24.308  0.00  0.00    +0.238 A 
ATOM      8  O   UNL     1       7.405  -3.291  23.608  0.00  0.00    -0.283 OA
ATOM      9  C   UNL     1       7.221  -0.993  23.831  0.00  0.00    +0.109 A 
ATOM     10  C   UNL     1       8.245  -0.638  22.947  0.00  0.00    +0.135 A 
ATOM     11  C   UNL     1       8.237   0.609  22.340  0.00  0.00    +0.092 A 
ENDROOT
BRANCH   5  12
ATOM     12  C   UNL     1       4.341  -1.603  26.941  0.00  0.00    +0.025 A 
ATOM     13  C   UNL     1       4.665  -1.188  28.251  0.00  0.00    +0.015 A 
ATOM     14  C   UNL     1       3.699  -1.164  29.269  0.00  0.00    +0.050 A 
ATOM     15  C   UNL     1       2.405  -1.561  28.991  0.00  0.00    +0.158 A 
ATOM     16  C   UNL     1       2.062  -1.976  27.713  0.00  0.00    +0.159 A 
ATOM     17  C   UNL     1       3.006  -1.979  26.693  0.00  0.00    +0.060 A 
BRANCH  15  18
ATOM     18  O   UNL     1       1.461  -1.523  29.977  0.00  0.00    -0.503 OA
ATOM     19  H   UNL     1       1.111  -2.435  30.020  0.00  0.00    +0.292 HD
ENDBRANCH  15  18
BRANCH  16  20
ATOM     20  O   UNL     1       0.762  -2.360  27.504  0.00  0.00    -0.503 OA
ATOM     21  H   UNL     1       0.550  -3.074  28.128  0.00  0.00    +0.292 HD
ENDBRANCH  16  20
ENDBRANCH   5  12
BRANCH  10  22
ATOM     22  O   UNL     1       9.277  -1.499  22.696  0.00  0.00    -0.506 OA
ATOM     23  H   UNL     1       9.533  -1.445  21.758  0.00  0.00    +0.292 HD
ENDBRANCH  10  22
BRANCH   6  24
ATOM     24  O   UNL     1       6.400  -3.665  26.412  0.00  0.00    -0.453 OA
BRANCH  24  25
ATOM     25  C   UNL     1       6.179  -4.971  25.845  0.00  0.00    +0.340 C 
ATOM     26  O   UNL     1       4.909  -5.035  25.186  0.00  0.00    -0.331 OA
ATOM     27  C   UNL     1       3.776  -5.242  26.042  0.00  0.00    +0.179 C 
ATOM     28  C   UNL     1       3.932  -6.533  26.854  0.00  0.00    +0.177 C 
ATOM     29  C   UNL     1       5.168  -6.398  27.740  0.00  0.00    +0.180 C 
ATOM     30  C   UNL     1       6.400  -6.105  26.880  0.00  0.00    +0.214 C 
BRANCH  28  31
ATOM     31  O   UNL     1       4.117  -7.665  25.994  0.00  0.00    -0.386 OA
ATOM     32  H   UNL     1       3.485  -7.554  25.259  0.00  0.00    +0.210 HD
ENDBRANCH  28  31
BRANCH  29  33
ATOM     33  O   UNL     1       5.322  -7.625  28.475  0.00  0.00    -0.386 OA
ATOM     34  H   UNL     1       5.895  -8.217  27.951  0.00  0.00    +0.210 HD
ENDBRANCH  29  33
BRANCH  30  35
ATOM     35  O   UNL     1       7.543  -5.884  27.718  0.00  0.00    -0.383 OA
ATOM     36  H   UNL     1       7.279  -5.255  28.414  0.00  0.00    +0.210 HD
ENDBRANCH  30  35
BRANCH  27  37
ATOM     37  C   UNL     1       2.513  -5.247  25.164  0.00  0.00    +0.190 C 
BRANCH  37  38
ATOM     38  O   UNL     1       2.687  -5.956  23.944  0.00  0.00    -0.392 OA
ATOM     39  H   UNL     1       1.806  -5.990  23.521  0.00  0.00    +0.210 HD
ENDBRANCH  37  38
ENDBRANCH  27  37
ENDBRANCH  24  25
ENDBRANCH   6  24
BRANCH   1  40
ATOM     40  O   UNL     1       7.299   2.660  21.861  0.00  0.00    -0.461 OA
BRANCH  40  44
ATOM     41  C   UNL     1       5.995   6.716  22.468  0.00  0.00    +0.041 C 
ATOM     42  C   UNL     1       7.443   6.316  22.192  0.00  0.00    +0.150 C 
ATOM     43  O   UNL     1       7.493   5.003  21.610  0.00  0.00    -0.334 OA
ATOM     44  C   UNL     1       7.175   3.932  22.506  0.00  0.00    +0.339 C 
ATOM     45  C   UNL     1       8.196   3.934  23.669  0.00  0.00    +0.214 C 
ATOM     46  C   UNL     1       8.081   5.272  24.411  0.00  0.00    +0.180 C 
ATOM     47  C   UNL     1       8.335   6.441  23.443  0.00  0.00    +0.174 C 
BRANCH  47  48
ATOM     48  O   UNL     1       9.714   6.479  23.050  0.00  0.00    -0.387 OA
ATOM     49  H   UNL     1       9.830   5.796  22.352  0.00  0.00    +0.210 HD
ENDBRANCH  47  48
BRANCH  46  50
ATOM     50  O   UNL     1       8.954   5.308  25.544  0.00  0.00    -0.386 OA
ATOM     51  H   UNL     1       8.980   4.414  25.933  0.00  0.00    +0.210 HD
ENDBRANCH  46  50
BRANCH  45  52
ATOM     52  O   UNL     1       9.535   3.791  23.132  0.00  0.00    -0.383 OA
ATOM     53  H   UNL     1       9.925   4.687  23.125  0.00  0.00    +0.210 HD
ENDBRANCH  45  52
ENDBRANCH  40  44
ENDBRANCH   1  40
TORSDOF 16
ENDMDL
