MODEL 1
REMARK VINA RESULT:      -7.4      0.000      0.000
REMARK  Name = 
REMARK  18 active torsions:
REMARK  status: ('A' for Active; 'I' for Inactive)
REMARK    1  A    between atoms: C_3  and  O_49
REMARK    2  A    between atoms: C_4  and  O_48
REMARK    3  A    between atoms: C_6  and  C_7
REMARK    4  A    between atoms: C_8  and  O_20
REMARK    5  A    between atoms: C_12  and  O_19
REMARK    6  A    between atoms: C_14  and  O_18
REMARK    7  A    between atoms: O_20  and  C_21
REMARK    8  A    between atoms: C_23  and  O_47
REMARK    9  A    between atoms: C_24  and  O_46
REMARK   10  A    between atoms: C_25  and  O_31
REMARK   11  A    between atoms: C_27  and  C_29
REMARK   12  A    between atoms: C_29  and  O_30
REMARK   13  A    between atoms: O_31  and  C_32
REMARK   14  A    between atoms: C_34  and  O_45
REMARK   15  A    between atoms: C_36  and  O_44
REMARK   16  A    between atoms: C_37  and  O_43
REMARK   17  A    between atoms: C_39  and  C_41
REMARK   18  A    between atoms: C_41  and  O_42
REMARK                            x       y       z     vdW  Elec       q    Type
REMARK                         _______ _______ _______ _____ _____    ______ ____
ROOT
ATOM      1  C   UNL     1       7.903  -3.244  23.604  0.00  0.00    +0.340 C 
ATOM      2  O   UNL     1       6.717  -3.790  22.994  0.00  0.00    -0.331 OA
ATOM      3  C   UNL     1       5.922  -4.783  23.674  0.00  0.00    +0.179 C 
ATOM      4  C   UNL     1       6.452  -5.418  24.991  0.00  0.00    +0.184 C 
ATOM      5  C   UNL     1       7.762  -4.791  25.496  0.00  0.00    +0.180 C 
ATOM      6  C   UNL     1       8.622  -4.420  24.282  0.00  0.00    +0.214 C 
ENDROOT
BRANCH   5   7
ATOM      7  O   UNL     1       8.406  -5.752  26.349  0.00  0.00    -0.386 OA
ATOM      8  H   UNL     1       8.289  -5.448  27.269  0.00  0.00    +0.210 HD
ENDBRANCH   5   7
BRANCH   6   9
ATOM      9  O   UNL     1       9.986  -4.198  24.616  0.00  0.00    -0.383 OA
ATOM     10  H   UNL     1      10.047  -3.450  25.240  0.00  0.00    +0.210 HD
ENDBRANCH   6   9
BRANCH   1  11
ATOM     11  O   UNL     1       7.558  -2.171  24.516  0.00  0.00    -0.453 OA
BRANCH  11  22
ATOM     12  C   UNL     1       5.890  -0.414  24.721  0.00  0.00    +0.181 A 
ATOM     13  O   UNL     1       5.431   0.877  24.456  0.00  0.00    -0.451 OA
ATOM     14  C   UNL     1       6.116   1.696  23.601  0.00  0.00    +0.147 A 
ATOM     15  C   UNL     1       7.199   1.257  22.862  0.00  0.00    +0.109 A 
ATOM     16  C   UNL     1       7.814   2.153  21.973  0.00  0.00    +0.135 A 
ATOM     17  C   UNL     1       7.346   3.472  21.817  0.00  0.00    +0.091 A 
ATOM     18  C   UNL     1       6.261   3.885  22.568  0.00  0.00    +0.124 A 
ATOM     19  C   UNL     1       7.636  -0.149  23.051  0.00  0.00    +0.238 A 
ATOM     20  O   UNL     1       8.568  -0.587  22.380  0.00  0.00    -0.283 OA
ATOM     21  C   UNL     1       5.648   3.014  23.470  0.00  0.00    +0.092 A 
ATOM     22  C   UNL     1       6.922  -1.008  24.068  0.00  0.00    +0.214 A 
BRANCH  12  24
ATOM     23  C   UNL     1       4.307  -2.101  25.702  0.00  0.00    +0.015 A 
ATOM     24  C   UNL     1       5.174  -1.002  25.890  0.00  0.00    +0.025 A 
ATOM     25  C   UNL     1       5.327  -0.526  27.196  0.00  0.00    +0.060 A 
ATOM     26  C   UNL     1       4.519  -1.013  28.216  0.00  0.00    +0.159 A 
ATOM     27  C   UNL     1       3.606  -2.033  27.998  0.00  0.00    +0.158 A 
ATOM     28  C   UNL     1       3.528  -2.620  26.747  0.00  0.00    +0.050 A 
BRANCH  26  29
ATOM     29  O   UNL     1       4.622  -0.440  29.464  0.00  0.00    -0.503 OA
ATOM     30  H   UNL     1       5.355  -0.927  29.893  0.00  0.00    +0.292 HD
ENDBRANCH  26  29
BRANCH  27  31
ATOM     31  O   UNL     1       2.820  -2.420  29.039  0.00  0.00    -0.503 OA
ATOM     32  H   UNL     1       2.135  -1.739  29.164  0.00  0.00    +0.292 HD
ENDBRANCH  27  31
ENDBRANCH  12  24
BRANCH  18  33
ATOM     33  O   UNL     1       5.737   5.141  22.439  0.00  0.00    -0.507 OA
ATOM     34  H   UNL     1       5.345   5.235  21.553  0.00  0.00    +0.292 HD
ENDBRANCH  18  33
BRANCH  16  35
ATOM     35  O   UNL     1       8.901   1.830  21.207  0.00  0.00    -0.506 OA
ATOM     36  H   UNL     1       9.671   1.699  21.801  0.00  0.00    +0.292 HD
ENDBRANCH  16  35
ENDBRANCH  11  22
ENDBRANCH   1  11
BRANCH   3  37
ATOM     37  C   UNL     1       5.709  -5.946  22.659  0.00  0.00    +0.190 C 
BRANCH  37  38
ATOM     38  O   UNL     1       5.262  -7.156  23.255  0.00  0.00    -0.392 OA
ATOM     39  H   UNL     1       4.292  -7.200  23.177  0.00  0.00    +0.210 HD
ENDBRANCH  37  38
ENDBRANCH   3  37
BRANCH   4  40
ATOM     40  O   UNL     1       5.484  -5.376  26.060  0.00  0.00    -0.340 OA
BRANCH  40  41
ATOM     41  C   UNL     1       5.246  -6.586  26.785  0.00  0.00    +0.282 C 
ATOM     42  O   UNL     1       4.333  -7.412  26.043  0.00  0.00    -0.341 OA
ATOM     43  C   UNL     1       3.032  -6.817  25.857  0.00  0.00    +0.178 C 
ATOM     44  C   UNL     1       2.367  -6.427  27.193  0.00  0.00    +0.177 C 
ATOM     45  C   UNL     1       3.331  -5.664  28.108  0.00  0.00    +0.179 C 
ATOM     46  C   UNL     1       4.675  -6.392  28.204  0.00  0.00    +0.201 C 
BRANCH  44  47
ATOM     47  O   UNL     1       1.935  -7.605  27.901  0.00  0.00    -0.386 OA
ATOM     48  H   UNL     1       2.598  -7.723  28.613  0.00  0.00    +0.210 HD
ENDBRANCH  44  47
BRANCH  45  49
ATOM     49  O   UNL     1       2.739  -5.553  29.416  0.00  0.00    -0.386 OA
ATOM     50  H   UNL     1       1.852  -5.964  29.358  0.00  0.00    +0.210 HD
ENDBRANCH  45  49
BRANCH  46  51
ATOM     51  O   UNL     1       4.496  -7.653  28.876  0.00  0.00    -0.384 OA
ATOM     52  H   UNL     1       3.536  -7.870  28.815  0.00  0.00    +0.210 HD
ENDBRANCH  46  51
BRANCH  43  53
ATOM     53  C   UNL     1       2.161  -7.837  25.095  0.00  0.00    +0.190 C 
BRANCH  53  54
ATOM     54  O   UNL     1       2.779  -8.303  23.893  0.00  0.00    -0.392 OA
ATOM     55  H   UNL     1       2.089  -8.387  23.212  0.00  0.00    +0.210 HD
ENDBRANCH  53  54
ENDBRANCH  43  53
ENDBRANCH  40  41
ENDBRANCH   4  40
TORSDOF 18
ENDMDL
MODEL 2
REMARK VINA RESULT:      -7.4      2.305      8.870
REMARK  Name = 
REMARK  18 active torsions:
REMARK  status: ('A' for Active; 'I' for Inactive)
REMARK    1  A    between atoms: C_3  and  O_49
REMARK    2  A    between atoms: C_4  and  O_48
REMARK    3  A    between atoms: C_6  and  C_7
REMARK    4  A    between atoms: C_8  and  O_20
REMARK    5  A    between atoms: C_12  and  O_19
REMARK    6  A    between atoms: C_14  and  O_18
REMARK    7  A    between atoms: O_20  and  C_21
REMARK    8  A    between atoms: C_23  and  O_47
REMARK    9  A    between atoms: C_24  and  O_46
REMARK   10  A    between atoms: C_25  and  O_31
REMARK   11  A    between atoms: C_27  and  C_29
REMARK   12  A    between atoms: C_29  and  O_30
REMARK   13  A    between atoms: O_31  and  C_32
REMARK   14  A    between atoms: C_34  and  O_45
REMARK   15  A    between atoms: C_36  and  O_44
REMARK   16  A    between atoms: C_37  and  O_43
REMARK   17  A    between atoms: C_39  and  C_41
REMARK   18  A    between atoms: C_41  and  O_42
REMARK                            x       y       z     vdW  Elec       q    Type
REMARK                         _______ _______ _______ _____ _____    ______ ____
ROOT
ATOM      1  C   UNL     1       8.976  -1.498  22.908  0.00  0.00    +0.340 C 
ATOM      2  O   UNL     1       9.554  -0.974  24.120  0.00  0.00    -0.331 OA
ATOM      3  C   UNL     1       9.512   0.438  24.411  0.00  0.00    +0.179 C 
ATOM      4  C   UNL     1       9.016   1.431  23.321  0.00  0.00    +0.184 C 
ATOM      5  C   UNL     1       8.490   0.743  22.052  0.00  0.00    +0.180 C 
ATOM      6  C   UNL     1       9.337  -0.509  21.791  0.00  0.00    +0.214 C 
ENDROOT
BRANCH   5   7
ATOM      7  O   UNL     1       8.570   1.691  20.975  0.00  0.00    -0.386 OA
ATOM      8  H   UNL     1       9.384   2.213  21.107  0.00  0.00    +0.210 HD
ENDBRANCH   5   7
BRANCH   6   9
ATOM      9  O   UNL     1       9.204  -1.002  20.464  0.00  0.00    -0.383 OA
ATOM     10  H   UNL     1       8.258  -1.046  20.231  0.00  0.00    +0.210 HD
ENDBRANCH   6   9
BRANCH   1  11
ATOM     11  O   UNL     1       7.548  -1.695  23.070  0.00  0.00    -0.453 OA
BRANCH  11  22
ATOM     12  C   UNL     1       6.533  -2.539  25.112  0.00  0.00    +0.181 A 
ATOM     13  O   UNL     1       5.773  -3.485  25.803  0.00  0.00    -0.451 OA
ATOM     14  C   UNL     1       5.356  -4.630  25.181  0.00  0.00    +0.147 A 
ATOM     15  C   UNL     1       5.767  -4.973  23.906  0.00  0.00    +0.109 A 
ATOM     16  C   UNL     1       5.326  -6.190  23.363  0.00  0.00    +0.135 A 
ATOM     17  C   UNL     1       4.491  -7.061  24.089  0.00  0.00    +0.091 A 
ATOM     18  C   UNL     1       4.094  -6.692  25.362  0.00  0.00    +0.124 A 
ATOM     19  C   UNL     1       6.665  -4.029  23.195  0.00  0.00    +0.238 A 
ATOM     20  O   UNL     1       7.085  -4.321  22.077  0.00  0.00    -0.283 OA
ATOM     21  C   UNL     1       4.508  -5.478  25.912  0.00  0.00    +0.092 A 
ATOM     22  C   UNL     1       7.039  -2.727  23.865  0.00  0.00    +0.214 A 
BRANCH  12  24
ATOM     23  C   UNL     1       5.816  -0.160  25.486  0.00  0.00    +0.015 A 
ATOM     24  C   UNL     1       6.611  -1.261  25.876  0.00  0.00    +0.025 A 
ATOM     25  C   UNL     1       7.434  -1.089  26.994  0.00  0.00    +0.060 A 
ATOM     26  C   UNL     1       7.578   0.168  27.569  0.00  0.00    +0.159 A 
ATOM     27  C   UNL     1       6.857   1.262  27.117  0.00  0.00    +0.158 A 
ATOM     28  C   UNL     1       5.932   1.095  26.102  0.00  0.00    +0.050 A 
BRANCH  26  29
ATOM     29  O   UNL     1       8.483   0.318  28.596  0.00  0.00    -0.503 OA
ATOM     30  H   UNL     1       7.962   0.133  29.405  0.00  0.00    +0.292 HD
ENDBRANCH  26  29
BRANCH  27  31
ATOM     31  O   UNL     1       7.092   2.466  27.704  0.00  0.00    -0.503 OA
ATOM     32  H   UNL     1       7.829   2.890  27.229  0.00  0.00    +0.292 HD
ENDBRANCH  27  31
ENDBRANCH  12  24
BRANCH  18  33
ATOM     33  O   UNL     1       3.312  -7.506  26.132  0.00  0.00    -0.507 OA
ATOM     34  H   UNL     1       2.407  -7.516  25.773  0.00  0.00    +0.292 HD
ENDBRANCH  18  33
BRANCH  16  35
ATOM     35  O   UNL     1       5.657  -6.620  22.107  0.00  0.00    -0.506 OA
ATOM     36  H   UNL     1       6.482  -7.147  22.167  0.00  0.00    +0.292 HD
ENDBRANCH  16  35
ENDBRANCH  11  22
ENDBRANCH   1  11
BRANCH   3  37
ATOM     37  C   UNL     1      10.968   0.854  24.779  0.00  0.00    +0.190 C 
BRANCH  37  38
ATOM     38  O   UNL     1      11.491   1.898  23.970  0.00  0.00    -0.392 OA
ATOM     39  H   UNL     1      11.516   1.591  23.045  0.00  0.00    +0.210 HD
ENDBRANCH  37  38
ENDBRANCH   3  37
BRANCH   4  40
ATOM     40  O   UNL     1       7.999   2.330  23.809  0.00  0.00    -0.340 OA
BRANCH  40  41
ATOM     41  C   UNL     1       8.423   3.609  24.293  0.00  0.00    +0.282 C 
ATOM     42  O   UNL     1       7.432   4.126  25.197  0.00  0.00    -0.341 OA
ATOM     43  C   UNL     1       6.148   4.359  24.579  0.00  0.00    +0.178 C 
ATOM     44  C   UNL     1       6.244   5.301  23.361  0.00  0.00    +0.177 C 
ATOM     45  C   UNL     1       7.382   4.898  22.417  0.00  0.00    +0.179 C 
ATOM     46  C   UNL     1       8.677   4.666  23.201  0.00  0.00    +0.201 C 
BRANCH  44  47
ATOM     47  O   UNL     1       6.493   6.653  23.793  0.00  0.00    -0.386 OA
ATOM     48  H   UNL     1       5.777   7.180  23.381  0.00  0.00    +0.210 HD
ENDBRANCH  44  47
BRANCH  45  49
ATOM     49  O   UNL     1       7.575   5.948  21.450  0.00  0.00    -0.386 OA
ATOM     50  H   UNL     1       8.364   5.703  20.925  0.00  0.00    +0.210 HD
ENDBRANCH  45  49
BRANCH  46  51
ATOM     51  O   UNL     1       9.130   5.910  23.768  0.00  0.00    -0.384 OA
ATOM     52  H   UNL     1       9.630   5.680  24.586  0.00  0.00    +0.210 HD
ENDBRANCH  46  51
BRANCH  43  53
ATOM     53  C   UNL     1       5.218   4.955  25.655  0.00  0.00    +0.190 C 
BRANCH  53  54
ATOM     54  O   UNL     1       5.834   5.020  26.944  0.00  0.00    -0.392 OA
ATOM     55  H   UNL     1       6.519   4.331  26.986  0.00  0.00    +0.210 HD
ENDBRANCH  53  54
ENDBRANCH  43  53
ENDBRANCH  40  41
ENDBRANCH   4  40
TORSDOF 18
ENDMDL
MODEL 3
REMARK VINA RESULT:      -7.3      3.022      9.821
REMARK  Name = 
REMARK  18 active torsions:
REMARK  status: ('A' for Active; 'I' for Inactive)
REMARK    1  A    between atoms: C_3  and  O_49
REMARK    2  A    between atoms: C_4  and  O_48
REMARK    3  A    between atoms: C_6  and  C_7
REMARK    4  A    between atoms: C_8  and  O_20
REMARK    5  A    between atoms: C_12  and  O_19
REMARK    6  A    between atoms: C_14  and  O_18
REMARK    7  A    between atoms: O_20  and  C_21
REMARK    8  A    between atoms: C_23  and  O_47
REMARK    9  A    between atoms: C_24  and  O_46
REMARK   10  A    between atoms: C_25  and  O_31
REMARK   11  A    between atoms: C_27  and  C_29
REMARK   12  A    between atoms: C_29  and  O_30
REMARK   13  A    between atoms: O_31  and  C_32
REMARK   14  A    between atoms: C_34  and  O_45
REMARK   15  A    between atoms: C_36  and  O_44
REMARK   16  A    between atoms: C_37  and  O_43
REMARK   17  A    between atoms: C_39  and  C_41
REMARK   18  A    between atoms: C_41  and  O_42
REMARK                            x       y       z     vdW  Elec       q    Type
REMARK                         _______ _______ _______ _____ _____    ______ ____
ROOT
ATOM      1  C   UNL     1       5.699   0.793  26.868  0.00  0.00    +0.340 C 
ATOM      2  O   UNL     1       4.378   1.346  26.711  0.00  0.00    -0.331 OA
ATOM      3  C   UNL     1       4.182   2.766  26.552  0.00  0.00    +0.179 C 
ATOM      4  C   UNL     1       5.385   3.732  26.749  0.00  0.00    +0.184 C 
ATOM      5  C   UNL     1       6.724   3.013  26.978  0.00  0.00    +0.180 C 
ATOM      6  C   UNL     1       6.460   1.746  27.801  0.00  0.00    +0.214 C 
ENDROOT
BRANCH   5   7
ATOM      7  O   UNL     1       7.603   3.929  27.651  0.00  0.00    -0.386 OA
ATOM      8  H   UNL     1       7.149   4.225  28.463  0.00  0.00    +0.210 HD
ENDBRANCH   5   7
BRANCH   6   9
ATOM      9  O   UNL     1       7.638   1.217  28.396  0.00  0.00    -0.383 OA
ATOM     10  H   UNL     1       7.437   0.926  29.305  0.00  0.00    +0.210 HD
ENDBRANCH   6   9
BRANCH   1  11
ATOM     11  O   UNL     1       6.333   0.615  25.576  0.00  0.00    -0.453 OA
BRANCH  11  22
ATOM     12  C   UNL     1       8.128  -0.698  24.595  0.00  0.00    +0.181 A 
ATOM     13  O   UNL     1       8.858  -1.882  24.478  0.00  0.00    -0.451 OA
ATOM     14  C   UNL     1       8.456  -3.014  25.134  0.00  0.00    +0.147 A 
ATOM     15  C   UNL     1       7.259  -3.086  25.822  0.00  0.00    +0.109 A 
ATOM     16  C   UNL     1       6.904  -4.302  26.427  0.00  0.00    +0.135 A 
ATOM     17  C   UNL     1       7.731  -5.438  26.337  0.00  0.00    +0.091 A 
ATOM     18  C   UNL     1       8.923  -5.338  25.642  0.00  0.00    +0.124 A 
ATOM     19  C   UNL     1       6.416  -1.865  25.867  0.00  0.00    +0.238 A 
ATOM     20  O   UNL     1       5.325  -1.904  26.433  0.00  0.00    -0.283 OA
ATOM     21  C   UNL     1       9.301  -4.133  25.050  0.00  0.00    +0.092 A 
ATOM     22  C   UNL     1       6.923  -0.600  25.213  0.00  0.00    +0.214 A 
BRANCH  12  24
ATOM     23  C   UNL     1      10.239   0.660  24.471  0.00  0.00    +0.015 A 
ATOM     24  C   UNL     1       8.903   0.457  24.057  0.00  0.00    +0.025 A 
ATOM     25  C   UNL     1       8.377   1.364  23.132  0.00  0.00    +0.060 A 
ATOM     26  C   UNL     1       9.093   2.504  22.786  0.00  0.00    +0.159 A 
ATOM     27  C   UNL     1      10.371   2.736  23.271  0.00  0.00    +0.158 A 
ATOM     28  C   UNL     1      10.973   1.790  24.080  0.00  0.00    +0.050 A 
BRANCH  26  29
ATOM     29  O   UNL     1       8.494   3.428  21.959  0.00  0.00    -0.503 OA
ATOM     30  H   UNL     1       7.816   3.852  22.524  0.00  0.00    +0.292 HD
ENDBRANCH  26  29
BRANCH  27  31
ATOM     31  O   UNL     1      10.984   3.899  22.921  0.00  0.00    -0.503 OA
ATOM     32  H   UNL     1      11.454   3.746  22.081  0.00  0.00    +0.292 HD
ENDBRANCH  27  31
ENDBRANCH  12  24
BRANCH  18  33
ATOM     33  O   UNL     1       9.755  -6.412  25.489  0.00  0.00    -0.507 OA
ATOM     34  H   UNL     1       9.458  -6.941  24.728  0.00  0.00    +0.292 HD
ENDBRANCH  18  33
BRANCH  16  35
ATOM     35  O   UNL     1       5.753  -4.480  27.146  0.00  0.00    -0.506 OA
ATOM     36  H   UNL     1       5.000  -4.146  26.613  0.00  0.00    +0.292 HD
ENDBRANCH  16  35
ENDBRANCH  11  22
ENDBRANCH   1  11
BRANCH   3  37
ATOM     37  C   UNL     1       3.091   3.178  27.586  0.00  0.00    +0.190 C 
BRANCH  37  38
ATOM     38  O   UNL     1       3.615   3.635  28.825  0.00  0.00    -0.392 OA
ATOM     39  H   UNL     1       4.546   3.355  28.890  0.00  0.00    +0.210 HD
ENDBRANCH  37  38
ENDBRANCH   3  37
BRANCH   4  40
ATOM     40  O   UNL     1       5.543   4.655  25.652  0.00  0.00    -0.340 OA
BRANCH  40  41
ATOM     41  C   UNL     1       6.098   4.148  24.435  0.00  0.00    +0.282 C 
ATOM     42  O   UNL     1       7.339   4.821  24.163  0.00  0.00    -0.341 OA
ATOM     43  C   UNL     1       7.195   6.242  23.953  0.00  0.00    +0.178 C 
ATOM     44  C   UNL     1       6.198   6.571  22.823  0.00  0.00    +0.177 C 
ATOM     45  C   UNL     1       4.895   5.776  22.962  0.00  0.00    +0.179 C 
ATOM     46  C   UNL     1       5.191   4.292  23.197  0.00  0.00    +0.201 C 
BRANCH  44  47
ATOM     47  O   UNL     1       6.770   6.249  21.540  0.00  0.00    -0.386 OA
ATOM     48  H   UNL     1       6.015   6.282  20.916  0.00  0.00    +0.210 HD
ENDBRANCH  44  47
BRANCH  45  49
ATOM     49  O   UNL     1       4.122   5.937  21.758  0.00  0.00    -0.386 OA
ATOM     50  H   UNL     1       4.708   6.371  21.104  0.00  0.00    +0.210 HD
ENDBRANCH  45  49
BRANCH  46  51
ATOM     51  O   UNL     1       5.809   3.729  22.024  0.00  0.00    -0.384 OA
ATOM     52  H   UNL     1       5.542   4.299  21.266  0.00  0.00    +0.210 HD
ENDBRANCH  46  51
BRANCH  43  53
ATOM     53  C   UNL     1       8.592   6.805  23.625  0.00  0.00    +0.190 C 
BRANCH  53  54
ATOM     54  O   UNL     1       9.270   6.053  22.616  0.00  0.00    -0.392 OA
ATOM     55  H   UNL     1       9.471   6.653  21.877  0.00  0.00    +0.210 HD
ENDBRANCH  53  54
ENDBRANCH  43  53
ENDBRANCH  40  41
ENDBRANCH   4  40
TORSDOF 18
ENDMDL
MODEL 4
REMARK VINA RESULT:      -7.2      2.147      4.522
REMARK  Name = 
REMARK  18 active torsions:
REMARK  status: ('A' for Active; 'I' for Inactive)
REMARK    1  A    between atoms: C_3  and  O_49
REMARK    2  A    between atoms: C_4  and  O_48
REMARK    3  A    between atoms: C_6  and  C_7
REMARK    4  A    between atoms: C_8  and  O_20
REMARK    5  A    between atoms: C_12  and  O_19
REMARK    6  A    between atoms: C_14  and  O_18
REMARK    7  A    between atoms: O_20  and  C_21
REMARK    8  A    between atoms: C_23  and  O_47
REMARK    9  A    between atoms: C_24  and  O_46
REMARK   10  A    between atoms: C_25  and  O_31
REMARK   11  A    between atoms: C_27  and  C_29
REMARK   12  A    between atoms: C_29  and  O_30
REMARK   13  A    between atoms: O_31  and  C_32
REMARK   14  A    between atoms: C_34  and  O_45
REMARK   15  A    between atoms: C_36  and  O_44
REMARK   16  A    between atoms: C_37  and  O_43
REMARK   17  A    between atoms: C_39  and  C_41
REMARK   18  A    between atoms: C_41  and  O_42
REMARK                            x       y       z     vdW  Elec       q    Type
REMARK                         _______ _______ _______ _____ _____    ______ ____
ROOT
ATOM      1  C   UNL     1       5.944  -2.381  26.864  0.00  0.00    +0.340 C 
ATOM      2  O   UNL     1       6.601  -3.648  26.669  0.00  0.00    -0.331 OA
ATOM      3  C   UNL     1       5.864  -4.804  26.222  0.00  0.00    +0.179 C 
ATOM      4  C   UNL     1       4.312  -4.739  26.139  0.00  0.00    +0.184 C 
ATOM      5  C   UNL     1       3.735  -3.346  26.439  0.00  0.00    +0.180 C 
ATOM      6  C   UNL     1       4.594  -2.689  27.527  0.00  0.00    +0.214 C 
ENDROOT
BRANCH   5   7
ATOM      7  O   UNL     1       2.369  -3.517  26.849  0.00  0.00    -0.386 OA
ATOM      8  H   UNL     1       2.038  -2.643  27.131  0.00  0.00    +0.210 HD
ENDBRANCH   5   7
BRANCH   6   9
ATOM      9  O   UNL     1       3.948  -1.588  28.153  0.00  0.00    -0.383 OA
ATOM     10  H   UNL     1       3.034  -1.839  28.383  0.00  0.00    +0.210 HD
ENDBRANCH   6   9
BRANCH   1  11
ATOM     11  O   UNL     1       5.825  -1.670  25.606  0.00  0.00    -0.453 OA
BRANCH  11  22
ATOM     12  C   UNL     1       7.455  -1.604  23.803  0.00  0.00    +0.181 A 
ATOM     13  O   UNL     1       8.377  -0.921  23.009  0.00  0.00    -0.451 OA
ATOM     14  C   UNL     1       8.712   0.375  23.292  0.00  0.00    +0.147 A 
ATOM     15  C   UNL     1       8.271   1.023  24.431  0.00  0.00    +0.109 A 
ATOM     16  C   UNL     1       8.702   2.339  24.666  0.00  0.00    +0.135 A 
ATOM     17  C   UNL     1       9.572   2.998  23.776  0.00  0.00    +0.091 A 
ATOM     18  C   UNL     1       9.996   2.327  22.643  0.00  0.00    +0.124 A 
ATOM     19  C   UNL     1       7.374   0.274  25.345  0.00  0.00    +0.238 A 
ATOM     20  O   UNL     1       6.996   0.802  26.389  0.00  0.00    -0.283 OA
ATOM     21  C   UNL     1       9.565   1.025  22.385  0.00  0.00    +0.092 A 
ATOM     22  C   UNL     1       6.944  -1.125  24.967  0.00  0.00    +0.214 A 
BRANCH  12  24
ATOM     23  C   UNL     1       5.753  -2.940  22.524  0.00  0.00    +0.015 A 
ATOM     24  C   UNL     1       7.022  -2.869  23.142  0.00  0.00    +0.025 A 
ATOM     25  C   UNL     1       7.825  -4.013  23.084  0.00  0.00    +0.060 A 
ATOM     26  C   UNL     1       7.308  -5.205  22.592  0.00  0.00    +0.159 A 
ATOM     27  C   UNL     1       6.026  -5.282  22.069  0.00  0.00    +0.158 A 
ATOM     28  C   UNL     1       5.255  -4.136  21.986  0.00  0.00    +0.050 A 
BRANCH  26  29
ATOM     29  O   UNL     1       8.092  -6.335  22.655  0.00  0.00    -0.503 OA
ATOM     30  H   UNL     1       8.641  -6.293  21.845  0.00  0.00    +0.292 HD
ENDBRANCH  26  29
BRANCH  27  31
ATOM     31  O   UNL     1       5.580  -6.497  21.651  0.00  0.00    -0.503 OA
ATOM     32  H   UNL     1       4.699  -6.641  22.041  0.00  0.00    +0.292 HD
ENDBRANCH  27  31
ENDBRANCH  12  24
BRANCH  18  33
ATOM     33  O   UNL     1      10.867   2.897  21.757  0.00  0.00    -0.507 OA
ATOM     34  H   UNL     1      11.524   3.424  22.246  0.00  0.00    +0.292 HD
ENDBRANCH  18  33
BRANCH  16  35
ATOM     35  O   UNL     1       8.315   3.078  25.750  0.00  0.00    -0.506 OA
ATOM     36  H   UNL     1       9.087   3.594  26.065  0.00  0.00    +0.292 HD
ENDBRANCH  16  35
ENDBRANCH  11  22
ENDBRANCH   1  11
BRANCH   3  37
ATOM     37  C   UNL     1       6.220  -5.960  27.205  0.00  0.00    +0.190 C 
BRANCH  37  38
ATOM     38  O   UNL     1       7.571  -5.948  27.643  0.00  0.00    -0.392 OA
ATOM     39  H   UNL     1       8.081  -6.569  27.091  0.00  0.00    +0.210 HD
ENDBRANCH  37  38
ENDBRANCH   3  37
BRANCH   4  40
ATOM     40  O   UNL     1       3.803  -5.179  24.863  0.00  0.00    -0.340 OA
BRANCH  40  41
ATOM     41  C   UNL     1       3.685  -6.589  24.648  0.00  0.00    +0.282 C 
ATOM     42  O   UNL     1       3.007  -6.823  23.403  0.00  0.00    -0.341 OA
ATOM     43  C   UNL     1       1.655  -6.319  23.374  0.00  0.00    +0.178 C 
ATOM     44  C   UNL     1       0.791  -6.885  24.519  0.00  0.00    +0.177 C 
ATOM     45  C   UNL     1       1.511  -6.804  25.870  0.00  0.00    +0.179 C 
ATOM     46  C   UNL     1       2.936  -7.354  25.757  0.00  0.00    +0.201 C 
BRANCH  44  47
ATOM     47  O   UNL     1       0.480  -8.271  24.274  0.00  0.00    -0.386 OA
ATOM     48  H   UNL     1       1.303  -8.647  23.899  0.00  0.00    +0.210 HD
ENDBRANCH  44  47
BRANCH  45  49
ATOM     49  O   UNL     1       0.766  -7.567  26.839  0.00  0.00    -0.386 OA
ATOM     50  H   UNL     1       1.332  -8.324  27.094  0.00  0.00    +0.210 HD
ENDBRANCH  45  49
BRANCH  46  51
ATOM     51  O   UNL     1       2.889  -8.767  25.481  0.00  0.00    -0.384 OA
ATOM     52  H   UNL     1       1.964  -9.057  25.655  0.00  0.00    +0.210 HD
ENDBRANCH  46  51
BRANCH  43  53
ATOM     53  C   UNL     1       1.052  -6.690  22.004  0.00  0.00    +0.190 C 
BRANCH  53  54
ATOM     54  O   UNL     1       1.423  -8.002  21.573  0.00  0.00    -0.392 OA
ATOM     55  H   UNL     1       2.362  -8.136  21.791  0.00  0.00    +0.210 HD
ENDBRANCH  53  54
ENDBRANCH  43  53
ENDBRANCH  40  41
ENDBRANCH   4  40
TORSDOF 18
ENDMDL
MODEL 5
REMARK VINA RESULT:      -7.2      2.345      5.051
REMARK  Name = 
REMARK  18 active torsions:
REMARK  status: ('A' for Active; 'I' for Inactive)
REMARK    1  A    between atoms: C_3  and  O_49
REMARK    2  A    between atoms: C_4  and  O_48
REMARK    3  A    between atoms: C_6  and  C_7
REMARK    4  A    between atoms: C_8  and  O_20
REMARK    5  A    between atoms: C_12  and  O_19
REMARK    6  A    between atoms: C_14  and  O_18
REMARK    7  A    between atoms: O_20  and  C_21
REMARK    8  A    between atoms: C_23  and  O_47
REMARK    9  A    between atoms: C_24  and  O_46
REMARK   10  A    between atoms: C_25  and  O_31
REMARK   11  A    between atoms: C_27  and  C_29
REMARK   12  A    between atoms: C_29  and  O_30
REMARK   13  A    between atoms: O_31  and  C_32
REMARK   14  A    between atoms: C_34  and  O_45
REMARK   15  A    between atoms: C_36  and  O_44
REMARK   16  A    between atoms: C_37  and  O_43
REMARK   17  A    between atoms: C_39  and  C_41
REMARK   18  A    between atoms: C_41  and  O_42
REMARK                            x       y       z     vdW  Elec       q    Type
REMARK                         _______ _______ _______ _____ _____    ______ ____
ROOT
ATOM      1  C   UNL     1       6.243  -0.375  27.119  0.00  0.00    +0.340 C 
ATOM      2  O   UNL     1       6.910  -1.651  27.086  0.00  0.00    -0.331 OA
ATOM      3  C   UNL     1       6.253  -2.818  26.549  0.00  0.00    +0.179 C 
ATOM      4  C   UNL     1       4.743  -2.747  26.185  0.00  0.00    +0.184 C 
ATOM      5  C   UNL     1       4.137  -1.342  26.330  0.00  0.00    +0.180 C 
ATOM      6  C   UNL     1       4.792  -0.654  27.535  0.00  0.00    +0.214 C 
ENDROOT
BRANCH   5   7
ATOM      7  O   UNL     1       2.717  -1.493  26.492  0.00  0.00    -0.386 OA
ATOM      8  H   UNL     1       2.446  -0.919  27.233  0.00  0.00    +0.210 HD
ENDBRANCH   5   7
BRANCH   6   9
ATOM      9  O   UNL     1       4.055   0.471  27.998  0.00  0.00    -0.383 OA
ATOM     10  H   UNL     1       4.267   0.629  28.937  0.00  0.00    +0.210 HD
ENDBRANCH   6   9
BRANCH   1  11
ATOM     11  O   UNL     1       6.361   0.294  25.838  0.00  0.00    -0.453 OA
BRANCH  11  22
ATOM     12  C   UNL     1       8.455   0.341  24.603  0.00  0.00    +0.181 A 
ATOM     13  O   UNL     1       9.495   1.032  23.980  0.00  0.00    -0.451 OA
ATOM     14  C   UNL     1       9.573   2.395  24.065  0.00  0.00    +0.147 A 
ATOM     15  C   UNL     1       8.726   3.137  24.867  0.00  0.00    +0.109 A 
ATOM     16  C   UNL     1       8.908   4.528  24.931  0.00  0.00    +0.135 A 
ATOM     17  C   UNL     1       9.931   5.170  24.208  0.00  0.00    +0.091 A 
ATOM     18  C   UNL     1      10.763   4.404  23.412  0.00  0.00    +0.124 A 
ATOM     19  C   UNL     1       7.680   2.406  25.624  0.00  0.00    +0.238 A 
ATOM     20  O   UNL     1       6.936   3.028  26.381  0.00  0.00    -0.283 OA
ATOM     21  C   UNL     1      10.587   3.023  23.323  0.00  0.00    +0.092 A 
ATOM     22  C   UNL     1       7.553   0.911  25.444  0.00  0.00    +0.214 A 
BRANCH  12  24
ATOM     23  C   UNL     1       7.405  -1.465  23.207  0.00  0.00    +0.015 A 
ATOM     24  C   UNL     1       8.399  -1.073  24.130  0.00  0.00    +0.025 A 
ATOM     25  C   UNL     1       9.307  -2.052  24.545  0.00  0.00    +0.060 A 
ATOM     26  C   UNL     1       9.111  -3.382  24.190  0.00  0.00    +0.159 A 
ATOM     27  C   UNL     1       8.074  -3.767  23.354  0.00  0.00    +0.158 A 
ATOM     28  C   UNL     1       7.241  -2.802  22.815  0.00  0.00    +0.050 A 
BRANCH  26  29
ATOM     29  O   UNL     1       9.961  -4.331  24.710  0.00  0.00    -0.503 OA
ATOM     30  H   UNL     1       9.534  -4.604  25.548  0.00  0.00    +0.292 HD
ENDBRANCH  26  29
BRANCH  27  31
ATOM     31  O   UNL     1       7.925  -5.093  23.093  0.00  0.00    -0.503 OA
ATOM     32  H   UNL     1       7.399  -5.179  22.277  0.00  0.00    +0.292 HD
ENDBRANCH  27  31
ENDBRANCH  12  24
BRANCH  18  33
ATOM     33  O   UNL     1      11.797   4.961  22.711  0.00  0.00    -0.507 OA
ATOM     34  H   UNL     1      11.714   4.720  21.772  0.00  0.00    +0.292 HD
ENDBRANCH  18  33
BRANCH  16  35
ATOM     35  O   UNL     1       8.118   5.359  25.678  0.00  0.00    -0.506 OA
ATOM     36  H   UNL     1       8.690   5.847  26.307  0.00  0.00    +0.292 HD
ENDBRANCH  16  35
ENDBRANCH  11  22
ENDBRANCH   1  11
BRANCH   3  37
ATOM     37  C   UNL     1       6.413  -3.942  27.617  0.00  0.00    +0.190 C 
BRANCH  37  38
ATOM     38  O   UNL     1       7.511  -4.811  27.379  0.00  0.00    -0.392 OA
ATOM     39  H   UNL     1       8.198  -4.317  26.894  0.00  0.00    +0.210 HD
ENDBRANCH  37  38
ENDBRANCH   3  37
BRANCH   4  40
ATOM     40  O   UNL     1       4.469  -3.227  24.852  0.00  0.00    -0.340 OA
BRANCH  40  41
ATOM     41  C   UNL     1       3.357  -4.112  24.683  0.00  0.00    +0.282 C 
ATOM     42  O   UNL     1       3.418  -5.145  25.680  0.00  0.00    -0.341 OA
ATOM     43  C   UNL     1       4.590  -5.982  25.578  0.00  0.00    +0.178 C 
ATOM     44  C   UNL     1       4.729  -6.632  24.186  0.00  0.00    +0.177 C 
ATOM     45  C   UNL     1       4.529  -5.613  23.059  0.00  0.00    +0.179 C 
ATOM     46  C   UNL     1       3.265  -4.783  23.299  0.00  0.00    +0.201 C 
BRANCH  44  47
ATOM     47  O   UNL     1       3.743  -7.669  24.016  0.00  0.00    -0.386 OA
ATOM     48  H   UNL     1       4.263  -8.476  23.820  0.00  0.00    +0.210 HD
ENDBRANCH  44  47
BRANCH  45  49
ATOM     49  O   UNL     1       4.422  -6.319  21.808  0.00  0.00    -0.386 OA
ATOM     50  H   UNL     1       3.607  -6.860  21.861  0.00  0.00    +0.210 HD
ENDBRANCH  45  49
BRANCH  46  51
ATOM     51  O   UNL     1       2.103  -5.629  23.201  0.00  0.00    -0.384 OA
ATOM     52  H   UNL     1       2.181  -6.114  22.347  0.00  0.00    +0.210 HD
ENDBRANCH  46  51
BRANCH  43  53
ATOM     53  C   UNL     1       4.484  -7.063  26.673  0.00  0.00    +0.190 C 
BRANCH  53  54
ATOM     54  O   UNL     1       5.602  -7.058  27.564  0.00  0.00    -0.392 OA
ATOM     55  H   UNL     1       5.575  -7.879  28.085  0.00  0.00    +0.210 HD
ENDBRANCH  53  54
ENDBRANCH  43  53
ENDBRANCH  40  41
ENDBRANCH   4  40
TORSDOF 18
ENDMDL
MODEL 6
REMARK VINA RESULT:      -7.1      2.734      9.568
REMARK  Name = 
REMARK  18 active torsions:
REMARK  status: ('A' for Active; 'I' for Inactive)
REMARK    1  A    between atoms: C_3  and  O_49
REMARK    2  A    between atoms: C_4  and  O_48
REMARK    3  A    between atoms: C_6  and  C_7
REMARK    4  A    between atoms: C_8  and  O_20
REMARK    5  A    between atoms: C_12  and  O_19
REMARK    6  A    between atoms: C_14  and  O_18
REMARK    7  A    between atoms: O_20  and  C_21
REMARK    8  A    between atoms: C_23  and  O_47
REMARK    9  A    between atoms: C_24  and  O_46
REMARK   10  A    between atoms: C_25  and  O_31
REMARK   11  A    between atoms: C_27  and  C_29
REMARK   12  A    between atoms: C_29  and  O_30
REMARK   13  A    between atoms: O_31  and  C_32
REMARK   14  A    between atoms: C_34  and  O_45
REMARK   15  A    between atoms: C_36  and  O_44
REMARK   16  A    between atoms: C_37  and  O_43
REMARK   17  A    between atoms: C_39  and  C_41
REMARK   18  A    between atoms: C_41  and  O_42
REMARK                            x       y       z     vdW  Elec       q    Type
REMARK                         _______ _______ _______ _____ _____    ______ ____
ROOT
ATOM      1  C   UNL     1       6.604   0.002  26.252  0.00  0.00    +0.340 C 
ATOM      2  O   UNL     1       5.828   0.733  27.222  0.00  0.00    -0.331 OA
ATOM      3  C   UNL     1       5.942   2.167  27.334  0.00  0.00    +0.179 C 
ATOM      4  C   UNL     1       7.053   2.912  26.541  0.00  0.00    +0.184 C 
ATOM      5  C   UNL     1       7.852   2.003  25.594  0.00  0.00    +0.180 C 
ATOM      6  C   UNL     1       8.006   0.628  26.256  0.00  0.00    +0.214 C 
ENDROOT
BRANCH   5   7
ATOM      7  O   UNL     1       9.118   2.635  25.345  0.00  0.00    -0.386 OA
ATOM      8  H   UNL     1       9.814   1.976  25.531  0.00  0.00    +0.210 HD
ENDBRANCH   5   7
BRANCH   6   9
ATOM      9  O   UNL     1       9.034  -0.159  25.668  0.00  0.00    -0.383 OA
ATOM     10  H   UNL     1       9.767   0.424  25.393  0.00  0.00    +0.210 HD
ENDBRANCH   6   9
BRANCH   1  11
ATOM     11  O   UNL     1       5.957   0.036  24.954  0.00  0.00    -0.453 OA
BRANCH  11  22
ATOM     12  C   UNL     1       6.824  -1.298  23.116  0.00  0.00    +0.181 A 
ATOM     13  O   UNL     1       6.998  -2.519  22.463  0.00  0.00    -0.451 OA
ATOM     14  C   UNL     1       6.369  -3.646  22.918  0.00  0.00    +0.147 A 
ATOM     15  C   UNL     1       5.440  -3.614  23.941  0.00  0.00    +0.109 A 
ATOM     16  C   UNL     1       4.807  -4.812  24.312  0.00  0.00    +0.135 A 
ATOM     17  C   UNL     1       5.093  -6.027  23.662  0.00  0.00    +0.091 A 
ATOM     18  C   UNL     1       6.027  -6.031  22.642  0.00  0.00    +0.124 A 
ATOM     19  C   UNL     1       5.161  -2.302  24.577  0.00  0.00    +0.238 A 
ATOM     20  O   UNL     1       4.310  -2.228  25.461  0.00  0.00    -0.283 OA
ATOM     21  C   UNL     1       6.679  -4.854  22.270  0.00  0.00    +0.092 A 
ATOM     22  C   UNL     1       5.935  -1.087  24.121  0.00  0.00    +0.214 A 
BRANCH  12  24
ATOM     23  C   UNL     1       9.200  -0.616  22.664  0.00  0.00    +0.015 A 
ATOM     24  C   UNL     1       7.824  -0.297  22.643  0.00  0.00    +0.025 A 
ATOM     25  C   UNL     1       7.468   0.963  22.152  0.00  0.00    +0.060 A 
ATOM     26  C   UNL     1       8.450   1.906  21.871  0.00  0.00    +0.159 A 
ATOM     27  C   UNL     1       9.799   1.608  21.983  0.00  0.00    +0.158 A 
ATOM     28  C   UNL     1      10.186   0.326  22.334  0.00  0.00    +0.050 A 
BRANCH  26  29
ATOM     29  O   UNL     1       8.055   3.171  21.498  0.00  0.00    -0.503 OA
ATOM     30  H   UNL     1       7.869   3.093  20.539  0.00  0.00    +0.292 HD
ENDBRANCH  26  29
BRANCH  27  31
ATOM     31  O   UNL     1      10.694   2.601  21.734  0.00  0.00    -0.503 OA
ATOM     32  H   UNL     1      10.218   3.450  21.784  0.00  0.00    +0.292 HD
ENDBRANCH  27  31
ENDBRANCH  12  24
BRANCH  18  33
ATOM     33  O   UNL     1       6.326  -7.170  21.947  0.00  0.00    -0.507 OA
ATOM     34  H   UNL     1       6.001  -7.942  22.443  0.00  0.00    +0.292 HD
ENDBRANCH  18  33
BRANCH  16  35
ATOM     35  O   UNL     1       3.886  -4.898  25.321  0.00  0.00    -0.506 OA
ATOM     36  H   UNL     1       3.070  -4.436  25.035  0.00  0.00    +0.292 HD
ENDBRANCH  16  35
ENDBRANCH  11  22
ENDBRANCH   1  11
BRANCH   3  37
ATOM     37  C   UNL     1       6.176   2.472  28.844  0.00  0.00    +0.190 C 
BRANCH  37  38
ATOM     38  O   UNL     1       7.546   2.580  29.204  0.00  0.00    -0.392 OA
ATOM     39  H   UNL     1       7.992   1.741  28.984  0.00  0.00    +0.210 HD
ENDBRANCH  37  38
ENDBRANCH   3  37
BRANCH   4  40
ATOM     40  O   UNL     1       6.542   4.027  25.781  0.00  0.00    -0.340 OA
BRANCH  40  41
ATOM     41  C   UNL     1       6.529   3.905  24.355  0.00  0.00    +0.282 C 
ATOM     42  O   UNL     1       7.717   4.510  23.817  0.00  0.00    -0.341 OA
ATOM     43  C   UNL     1       7.817   5.925  24.077  0.00  0.00    +0.178 C 
ATOM     44  C   UNL     1       6.591   6.707  23.563  0.00  0.00    +0.177 C 
ATOM     45  C   UNL     1       5.275   6.038  23.975  0.00  0.00    +0.179 C 
ATOM     46  C   UNL     1       5.308   4.540  23.660  0.00  0.00    +0.201 C 
BRANCH  44  47
ATOM     47  O   UNL     1       6.611   6.779  22.123  0.00  0.00    -0.386 OA
ATOM     48  H   UNL     1       5.718   7.100  21.879  0.00  0.00    +0.210 HD
ENDBRANCH  44  47
BRANCH  45  49
ATOM     49  O   UNL     1       4.192   6.665  23.261  0.00  0.00    -0.386 OA
ATOM     50  H   UNL     1       4.596   7.331  22.667  0.00  0.00    +0.210 HD
ENDBRANCH  45  49
BRANCH  46  51
ATOM     51  O   UNL     1       5.356   4.345  22.233  0.00  0.00    -0.384 OA
ATOM     52  H   UNL     1       6.175   3.829  22.047  0.00  0.00    +0.210 HD
ENDBRANCH  46  51
BRANCH  43  53
ATOM     53  C   UNL     1       9.107   6.431  23.399  0.00  0.00    +0.190 C 
BRANCH  53  54
ATOM     54  O   UNL     1       9.975   5.368  23.000  0.00  0.00    -0.392 OA
ATOM     55  H   UNL     1       9.607   4.534  23.340  0.00  0.00    +0.210 HD
ENDBRANCH  53  54
ENDBRANCH  43  53
ENDBRANCH  40  41
ENDBRANCH   4  40
TORSDOF 18
ENDMDL
MODEL 7
REMARK VINA RESULT:      -7.1      2.072      2.403
REMARK  Name = 
REMARK  18 active torsions:
REMARK  status: ('A' for Active; 'I' for Inactive)
REMARK    1  A    between atoms: C_3  and  O_49
REMARK    2  A    between atoms: C_4  and  O_48
REMARK    3  A    between atoms: C_6  and  C_7
REMARK    4  A    between atoms: C_8  and  O_20
REMARK    5  A    between atoms: C_12  and  O_19
REMARK    6  A    between atoms: C_14  and  O_18
REMARK    7  A    between atoms: O_20  and  C_21
REMARK    8  A    between atoms: C_23  and  O_47
REMARK    9  A    between atoms: C_24  and  O_46
REMARK   10  A    between atoms: C_25  and  O_31
REMARK   11  A    between atoms: C_27  and  C_29
REMARK   12  A    between atoms: C_29  and  O_30
REMARK   13  A    between atoms: O_31  and  C_32
REMARK   14  A    between atoms: C_34  and  O_45
REMARK   15  A    between atoms: C_36  and  O_44
REMARK   16  A    between atoms: C_37  and  O_43
REMARK   17  A    between atoms: C_39  and  C_41
REMARK   18  A    between atoms: C_41  and  O_42
REMARK                            x       y       z     vdW  Elec       q    Type
REMARK                         _______ _______ _______ _____ _____    ______ ____
ROOT
ATOM      1  C   UNL     1       8.257  -1.648  23.590  0.00  0.00    +0.340 C 
ATOM      2  O   UNL     1       6.902  -2.089  23.381  0.00  0.00    -0.331 OA
ATOM      3  C   UNL     1       6.368  -3.215  24.108  0.00  0.00    +0.179 C 
ATOM      4  C   UNL     1       7.319  -4.085  24.978  0.00  0.00    +0.184 C 
ATOM      5  C   UNL     1       8.754  -3.541  25.060  0.00  0.00    +0.180 C 
ATOM      6  C   UNL     1       9.114  -2.916  23.706  0.00  0.00    +0.214 C 
ENDROOT
BRANCH   5   7
ATOM      7  O   UNL     1       9.619  -4.635  25.404  0.00  0.00    -0.386 OA
ATOM      8  H   UNL     1      10.211  -4.789  24.644  0.00  0.00    +0.210 HD
ENDBRANCH   5   7
BRANCH   6   9
ATOM      9  O   UNL     1      10.514  -2.734  23.534  0.00  0.00    -0.383 OA
ATOM     10  H   UNL     1      10.825  -2.038  24.144  0.00  0.00    +0.210 HD
ENDBRANCH   6   9
BRANCH   1  11
ATOM     11  O   UNL     1       8.338  -0.784  24.751  0.00  0.00    -0.453 OA
BRANCH  11  22
ATOM     12  C   UNL     1       7.148   1.232  25.407  0.00  0.00    +0.181 A 
ATOM     13  O   UNL     1       7.066   2.619  25.540  0.00  0.00    -0.451 OA
ATOM     14  C   UNL     1       8.048   3.424  25.032  0.00  0.00    +0.147 A 
ATOM     15  C   UNL     1       9.083   2.933  24.257  0.00  0.00    +0.109 A 
ATOM     16  C   UNL     1      10.021   3.839  23.737  0.00  0.00    +0.135 A 
ATOM     17  C   UNL     1       9.923   5.222  23.982  0.00  0.00    +0.091 A 
ATOM     18  C   UNL     1       8.879   5.686  24.761  0.00  0.00    +0.124 A 
ATOM     19  C   UNL     1       9.125   1.470  24.013  0.00  0.00    +0.238 A 
ATOM     20  O   UNL     1      10.005   1.002  23.294  0.00  0.00    -0.283 OA
ATOM     21  C   UNL     1       7.946   4.800  25.301  0.00  0.00    +0.092 A 
ATOM     22  C   UNL     1       8.082   0.588  24.660  0.00  0.00    +0.214 A 
BRANCH  12  24
ATOM     23  C   UNL     1       6.189   0.760  27.682  0.00  0.00    +0.015 A 
ATOM     24  C   UNL     1       6.148   0.556  26.285  0.00  0.00    +0.025 A 
ATOM     25  C   UNL     1       5.139  -0.277  25.791  0.00  0.00    +0.060 A 
ATOM     26  C   UNL     1       4.337  -0.997  26.667  0.00  0.00    +0.159 A 
ATOM     27  C   UNL     1       4.448  -0.854  28.042  0.00  0.00    +0.158 A 
ATOM     28  C   UNL     1       5.344   0.065  28.559  0.00  0.00    +0.050 A 
BRANCH  26  29
ATOM     29  O   UNL     1       3.430  -1.891  26.142  0.00  0.00    -0.503 OA
ATOM     30  H   UNL     1       2.974  -1.385  25.438  0.00  0.00    +0.292 HD
ENDBRANCH  26  29
BRANCH  27  31
ATOM     31  O   UNL     1       3.658  -1.631  28.830  0.00  0.00    -0.503 OA
ATOM     32  H   UNL     1       4.226  -2.295  29.260  0.00  0.00    +0.292 HD
ENDBRANCH  27  31
ENDBRANCH  12  24
BRANCH  18  33
ATOM     33  O   UNL     1       8.707   7.020  25.008  0.00  0.00    -0.507 OA
ATOM     34  H   UNL     1       9.321   7.297  25.710  0.00  0.00    +0.292 HD
ENDBRANCH  18  33
BRANCH  16  35
ATOM     35  O   UNL     1      11.092   3.461  22.973  0.00  0.00    -0.506 OA
ATOM     36  H   UNL     1      10.783   2.813  22.305  0.00  0.00    +0.292 HD
ENDBRANCH  16  35
ENDBRANCH  11  22
ENDBRANCH   1  11
BRANCH   3  37
ATOM     37  C   UNL     1       5.728  -4.160  23.047  0.00  0.00    +0.190 C 
BRANCH  37  38
ATOM     38  O   UNL     1       6.263  -5.476  23.049  0.00  0.00    -0.392 OA
ATOM     39  H   UNL     1       5.710  -6.036  22.474  0.00  0.00    +0.210 HD
ENDBRANCH  37  38
ENDBRANCH   3  37
BRANCH   4  40
ATOM     40  O   UNL     1       6.826  -4.278  26.320  0.00  0.00    -0.340 OA
BRANCH  40  41
ATOM     41  C   UNL     1       6.792  -5.616  26.827  0.00  0.00    +0.282 C 
ATOM     42  O   UNL     1       5.900  -6.404  26.021  0.00  0.00    -0.341 OA
ATOM     43  C   UNL     1       4.531  -5.949  26.054  0.00  0.00    +0.178 C 
ATOM     44  C   UNL     1       3.968  -5.880  27.489  0.00  0.00    +0.177 C 
ATOM     45  C   UNL     1       4.935  -5.177  28.448  0.00  0.00    +0.179 C 
ATOM     46  C   UNL     1       6.350  -5.742  28.298  0.00  0.00    +0.201 C 
BRANCH  44  47
ATOM     47  O   UNL     1       3.736  -7.208  28.000  0.00  0.00    -0.386 OA
ATOM     48  H   UNL     1       4.390  -7.770  27.534  0.00  0.00    +0.210 HD
ENDBRANCH  44  47
BRANCH  45  49
ATOM     49  O   UNL     1       4.470  -5.368  29.797  0.00  0.00    -0.386 OA
ATOM     50  H   UNL     1       4.728  -4.567  30.299  0.00  0.00    +0.210 HD
ENDBRANCH  45  49
BRANCH  46  51
ATOM     51  O   UNL     1       6.374  -7.114  28.738  0.00  0.00    -0.384 OA
ATOM     52  H   UNL     1       5.847  -7.628  28.083  0.00  0.00    +0.210 HD
ENDBRANCH  46  51
BRANCH  43  53
ATOM     53  C   UNL     1       3.699  -6.919  25.190  0.00  0.00    +0.190 C 
BRANCH  53  54
ATOM     54  O   UNL     1       4.447  -7.473  24.105  0.00  0.00    -0.392 OA
ATOM     55  H   UNL     1       4.350  -6.882  23.339  0.00  0.00    +0.210 HD
ENDBRANCH  53  54
ENDBRANCH  43  53
ENDBRANCH  40  41
ENDBRANCH   4  40
TORSDOF 18
ENDMDL
MODEL 8
REMARK VINA RESULT:      -7.0      2.738      9.579
REMARK  Name = 
REMARK  18 active torsions:
REMARK  status: ('A' for Active; 'I' for Inactive)
REMARK    1  A    between atoms: C_3  and  O_49
REMARK    2  A    between atoms: C_4  and  O_48
REMARK    3  A    between atoms: C_6  and  C_7
REMARK    4  A    between atoms: C_8  and  O_20
REMARK    5  A    between atoms: C_12  and  O_19
REMARK    6  A    between atoms: C_14  and  O_18
REMARK    7  A    between atoms: O_20  and  C_21
REMARK    8  A    between atoms: C_23  and  O_47
REMARK    9  A    between atoms: C_24  and  O_46
REMARK   10  A    between atoms: C_25  and  O_31
REMARK   11  A    between atoms: C_27  and  C_29
REMARK   12  A    between atoms: C_29  and  O_30
REMARK   13  A    between atoms: O_31  and  C_32
REMARK   14  A    between atoms: C_34  and  O_45
REMARK   15  A    between atoms: C_36  and  O_44
REMARK   16  A    between atoms: C_37  and  O_43
REMARK   17  A    between atoms: C_39  and  C_41
REMARK   18  A    between atoms: C_41  and  O_42
REMARK                            x       y       z     vdW  Elec       q    Type
REMARK                         _______ _______ _______ _____ _____    ______ ____
ROOT
ATOM      1  C   UNL     1       4.890   0.483  26.205  0.00  0.00    +0.340 C 
ATOM      2  O   UNL     1       4.172   1.324  25.281  0.00  0.00    -0.331 OA
ATOM      3  C   UNL     1       4.463   2.733  25.180  0.00  0.00    +0.179 C 
ATOM      4  C   UNL     1       5.420   3.393  26.213  0.00  0.00    +0.184 C 
ATOM      5  C   UNL     1       6.066   2.393  27.185  0.00  0.00    +0.180 C 
ATOM      6  C   UNL     1       5.044   1.293  27.500  0.00  0.00    +0.214 C 
ENDROOT
BRANCH   5   7
ATOM      7  O   UNL     1       6.466   3.119  28.359  0.00  0.00    -0.386 OA
ATOM      8  H   UNL     1       5.653   3.433  28.798  0.00  0.00    +0.210 HD
ENDBRANCH   5   7
BRANCH   6   9
ATOM      9  O   UNL     1       5.377   0.543  28.661  0.00  0.00    -0.383 OA
ATOM     10  H   UNL     1       6.307   0.252  28.601  0.00  0.00    +0.210 HD
ENDBRANCH   6   9
BRANCH   1  11
ATOM     11  O   UNL     1       6.153   0.060  25.631  0.00  0.00    -0.453 OA
BRANCH  11  22
ATOM     12  C   UNL     1       7.284  -1.178  23.870  0.00  0.00    +0.181 A 
ATOM     13  O   UNL     1       7.491  -2.343  23.129  0.00  0.00    -0.451 OA
ATOM     14  C   UNL     1       6.682  -3.432  23.307  0.00  0.00    +0.147 A 
ATOM     15  C   UNL     1       5.558  -3.398  24.111  0.00  0.00    +0.109 A 
ATOM     16  C   UNL     1       4.759  -4.549  24.199  0.00  0.00    +0.135 A 
ATOM     17  C   UNL     1       5.075  -5.720  23.485  0.00  0.00    +0.091 A 
ATOM     18  C   UNL     1       6.206  -5.728  22.688  0.00  0.00    +0.124 A 
ATOM     19  C   UNL     1       5.261  -2.130  24.824  0.00  0.00    +0.238 A 
ATOM     20  O   UNL     1       4.246  -2.049  25.514  0.00  0.00    -0.283 OA
ATOM     21  C   UNL     1       7.022  -4.599  22.602  0.00  0.00    +0.092 A 
ATOM     22  C   UNL     1       6.217  -0.969  24.685  0.00  0.00    +0.214 A 
BRANCH  12  24
ATOM     23  C   UNL     1       9.501  -0.310  24.673  0.00  0.00    +0.015 A 
ATOM     24  C   UNL     1       8.445  -0.251  23.737  0.00  0.00    +0.025 A 
ATOM     25  C   UNL     1       8.560   0.683  22.703  0.00  0.00    +0.060 A 
ATOM     26  C   UNL     1       9.587   1.620  22.719  0.00  0.00    +0.159 A 
ATOM     27  C   UNL     1      10.568   1.608  23.698  0.00  0.00    +0.158 A 
ATOM     28  C   UNL     1      10.560   0.610  24.657  0.00  0.00    +0.050 A 
BRANCH  26  29
ATOM     29  O   UNL     1       9.600   2.594  21.746  0.00  0.00    -0.503 OA
ATOM     30  H   UNL     1      10.516   2.939  21.763  0.00  0.00    +0.292 HD
ENDBRANCH  26  29
BRANCH  27  31
ATOM     31  O   UNL     1      11.511   2.588  23.668  0.00  0.00    -0.503 OA
ATOM     32  H   UNL     1      11.504   3.033  24.535  0.00  0.00    +0.292 HD
ENDBRANCH  27  31
ENDBRANCH  12  24
BRANCH  18  33
ATOM     33  O   UNL     1       6.550  -6.820  21.943  0.00  0.00    -0.507 OA
ATOM     34  H   UNL     1       6.407  -7.626  22.470  0.00  0.00    +0.292 HD
ENDBRANCH  18  33
BRANCH  16  35
ATOM     35  O   UNL     1       3.636  -4.631  24.977  0.00  0.00    -0.506 OA
ATOM     36  H   UNL     1       3.139  -3.790  24.893  0.00  0.00    +0.292 HD
ENDBRANCH  16  35
ENDBRANCH  11  22
ENDBRANCH   1  11
BRANCH   3  37
ATOM     37  C   UNL     1       3.096   3.473  25.286  0.00  0.00    +0.190 C 
BRANCH  37  38
ATOM     38  O   UNL     1       2.094   2.958  24.421  0.00  0.00    -0.392 OA
ATOM     39  H   UNL     1       1.375   3.614  24.353  0.00  0.00    +0.210 HD
ENDBRANCH  37  38
ENDBRANCH   3  37
BRANCH   4  40
ATOM     40  O   UNL     1       6.467   4.165  25.589  0.00  0.00    -0.340 OA
BRANCH  40  41
ATOM     41  C   UNL     1       6.940   3.727  24.312  0.00  0.00    +0.282 C 
ATOM     42  O   UNL     1       8.263   4.245  24.093  0.00  0.00    -0.341 OA
ATOM     43  C   UNL     1       8.321   5.687  24.046  0.00  0.00    +0.178 C 
ATOM     44  C   UNL     1       7.377   6.280  22.981  0.00  0.00    +0.177 C 
ATOM     45  C   UNL     1       5.975   5.665  23.055  0.00  0.00    +0.179 C 
ATOM     46  C   UNL     1       6.058   4.137  23.116  0.00  0.00    +0.201 C 
BRANCH  44  47
ATOM     47  O   UNL     1       7.893   6.028  21.659  0.00  0.00    -0.386 OA
ATOM     48  H   UNL     1       7.099   5.981  21.087  0.00  0.00    +0.210 HD
ENDBRANCH  44  47
BRANCH  45  49
ATOM     49  O   UNL     1       5.229   6.069  21.892  0.00  0.00    -0.386 OA
ATOM     50  H   UNL     1       5.138   7.043  21.941  0.00  0.00    +0.210 HD
ENDBRANCH  45  49
BRANCH  46  51
ATOM     51  O   UNL     1       6.586   3.630  21.875  0.00  0.00    -0.384 OA
ATOM     52  H   UNL     1       7.473   4.043  21.758  0.00  0.00    +0.210 HD
ENDBRANCH  46  51
BRANCH  43  53
ATOM     53  C   UNL     1       9.783   6.082  23.757  0.00  0.00    +0.190 C 
BRANCH  53  54
ATOM     54  O   UNL     1      10.495   5.076  23.033  0.00  0.00    -0.392 OA
ATOM     55  H   UNL     1       9.898   4.710  22.359  0.00  0.00    +0.210 HD
ENDBRANCH  53  54
ENDBRANCH  43  53
ENDBRANCH  40  41
ENDBRANCH   4  40
TORSDOF 18
ENDMDL
MODEL 9
REMARK VINA RESULT:      -7.0      2.382      9.282
REMARK  Name = 
REMARK  18 active torsions:
REMARK  status: ('A' for Active; 'I' for Inactive)
REMARK    1  A    between atoms: C_3  and  O_49
REMARK    2  A    between atoms: C_4  and  O_48
REMARK    3  A    between atoms: C_6  and  C_7
REMARK    4  A    between atoms: C_8  and  O_20
REMARK    5  A    between atoms: C_12  and  O_19
REMARK    6  A    between atoms: C_14  and  O_18
REMARK    7  A    between atoms: O_20  and  C_21
REMARK    8  A    between atoms: C_23  and  O_47
REMARK    9  A    between atoms: C_24  and  O_46
REMARK   10  A    between atoms: C_25  and  O_31
REMARK   11  A    between atoms: C_27  and  C_29
REMARK   12  A    between atoms: C_29  and  O_30
REMARK   13  A    between atoms: O_31  and  C_32
REMARK   14  A    between atoms: C_34  and  O_45
REMARK   15  A    between atoms: C_36  and  O_44
REMARK   16  A    between atoms: C_37  and  O_43
REMARK   17  A    between atoms: C_39  and  C_41
REMARK   18  A    between atoms: C_41  and  O_42
REMARK                            x       y       z     vdW  Elec       q    Type
REMARK                         _______ _______ _______ _____ _____    ______ ____
ROOT
ATOM      1  C   UNL     1       4.499  -1.414  26.272  0.00  0.00    +0.340 C 
ATOM      2  O   UNL     1       4.231   0.001  26.289  0.00  0.00    -0.331 OA
ATOM      3  C   UNL     1       5.285   0.959  26.061  0.00  0.00    +0.179 C 
ATOM      4  C   UNL     1       6.760   0.472  25.993  0.00  0.00    +0.184 C 
ATOM      5  C   UNL     1       6.911  -1.057  26.055  0.00  0.00    +0.180 C 
ATOM      6  C   UNL     1       5.837  -1.612  26.999  0.00  0.00    +0.214 C 
ENDROOT
BRANCH   5   7
ATOM      7  O   UNL     1       8.242  -1.347  26.510  0.00  0.00    -0.386 OA
ATOM      8  H   UNL     1       8.695  -0.494  26.648  0.00  0.00    +0.210 HD
ENDBRANCH   5   7
BRANCH   6   9
ATOM      9  O   UNL     1       6.113  -2.937  27.434  0.00  0.00    -0.383 OA
ATOM     10  H   UNL     1       7.018  -2.975  27.796  0.00  0.00    +0.210 HD
ENDBRANCH   6   9
BRANCH   1  11
ATOM     11  O   UNL     1       4.498  -1.916  24.911  0.00  0.00    -0.453 OA
BRANCH  11  22
ATOM     12  C   UNL     1       5.153  -4.171  24.284  0.00  0.00    +0.181 A 
ATOM     13  O   UNL     1       4.940  -5.551  24.271  0.00  0.00    -0.451 OA
ATOM     14  C   UNL     1       3.779  -6.079  24.765  0.00  0.00    +0.147 A 
ATOM     15  C   UNL     1       2.719  -5.290  25.170  0.00  0.00    +0.109 A 
ATOM     16  C   UNL     1       1.546  -5.918  25.620  0.00  0.00    +0.135 A 
ATOM     17  C   UNL     1       1.431  -7.320  25.657  0.00  0.00    +0.091 A 
ATOM     18  C   UNL     1       2.507  -8.086  25.248  0.00  0.00    +0.124 A 
ATOM     19  C   UNL     1       2.887  -3.817  25.088  0.00  0.00    +0.238 A 
ATOM     20  O   UNL     1       1.950  -3.084  25.399  0.00  0.00    -0.283 OA
ATOM     21  C   UNL     1       3.687  -7.480  24.813  0.00  0.00    +0.092 A 
ATOM     22  C   UNL     1       4.211  -3.255  24.626  0.00  0.00    +0.214 A 
BRANCH  12  24
ATOM     23  C   UNL     1       7.607  -4.461  24.743  0.00  0.00    +0.015 A 
ATOM     24  C   UNL     1       6.580  -3.852  23.988  0.00  0.00    +0.025 A 
ATOM     25  C   UNL     1       6.970  -2.977  22.970  0.00  0.00    +0.060 A 
ATOM     26  C   UNL     1       8.303  -2.603  22.843  0.00  0.00    +0.159 A 
ATOM     27  C   UNL     1       9.291  -3.142  23.652  0.00  0.00    +0.158 A 
ATOM     28  C   UNL     1       8.956  -4.114  24.578  0.00  0.00    +0.050 A 
BRANCH  26  29
ATOM     29  O   UNL     1       8.629  -1.653  21.901  0.00  0.00    -0.503 OA
ATOM     30  H   UNL     1       7.816  -1.116  21.808  0.00  0.00    +0.292 HD
ENDBRANCH  26  29
BRANCH  27  31
ATOM     31  O   UNL     1      10.563  -2.687  23.494  0.00  0.00    -0.503 OA
ATOM     32  H   UNL     1      10.519  -1.726  23.341  0.00  0.00    +0.292 HD
ENDBRANCH  27  31
ENDBRANCH  12  24
BRANCH  18  33
ATOM     33  O   UNL     1       2.449  -9.452  25.227  0.00  0.00    -0.507 OA
ATOM     34  H   UNL     1       2.291  -9.780  26.130  0.00  0.00    +0.292 HD
ENDBRANCH  18  33
BRANCH  16  35
ATOM     35  O   UNL     1       0.444  -5.235  26.058  0.00  0.00    -0.506 OA
ATOM     36  H   UNL     1       0.512  -4.307  25.748  0.00  0.00    +0.292 HD
ENDBRANCH  16  35
ENDBRANCH  11  22
ENDBRANCH   1  11
BRANCH   3  37
ATOM     37  C   UNL     1       5.199   1.992  27.225  0.00  0.00    +0.190 C 
BRANCH  37  38
ATOM     38  O   UNL     1       6.284   2.908  27.264  0.00  0.00    -0.392 OA
ATOM     39  H   UNL     1       6.266   3.374  28.120  0.00  0.00    +0.210 HD
ENDBRANCH  37  38
ENDBRANCH   3  37
BRANCH   4  40
ATOM     40  O   UNL     1       7.452   0.952  24.821  0.00  0.00    -0.340 OA
BRANCH  40  41
ATOM     41  C   UNL     1       8.757   1.510  25.004  0.00  0.00    +0.282 C 
ATOM     42  O   UNL     1       8.631   2.885  25.404  0.00  0.00    -0.341 OA
ATOM     43  C   UNL     1       7.995   3.722  24.415  0.00  0.00    +0.178 C 
ATOM     44  C   UNL     1       8.711   3.669  23.050  0.00  0.00    +0.177 C 
ATOM     45  C   UNL     1       9.013   2.229  22.620  0.00  0.00    +0.179 C 
ATOM     46  C   UNL     1       9.669   1.450  23.764  0.00  0.00    +0.201 C 
BRANCH  44  47
ATOM     47  O   UNL     1       9.965   4.376  23.115  0.00  0.00    -0.386 OA
ATOM     48  H   UNL     1      10.111   4.707  22.204  0.00  0.00    +0.210 HD
ENDBRANCH  44  47
BRANCH  45  49
ATOM     49  O   UNL     1       9.893   2.260  21.480  0.00  0.00    -0.386 OA
ATOM     50  H   UNL     1       9.395   1.872  20.731  0.00  0.00    +0.210 HD
ENDBRANCH  45  49
BRANCH  46  51
ATOM     51  O   UNL     1      10.971   2.001  24.042  0.00  0.00    -0.384 OA
ATOM     52  H   UNL     1      11.221   2.540  23.255  0.00  0.00    +0.210 HD
ENDBRANCH  46  51
BRANCH  43  53
ATOM     53  C   UNL     1       7.982   5.162  24.966  0.00  0.00    +0.190 C 
BRANCH  53  54
ATOM     54  O   UNL     1       8.282   5.223  26.362  0.00  0.00    -0.392 OA
ATOM     55  H   UNL     1       7.609   5.778  26.792  0.00  0.00    +0.210 HD
ENDBRANCH  53  54
ENDBRANCH  43  53
ENDBRANCH  40  41
ENDBRANCH   4  40
TORSDOF 18
ENDMDL
