MODEL 1
REMARK VINA RESULT:      -7.4      0.000      0.000
REMARK  Name = 
REMARK  20 active torsions:
REMARK  status: ('A' for Active; 'I' for Inactive)
REMARK    1  A    between atoms: C_1  and  C_2
REMARK    2  A    between atoms: C_2  and  O_4
REMARK    3  A    between atoms: O_4  and  C_5
REMARK    4  A    between atoms: C_5  and  C_6
REMARK    5  A    between atoms: C_7  and  O_53
REMARK    6  A    between atoms: C_9  and  O_52
REMARK    7  A    between atoms: C_11  and  O_51
REMARK    8  A    between atoms: C_12  and  O_15
REMARK    9  A    between atoms: O_15  and  C_16
REMARK   10  A    between atoms: C_18  and  O_50
REMARK   11  A    between atoms: C_20  and  C_48
REMARK   12  A    between atoms: C_22  and  O_26
REMARK   13  A    between atoms: C_24  and  O_25
REMARK   14  A    between atoms: O_26  and  C_27
REMARK   15  A    between atoms: C_28  and  C_40
REMARK   16  A    between atoms: C_32  and  O_39
REMARK   17  A    between atoms: C_34  and  O_38
REMARK   18  A    between atoms: C_42  and  O_47
REMARK   19  A    between atoms: C_43  and  O_46
REMARK   20  A    between atoms: C_48  and  O_49
REMARK                            x       y       z     vdW  Elec       q    Type
REMARK                         _______ _______ _______ _____ _____    ______ ____
ROOT
ATOM      1  C   UNL     1       9.373   0.307  22.975  0.00  0.00    +0.187 C 
ATOM      2  C   UNL     1       9.040  -0.995  22.235  0.00  0.00    +0.214 C 
ATOM      3  C   UNL     1       8.125  -1.936  23.065  0.00  0.00    +0.340 C 
ATOM      4  O   UNL     1       8.626  -2.121  24.399  0.00  0.00    -0.331 OA
ATOM      5  C   UNL     1       8.856  -0.891  25.114  0.00  0.00    +0.179 C 
ATOM      6  C   UNL     1       9.915  -0.055  24.375  0.00  0.00    +0.177 C 
ENDROOT
BRANCH   6   7
ATOM      7  O   UNL     1      10.299   1.112  25.105  0.00  0.00    -0.386 OA
ATOM      8  H   UNL     1       9.940   1.882  24.625  0.00  0.00    +0.210 HD
ENDBRANCH   6   7
BRANCH   2   9
ATOM      9  O   UNL     1      10.295  -1.643  21.926  0.00  0.00    -0.383 OA
ATOM     10  H   UNL     1      10.131  -2.337  21.259  0.00  0.00    +0.210 HD
ENDBRANCH   2   9
BRANCH   5  11
ATOM     11  C   UNL     1       9.325  -1.275  26.522  0.00  0.00    +0.190 C 
BRANCH  11  12
ATOM     12  O   UNL     1       8.932  -0.279  27.468  0.00  0.00    -0.392 OA
ATOM     13  H   UNL     1       8.761   0.527  26.945  0.00  0.00    +0.210 HD
ENDBRANCH  11  12
ENDBRANCH   5  11
BRANCH   3  14
ATOM     14  O   UNL     1       6.750  -1.527  23.029  0.00  0.00    -0.453 OA
BRANCH  14  15
ATOM     15  C   UNL     1       5.815  -2.356  23.648  0.00  0.00    +0.214 A 
ATOM     16  C   UNL     1       5.208  -3.506  22.894  0.00  0.00    +0.238 A 
ATOM     17  O   UNL     1       5.249  -3.573  21.670  0.00  0.00    -0.283 OA
ATOM     18  C   UNL     1       4.432  -4.503  23.645  0.00  0.00    +0.109 A 
ATOM     19  C   UNL     1       4.032  -4.147  24.923  0.00  0.00    +0.147 A 
ATOM     20  C   UNL     1       3.205  -4.989  25.671  0.00  0.00    +0.092 A 
ATOM     21  C   UNL     1       2.783  -6.192  25.119  0.00  0.00    +0.124 A 
ATOM     22  C   UNL     1       3.181  -6.571  23.842  0.00  0.00    +0.091 A 
ATOM     23  O   UNL     1       4.376  -2.958  25.495  0.00  0.00    -0.451 OA
ATOM     24  C   UNL     1       4.012  -5.727  23.107  0.00  0.00    +0.135 A 
ATOM     25  C   UNL     1       5.279  -2.095  24.868  0.00  0.00    +0.181 A 
BRANCH  25  26
ATOM     26  C   UNL     1       5.460  -0.846  25.700  0.00  0.00    +0.025 A 
ATOM     27  C   UNL     1       5.403  -0.950  27.116  0.00  0.00    +0.015 A 
ATOM     28  C   UNL     1       5.403   0.172  27.956  0.00  0.00    +0.050 A 
ATOM     29  C   UNL     1       5.472   1.427  27.392  0.00  0.00    +0.158 A 
ATOM     30  C   UNL     1       5.581   1.564  26.017  0.00  0.00    +0.159 A 
ATOM     31  C   UNL     1       5.584   0.449  25.173  0.00  0.00    +0.060 A 
BRANCH  30  32
ATOM     32  O   UNL     1       5.665   2.836  25.522  0.00  0.00    -0.503 OA
ATOM     33  H   UNL     1       5.882   3.426  26.277  0.00  0.00    +0.292 HD
ENDBRANCH  30  32
BRANCH  29  34
ATOM     34  O   UNL     1       5.431   2.530  28.192  0.00  0.00    -0.503 OA
ATOM     35  H   UNL     1       5.994   3.186  27.734  0.00  0.00    +0.292 HD
ENDBRANCH  29  34
ENDBRANCH  25  26
BRANCH  24  36
ATOM     36  O   UNL     1       4.419  -6.125  21.866  0.00  0.00    -0.506 OA
ATOM     37  H   UNL     1       4.548  -7.087  21.848  0.00  0.00    +0.292 HD
ENDBRANCH  24  36
BRANCH  21  38
ATOM     38  O   UNL     1       1.965  -7.045  25.800  0.00  0.00    -0.507 OA
ATOM     39  H   UNL     1       1.121  -7.128  25.326  0.00  0.00    +0.292 HD
ENDBRANCH  21  38
ENDBRANCH  14  15
ENDBRANCH   3  14
BRANCH   1  40
ATOM     40  O   UNL     1       8.200   1.141  22.982  0.00  0.00    -0.340 OA
BRANCH  40  43
ATOM     41  C   UNL     1       8.859   4.422  24.381  0.00  0.00    +0.190 C 
ATOM     42  O   UNL     1       8.548   3.013  24.279  0.00  0.00    -0.339 OA
ATOM     43  C   UNL     1       8.437   2.549  22.920  0.00  0.00    +0.282 C 
ATOM     44  C   UNL     1       7.290   3.309  22.207  0.00  0.00    +0.201 C 
ATOM     45  C   UNL     1       7.579   4.812  22.261  0.00  0.00    +0.179 C 
ATOM     46  C   UNL     1       7.747   5.251  23.719  0.00  0.00    +0.178 C 
BRANCH  46  47
ATOM     47  O   UNL     1       8.021   6.650  23.760  0.00  0.00    -0.386 OA
ATOM     48  H   UNL     1       8.142   6.891  24.699  0.00  0.00    +0.210 HD
ENDBRANCH  46  47
BRANCH  45  49
ATOM     49  O   UNL     1       6.542   5.567  21.630  0.00  0.00    -0.386 OA
ATOM     50  H   UNL     1       5.904   4.907  21.295  0.00  0.00    +0.210 HD
ENDBRANCH  45  49
BRANCH  44  51
ATOM     51  O   UNL     1       6.035   3.016  22.855  0.00  0.00    -0.384 OA
ATOM     52  H   UNL     1       5.337   3.038  22.174  0.00  0.00    +0.210 HD
ENDBRANCH  44  51
BRANCH  41  53
ATOM     53  C   UNL     1      10.271   4.770  23.853  0.00  0.00    +0.266 C 
BRANCH  53  54
ATOM     54  O   UNL     1      10.722   6.036  24.367  0.00  0.00    -0.462 OA
BRANCH  54  56
ATOM     55  C   UNL     1      12.775   5.392  23.435  0.00  0.00    +0.136 C 
ATOM     56  C   UNL     1      12.069   6.142  24.516  0.00  0.00    +0.304 C 
ATOM     57  O   UNL     1      12.629   6.789  25.395  0.00  0.00    -0.251 OA
ENDBRANCH  54  56
ENDBRANCH  53  54
ENDBRANCH  41  53
ENDBRANCH  40  43
ENDBRANCH   1  40
TORSDOF 19
ENDMDL
MODEL 2
REMARK VINA RESULT:      -7.2      2.302      9.199
REMARK  Name = 
REMARK  20 active torsions:
REMARK  status: ('A' for Active; 'I' for Inactive)
REMARK    1  A    between atoms: C_1  and  C_2
REMARK    2  A    between atoms: C_2  and  O_4
REMARK    3  A    between atoms: O_4  and  C_5
REMARK    4  A    between atoms: C_5  and  C_6
REMARK    5  A    between atoms: C_7  and  O_53
REMARK    6  A    between atoms: C_9  and  O_52
REMARK    7  A    between atoms: C_11  and  O_51
REMARK    8  A    between atoms: C_12  and  O_15
REMARK    9  A    between atoms: O_15  and  C_16
REMARK   10  A    between atoms: C_18  and  O_50
REMARK   11  A    between atoms: C_20  and  C_48
REMARK   12  A    between atoms: C_22  and  O_26
REMARK   13  A    between atoms: C_24  and  O_25
REMARK   14  A    between atoms: O_26  and  C_27
REMARK   15  A    between atoms: C_28  and  C_40
REMARK   16  A    between atoms: C_32  and  O_39
REMARK   17  A    between atoms: C_34  and  O_38
REMARK   18  A    between atoms: C_42  and  O_47
REMARK   19  A    between atoms: C_43  and  O_46
REMARK   20  A    between atoms: C_48  and  O_49
REMARK                            x       y       z     vdW  Elec       q    Type
REMARK                         _______ _______ _______ _____ _____    ______ ____
ROOT
ATOM      1  C   UNL     1       8.116  -5.226  25.261  0.00  0.00    +0.187 C 
ATOM      2  C   UNL     1       9.401  -4.426  25.511  0.00  0.00    +0.214 C 
ATOM      3  C   UNL     1       9.305  -2.967  24.986  0.00  0.00    +0.340 C 
ATOM      4  O   UNL     1       8.829  -2.922  23.630  0.00  0.00    -0.331 OA
ATOM      5  C   UNL     1       7.579  -3.608  23.426  0.00  0.00    +0.179 C 
ATOM      6  C   UNL     1       7.745  -5.098  23.767  0.00  0.00    +0.177 C 
ENDROOT
BRANCH   6   7
ATOM      7  O   UNL     1       6.583  -5.867  23.449  0.00  0.00    -0.386 OA
ATOM      8  H   UNL     1       6.883  -6.778  23.268  0.00  0.00    +0.210 HD
ENDBRANCH   6   7
BRANCH   2   9
ATOM      9  O   UNL     1      10.479  -5.135  24.860  0.00  0.00    -0.383 OA
ATOM     10  H   UNL     1      10.255  -5.242  23.916  0.00  0.00    +0.210 HD
ENDBRANCH   2   9
BRANCH   5  11
ATOM     11  C   UNL     1       7.196  -3.407  21.955  0.00  0.00    +0.190 C 
BRANCH  11  12
ATOM     12  O   UNL     1       5.809  -3.685  21.758  0.00  0.00    -0.392 OA
ATOM     13  H   UNL     1       5.448  -2.904  21.297  0.00  0.00    +0.210 HD
ENDBRANCH  11  12
ENDBRANCH   5  11
BRANCH   3  14
ATOM     14  O   UNL     1       8.565  -2.117  25.874  0.00  0.00    -0.453 OA
BRANCH  14  15
ATOM     15  C   UNL     1       8.296  -0.817  25.446  0.00  0.00    +0.214 A 
ATOM     16  C   UNL     1       9.425   0.124  25.130  0.00  0.00    +0.238 A 
ATOM     17  O   UNL     1      10.568  -0.078  25.525  0.00  0.00    -0.283 OA
ATOM     18  C   UNL     1       9.112   1.385  24.443  0.00  0.00    +0.109 A 
ATOM     19  C   UNL     1       7.782   1.774  24.429  0.00  0.00    +0.147 A 
ATOM     20  C   UNL     1       7.406   3.007  23.889  0.00  0.00    +0.092 A 
ATOM     21  C   UNL     1       8.382   3.845  23.364  0.00  0.00    +0.124 A 
ATOM     22  C   UNL     1       9.720   3.467  23.360  0.00  0.00    +0.091 A 
ATOM     23  O   UNL     1       6.790   1.014  24.974  0.00  0.00    -0.451 OA
ATOM     24  C   UNL     1      10.084   2.233  23.895  0.00  0.00    +0.135 A 
ATOM     25  C   UNL     1       7.051  -0.275  25.447  0.00  0.00    +0.181 A 
BRANCH  25  26
ATOM     26  C   UNL     1       5.789  -0.880  26.019  0.00  0.00    +0.025 A 
ATOM     27  C   UNL     1       5.546  -0.767  27.414  0.00  0.00    +0.015 A 
ATOM     28  C   UNL     1       4.488  -1.430  28.052  0.00  0.00    +0.050 A 
ATOM     29  C   UNL     1       3.641  -2.213  27.299  0.00  0.00    +0.158 A 
ATOM     30  C   UNL     1       3.818  -2.304  25.927  0.00  0.00    +0.159 A 
ATOM     31  C   UNL     1       4.870  -1.644  25.284  0.00  0.00    +0.060 A 
BRANCH  30  32
ATOM     32  O   UNL     1       2.932  -3.083  25.235  0.00  0.00    -0.503 OA
ATOM     33  H   UNL     1       2.033  -2.853  25.557  0.00  0.00    +0.292 HD
ENDBRANCH  30  32
BRANCH  29  34
ATOM     34  O   UNL     1       2.633  -2.897  27.910  0.00  0.00    -0.503 OA
ATOM     35  H   UNL     1       3.061  -3.706  28.257  0.00  0.00    +0.292 HD
ENDBRANCH  29  34
ENDBRANCH  25  26
BRANCH  24  36
ATOM     36  O   UNL     1      11.398   1.863  23.858  0.00  0.00    -0.506 OA
ATOM     37  H   UNL     1      11.683   1.555  24.734  0.00  0.00    +0.292 HD
ENDBRANCH  24  36
BRANCH  21  38
ATOM     38  O   UNL     1       8.071   5.063  22.836  0.00  0.00    -0.507 OA
ATOM     39  H   UNL     1       8.428   5.762  23.409  0.00  0.00    +0.292 HD
ENDBRANCH  21  38
ENDBRANCH  14  15
ENDBRANCH   3  14
BRANCH   1  40
ATOM     40  O   UNL     1       7.103  -4.762  26.173  0.00  0.00    -0.340 OA
BRANCH  40  43
ATOM     41  C   UNL     1       3.736  -6.104  26.302  0.00  0.00    +0.190 C 
ATOM     42  O   UNL     1       4.845  -5.205  26.067  0.00  0.00    -0.339 OA
ATOM     43  C   UNL     1       6.106  -5.719  26.537  0.00  0.00    +0.282 C 
ATOM     44  C   UNL     1       6.034  -5.942  28.068  0.00  0.00    +0.201 C 
ATOM     45  C   UNL     1       4.888  -6.909  28.378  0.00  0.00    +0.179 C 
ATOM     46  C   UNL     1       3.578  -6.353  27.810  0.00  0.00    +0.178 C 
BRANCH  46  47
ATOM     47  O   UNL     1       2.517  -7.263  28.098  0.00  0.00    -0.386 OA
ATOM     48  H   UNL     1       2.620  -7.538  29.029  0.00  0.00    +0.210 HD
ENDBRANCH  46  47
BRANCH  45  49
ATOM     49  O   UNL     1       4.764  -7.142  29.782  0.00  0.00    -0.386 OA
ATOM     50  H   UNL     1       4.809  -6.259  30.199  0.00  0.00    +0.210 HD
ENDBRANCH  45  49
BRANCH  44  51
ATOM     51  O   UNL     1       5.819  -4.681  28.735  0.00  0.00    -0.384 OA
ATOM     52  H   UNL     1       4.995  -4.754  29.252  0.00  0.00    +0.210 HD
ENDBRANCH  44  51
BRANCH  41  53
ATOM     53  C   UNL     1       3.828  -7.409  25.477  0.00  0.00    +0.266 C 
BRANCH  53  54
ATOM     54  O   UNL     1       4.185  -7.137  24.110  0.00  0.00    -0.462 OA
BRANCH  54  56
ATOM     55  C   UNL     1       1.981  -7.122  23.311  0.00  0.00    +0.136 C 
ATOM     56  C   UNL     1       3.278  -6.392  23.423  0.00  0.00    +0.304 C 
ATOM     57  O   UNL     1       3.485  -5.265  22.985  0.00  0.00    -0.251 OA
ENDBRANCH  54  56
ENDBRANCH  53  54
ENDBRANCH  41  53
ENDBRANCH  40  43
ENDBRANCH   1  40
TORSDOF 19
ENDMDL
MODEL 3
REMARK VINA RESULT:      -6.8      1.748      4.282
REMARK  Name = 
REMARK  20 active torsions:
REMARK  status: ('A' for Active; 'I' for Inactive)
REMARK    1  A    between atoms: C_1  and  C_2
REMARK    2  A    between atoms: C_2  and  O_4
REMARK    3  A    between atoms: O_4  and  C_5
REMARK    4  A    between atoms: C_5  and  C_6
REMARK    5  A    between atoms: C_7  and  O_53
REMARK    6  A    between atoms: C_9  and  O_52
REMARK    7  A    between atoms: C_11  and  O_51
REMARK    8  A    between atoms: C_12  and  O_15
REMARK    9  A    between atoms: O_15  and  C_16
REMARK   10  A    between atoms: C_18  and  O_50
REMARK   11  A    between atoms: C_20  and  C_48
REMARK   12  A    between atoms: C_22  and  O_26
REMARK   13  A    between atoms: C_24  and  O_25
REMARK   14  A    between atoms: O_26  and  C_27
REMARK   15  A    between atoms: C_28  and  C_40
REMARK   16  A    between atoms: C_32  and  O_39
REMARK   17  A    between atoms: C_34  and  O_38
REMARK   18  A    between atoms: C_42  and  O_47
REMARK   19  A    between atoms: C_43  and  O_46
REMARK   20  A    between atoms: C_48  and  O_49
REMARK                            x       y       z     vdW  Elec       q    Type
REMARK                         _______ _______ _______ _____ _____    ______ ____
ROOT
ATOM      1  C   UNL     1       6.256   2.462  27.283  0.00  0.00    +0.187 C 
ATOM      2  C   UNL     1       7.146   1.238  27.030  0.00  0.00    +0.214 C 
ATOM      3  C   UNL     1       6.331  -0.015  26.610  0.00  0.00    +0.340 C 
ATOM      4  O   UNL     1       5.230  -0.254  27.502  0.00  0.00    -0.331 OA
ATOM      5  C   UNL     1       4.353   0.878  27.667  0.00  0.00    +0.179 C 
ATOM      6  C   UNL     1       5.139   2.055  28.269  0.00  0.00    +0.177 C 
ENDROOT
BRANCH   6   7
ATOM      7  O   UNL     1       4.299   3.165  28.595  0.00  0.00    -0.386 OA
ATOM      8  H   UNL     1       3.401   2.948  28.278  0.00  0.00    +0.210 HD
ENDBRANCH   6   7
BRANCH   2   9
ATOM      9  O   UNL     1       7.882   0.987  28.248  0.00  0.00    -0.383 OA
ATOM     10  H   UNL     1       8.668   0.450  28.032  0.00  0.00    +0.210 HD
ENDBRANCH   2   9
BRANCH   5  11
ATOM     11  C   UNL     1       3.215   0.429  28.592  0.00  0.00    +0.190 C 
BRANCH  11  12
ATOM     12  O   UNL     1       3.529   0.735  29.952  0.00  0.00    -0.392 OA
ATOM     13  H   UNL     1       2.881   1.412  30.225  0.00  0.00    +0.210 HD
ENDBRANCH  11  12
ENDBRANCH   5  11
BRANCH   3  14
ATOM     14  O   UNL     1       5.942   0.027  25.230  0.00  0.00    -0.453 OA
BRANCH  14  15
ATOM     15  C   UNL     1       6.177  -1.113  24.459  0.00  0.00    +0.214 A 
ATOM     16  C   UNL     1       5.302  -2.325  24.616  0.00  0.00    +0.238 A 
ATOM     17  O   UNL     1       4.590  -2.489  25.601  0.00  0.00    -0.283 OA
ATOM     18  C   UNL     1       5.413  -3.400  23.619  0.00  0.00    +0.109 A 
ATOM     19  C   UNL     1       6.533  -3.379  22.803  0.00  0.00    +0.147 A 
ATOM     20  C   UNL     1       6.773  -4.417  21.897  0.00  0.00    +0.092 A 
ATOM     21  C   UNL     1       5.875  -5.475  21.823  0.00  0.00    +0.124 A 
ATOM     22  C   UNL     1       4.741  -5.507  22.627  0.00  0.00    +0.091 A 
ATOM     23  O   UNL     1       7.471  -2.392  22.868  0.00  0.00    -0.451 OA
ATOM     24  C   UNL     1       4.507  -4.465  23.521  0.00  0.00    +0.135 A 
ATOM     25  C   UNL     1       7.271  -1.264  23.668  0.00  0.00    +0.181 A 
BRANCH  25  26
ATOM     26  C   UNL     1       8.469  -0.348  23.577  0.00  0.00    +0.025 A 
ATOM     27  C   UNL     1       9.312  -0.206  24.711  0.00  0.00    +0.015 A 
ATOM     28  C   UNL     1      10.349   0.737  24.768  0.00  0.00    +0.050 A 
ATOM     29  C   UNL     1      10.569   1.553  23.680  0.00  0.00    +0.158 A 
ATOM     30  C   UNL     1       9.798   1.406  22.537  0.00  0.00    +0.159 A 
ATOM     31  C   UNL     1       8.765   0.466  22.473  0.00  0.00    +0.060 A 
BRANCH  30  32
ATOM     32  O   UNL     1      10.080   2.233  21.485  0.00  0.00    -0.503 OA
ATOM     33  H   UNL     1       9.366   2.905  21.447  0.00  0.00    +0.292 HD
ENDBRANCH  30  32
BRANCH  29  34
ATOM     34  O   UNL     1      11.545   2.502  23.735  0.00  0.00    -0.503 OA
ATOM     35  H   UNL     1      11.065   3.336  23.918  0.00  0.00    +0.292 HD
ENDBRANCH  29  34
ENDBRANCH  25  26
BRANCH  24  36
ATOM     36  O   UNL     1       3.375  -4.495  24.284  0.00  0.00    -0.506 OA
ATOM     37  H   UNL     1       3.000  -5.391  24.291  0.00  0.00    +0.292 HD
ENDBRANCH  24  36
BRANCH  21  38
ATOM     38  O   UNL     1       6.068  -6.519  20.966  0.00  0.00    -0.507 OA
ATOM     39  H   UNL     1       5.214  -6.784  20.587  0.00  0.00    +0.292 HD
ENDBRANCH  21  38
ENDBRANCH  14  15
ENDBRANCH   3  14
BRANCH   1  40
ATOM     40  O   UNL     1       5.787   2.956  26.015  0.00  0.00    -0.340 OA
BRANCH  40  43
ATOM     41  C   UNL     1       7.592   5.822  24.718  0.00  0.00    +0.190 C 
ATOM     42  O   UNL     1       6.617   5.023  25.428  0.00  0.00    -0.339 OA
ATOM     43  C   UNL     1       6.763   3.609  25.200  0.00  0.00    +0.282 C 
ATOM     44  C   UNL     1       6.571   3.306  23.693  0.00  0.00    +0.201 C 
ATOM     45  C   UNL     1       7.597   4.109  22.889  0.00  0.00    +0.179 C 
ATOM     46  C   UNL     1       7.446   5.600  23.205  0.00  0.00    +0.178 C 
BRANCH  46  47
ATOM     47  O   UNL     1       8.409   6.340  22.456  0.00  0.00    -0.386 OA
ATOM     48  H   UNL     1       8.069   6.413  21.544  0.00  0.00    +0.210 HD
ENDBRANCH  46  47
BRANCH  45  49
ATOM     49  O   UNL     1       7.458   3.881  21.485  0.00  0.00    -0.386 OA
ATOM     50  H   UNL     1       7.157   2.955  21.399  0.00  0.00    +0.210 HD
ENDBRANCH  45  49
BRANCH  44  51
ATOM     51  O   UNL     1       5.232   3.660  23.291  0.00  0.00    -0.384 OA
ATOM     52  H   UNL     1       4.648   3.537  24.063  0.00  0.00    +0.210 HD
ENDBRANCH  44  51
BRANCH  41  53
ATOM     53  C   UNL     1       9.038   5.607  25.227  0.00  0.00    +0.266 C 
BRANCH  53  54
ATOM     54  O   UNL     1       9.916   6.643  24.752  0.00  0.00    -0.462 OA
BRANCH  54  56
ATOM     55  C   UNL     1      12.218   6.733  25.190  0.00  0.00    +0.136 C 
ATOM     56  C   UNL     1      11.128   6.206  24.316  0.00  0.00    +0.304 C 
ATOM     57  O   UNL     1      11.301   5.458  23.360  0.00  0.00    -0.251 OA
ENDBRANCH  54  56
ENDBRANCH  53  54
ENDBRANCH  41  53
ENDBRANCH  40  43
ENDBRANCH   1  40
TORSDOF 19
ENDMDL
MODEL 4
REMARK VINA RESULT:      -6.8      2.150      8.190
REMARK  Name = 
REMARK  20 active torsions:
REMARK  status: ('A' for Active; 'I' for Inactive)
REMARK    1  A    between atoms: C_1  and  C_2
REMARK    2  A    between atoms: C_2  and  O_4
REMARK    3  A    between atoms: O_4  and  C_5
REMARK    4  A    between atoms: C_5  and  C_6
REMARK    5  A    between atoms: C_7  and  O_53
REMARK    6  A    between atoms: C_9  and  O_52
REMARK    7  A    between atoms: C_11  and  O_51
REMARK    8  A    between atoms: C_12  and  O_15
REMARK    9  A    between atoms: O_15  and  C_16
REMARK   10  A    between atoms: C_18  and  O_50
REMARK   11  A    between atoms: C_20  and  C_48
REMARK   12  A    between atoms: C_22  and  O_26
REMARK   13  A    between atoms: C_24  and  O_25
REMARK   14  A    between atoms: O_26  and  C_27
REMARK   15  A    between atoms: C_28  and  C_40
REMARK   16  A    between atoms: C_32  and  O_39
REMARK   17  A    between atoms: C_34  and  O_38
REMARK   18  A    between atoms: C_42  and  O_47
REMARK   19  A    between atoms: C_43  and  O_46
REMARK   20  A    between atoms: C_48  and  O_49
REMARK                            x       y       z     vdW  Elec       q    Type
REMARK                         _______ _______ _______ _____ _____    ______ ____
ROOT
ATOM      1  C   UNL     1       8.222  -2.393  25.772  0.00  0.00    +0.187 C 
ATOM      2  C   UNL     1       8.199  -0.991  26.393  0.00  0.00    +0.214 C 
ATOM      3  C   UNL     1       8.268   0.135  25.326  0.00  0.00    +0.340 C 
ATOM      4  O   UNL     1       9.339  -0.085  24.392  0.00  0.00    -0.331 OA
ATOM      5  C   UNL     1       9.302  -1.376  23.753  0.00  0.00    +0.179 C 
ATOM      6  C   UNL     1       9.431  -2.481  24.815  0.00  0.00    +0.177 C 
ENDROOT
BRANCH   6   7
ATOM      7  O   UNL     1       9.548  -3.784  24.238  0.00  0.00    -0.386 OA
ATOM      8  H   UNL     1       9.037  -3.777  23.407  0.00  0.00    +0.210 HD
ENDBRANCH   6   7
BRANCH   2   9
ATOM      9  O   UNL     1       9.322  -0.907  27.300  0.00  0.00    -0.383 OA
ATOM     10  H   UNL     1       9.240  -0.085  27.820  0.00  0.00    +0.210 HD
ENDBRANCH   2   9
BRANCH   5  11
ATOM     11  C   UNL     1      10.467  -1.414  22.757  0.00  0.00    +0.190 C 
BRANCH  11  12
ATOM     12  O   UNL     1       9.977  -1.523  21.420  0.00  0.00    -0.392 OA
ATOM     13  H   UNL     1       9.111  -1.966  21.493  0.00  0.00    +0.210 HD
ENDBRANCH  11  12
ENDBRANCH   5  11
BRANCH   3  14
ATOM     14  O   UNL     1       7.002   0.361  24.691  0.00  0.00    -0.453 OA
BRANCH  14  15
ATOM     15  C   UNL     1       6.067   1.137  25.376  0.00  0.00    +0.214 A 
ATOM     16  C   UNL     1       4.840   0.499  25.965  0.00  0.00    +0.238 A 
ATOM     17  O   UNL     1       4.452  -0.609  25.612  0.00  0.00    -0.283 OA
ATOM     18  C   UNL     1       4.017   1.291  26.891  0.00  0.00    +0.109 A 
ATOM     19  C   UNL     1       4.232   2.659  26.902  0.00  0.00    +0.147 A 
ATOM     20  C   UNL     1       3.427   3.501  27.674  0.00  0.00    +0.092 A 
ATOM     21  C   UNL     1       2.402   2.951  28.435  0.00  0.00    +0.124 A 
ATOM     22  C   UNL     1       2.178   1.579  28.444  0.00  0.00    +0.091 A 
ATOM     23  O   UNL     1       5.190   3.257  26.138  0.00  0.00    -0.451 OA
ATOM     24  C   UNL     1       2.990   0.747  27.676  0.00  0.00    +0.135 A 
ATOM     25  C   UNL     1       6.109   2.495  25.412  0.00  0.00    +0.181 A 
BRANCH  25  26
ATOM     26  C   UNL     1       7.036   3.403  24.638  0.00  0.00    +0.025 A 
ATOM     27  C   UNL     1       8.234   3.849  25.259  0.00  0.00    +0.015 A 
ATOM     28  C   UNL     1       9.070   4.814  24.679  0.00  0.00    +0.050 A 
ATOM     29  C   UNL     1       8.727   5.345  23.455  0.00  0.00    +0.158 A 
ATOM     30  C   UNL     1       7.593   4.894  22.798  0.00  0.00    +0.159 A 
ATOM     31  C   UNL     1       6.756   3.931  23.369  0.00  0.00    +0.060 A 
BRANCH  30  32
ATOM     32  O   UNL     1       7.319   5.447  21.577  0.00  0.00    -0.503 OA
ATOM     33  H   UNL     1       8.158   5.830  21.239  0.00  0.00    +0.292 HD
ENDBRANCH  30  32
BRANCH  29  34
ATOM     34  O   UNL     1       9.507   6.313  22.897  0.00  0.00    -0.503 OA
ATOM     35  H   UNL     1       9.766   5.949  22.026  0.00  0.00    +0.292 HD
ENDBRANCH  29  34
ENDBRANCH  25  26
BRANCH  24  36
ATOM     36  O   UNL     1       2.777  -0.601  27.717  0.00  0.00    -0.506 OA
ATOM     37  H   UNL     1       1.827  -0.791  27.654  0.00  0.00    +0.292 HD
ENDBRANCH  24  36
BRANCH  21  38
ATOM     38  O   UNL     1       1.579   3.727  29.196  0.00  0.00    -0.507 OA
ATOM     39  H   UNL     1       1.705   4.660  28.956  0.00  0.00    +0.292 HD
ENDBRANCH  21  38
ENDBRANCH  14  15
ENDBRANCH   3  14
BRANCH   1  40
ATOM     40  O   UNL     1       6.947  -2.640  25.153  0.00  0.00    -0.340 OA
BRANCH  40  43
ATOM     41  C   UNL     1       4.557  -5.313  24.605  0.00  0.00    +0.190 C 
ATOM     42  O   UNL     1       5.133  -3.990  24.710  0.00  0.00    -0.339 OA
ATOM     43  C   UNL     1       6.499  -3.997  25.168  0.00  0.00    +0.282 C 
ATOM     44  C   UNL     1       6.565  -4.624  26.583  0.00  0.00    +0.201 C 
ATOM     45  C   UNL     1       5.989  -6.042  26.528  0.00  0.00    +0.179 C 
ATOM     46  C   UNL     1       4.558  -5.994  25.982  0.00  0.00    +0.178 C 
BRANCH  46  47
ATOM     47  O   UNL     1       4.031  -7.318  25.929  0.00  0.00    -0.386 OA
ATOM     48  H   UNL     1       4.460  -7.768  25.176  0.00  0.00    +0.210 HD
ENDBRANCH  46  47
BRANCH  45  49
ATOM     49  O   UNL     1       6.011  -6.666  27.814  0.00  0.00    -0.386 OA
ATOM     50  H   UNL     1       6.168  -7.615  27.641  0.00  0.00    +0.210 HD
ENDBRANCH  45  49
BRANCH  44  51
ATOM     51  O   UNL     1       5.816  -3.814  27.511  0.00  0.00    -0.384 OA
ATOM     52  H   UNL     1       5.002  -4.300  27.741  0.00  0.00    +0.210 HD
ENDBRANCH  44  51
BRANCH  41  53
ATOM     53  C   UNL     1       5.215  -6.174  23.500  0.00  0.00    +0.266 C 
BRANCH  53  54
ATOM     54  O   UNL     1       4.941  -5.641  22.192  0.00  0.00    -0.462 OA
BRANCH  54  56
ATOM     55  C   UNL     1       7.258  -5.985  22.083  0.00  0.00    +0.136 C 
ATOM     56  C   UNL     1       6.008  -5.624  21.350  0.00  0.00    +0.304 C 
ATOM     57  O   UNL     1       5.950  -5.379  20.149  0.00  0.00    -0.251 OA
ENDBRANCH  54  56
ENDBRANCH  53  54
ENDBRANCH  41  53
ENDBRANCH  40  43
ENDBRANCH   1  40
TORSDOF 19
ENDMDL
MODEL 5
REMARK VINA RESULT:      -6.8      2.461      9.635
REMARK  Name = 
REMARK  20 active torsions:
REMARK  status: ('A' for Active; 'I' for Inactive)
REMARK    1  A    between atoms: C_1  and  C_2
REMARK    2  A    between atoms: C_2  and  O_4
REMARK    3  A    between atoms: O_4  and  C_5
REMARK    4  A    between atoms: C_5  and  C_6
REMARK    5  A    between atoms: C_7  and  O_53
REMARK    6  A    between atoms: C_9  and  O_52
REMARK    7  A    between atoms: C_11  and  O_51
REMARK    8  A    between atoms: C_12  and  O_15
REMARK    9  A    between atoms: O_15  and  C_16
REMARK   10  A    between atoms: C_18  and  O_50
REMARK   11  A    between atoms: C_20  and  C_48
REMARK   12  A    between atoms: C_22  and  O_26
REMARK   13  A    between atoms: C_24  and  O_25
REMARK   14  A    between atoms: O_26  and  C_27
REMARK   15  A    between atoms: C_28  and  C_40
REMARK   16  A    between atoms: C_32  and  O_39
REMARK   17  A    between atoms: C_34  and  O_38
REMARK   18  A    between atoms: C_42  and  O_47
REMARK   19  A    between atoms: C_43  and  O_46
REMARK   20  A    between atoms: C_48  and  O_49
REMARK                            x       y       z     vdW  Elec       q    Type
REMARK                         _______ _______ _______ _____ _____    ______ ____
ROOT
ATOM      1  C   UNL     1       5.110  -4.595  26.666  0.00  0.00    +0.187 C 
ATOM      2  C   UNL     1       4.703  -3.175  27.081  0.00  0.00    +0.214 C 
ATOM      3  C   UNL     1       5.679  -2.094  26.543  0.00  0.00    +0.340 C 
ATOM      4  O   UNL     1       7.048  -2.428  26.828  0.00  0.00    -0.331 OA
ATOM      5  C   UNL     1       7.442  -3.732  26.359  0.00  0.00    +0.179 C 
ATOM      6  C   UNL     1       6.590  -4.809  27.052  0.00  0.00    +0.177 C 
ENDROOT
BRANCH   6   7
ATOM      7  O   UNL     1       7.025  -6.135  26.743  0.00  0.00    -0.386 OA
ATOM      8  H   UNL     1       6.473  -6.453  26.005  0.00  0.00    +0.210 HD
ENDBRANCH   6   7
BRANCH   2   9
ATOM      9  O   UNL     1       4.655  -3.150  28.525  0.00  0.00    -0.383 OA
ATOM     10  H   UNL     1       3.744  -3.355  28.810  0.00  0.00    +0.210 HD
ENDBRANCH   2   9
BRANCH   5  11
ATOM     11  C   UNL     1       8.930  -3.893  26.690  0.00  0.00    +0.190 C 
BRANCH  11  12
ATOM     12  O   UNL     1       9.442  -5.096  26.113  0.00  0.00    -0.392 OA
ATOM     13  H   UNL     1       9.525  -5.727  26.853  0.00  0.00    +0.210 HD
ENDBRANCH  11  12
ENDBRANCH   5  11
BRANCH   3  14
ATOM     14  O   UNL     1       5.446  -1.791  25.160  0.00  0.00    -0.453 OA
BRANCH  14  15
ATOM     15  C   UNL     1       6.406  -1.025  24.498  0.00  0.00    +0.214 A 
ATOM     16  C   UNL     1       6.528   0.446  24.783  0.00  0.00    +0.238 A 
ATOM     17  O   UNL     1       5.630   1.078  25.329  0.00  0.00    -0.283 OA
ATOM     18  C   UNL     1       7.704   1.162  24.268  0.00  0.00    +0.109 A 
ATOM     19  C   UNL     1       8.442   0.522  23.286  0.00  0.00    +0.147 A 
ATOM     20  C   UNL     1       9.515   1.169  22.666  0.00  0.00    +0.092 A 
ATOM     21  C   UNL     1       9.836   2.468  23.044  0.00  0.00    +0.124 A 
ATOM     22  C   UNL     1       9.112   3.122  24.035  0.00  0.00    +0.091 A 
ATOM     23  O   UNL     1       8.143  -0.732  22.842  0.00  0.00    -0.451 OA
ATOM     24  C   UNL     1       8.049   2.466  24.651  0.00  0.00    +0.135 A 
ATOM     25  C   UNL     1       7.154  -1.497  23.467  0.00  0.00    +0.181 A 
BRANCH  25  26
ATOM     26  C   UNL     1       7.008  -2.826  22.763  0.00  0.00    +0.025 A 
ATOM     27  C   UNL     1       5.921  -3.011  21.866  0.00  0.00    +0.015 A 
ATOM     28  C   UNL     1       5.619  -4.255  21.293  0.00  0.00    +0.050 A 
ATOM     29  C   UNL     1       6.411  -5.340  21.600  0.00  0.00    +0.158 A 
ATOM     30  C   UNL     1       7.510  -5.184  22.430  0.00  0.00    +0.159 A 
ATOM     31  C   UNL     1       7.819  -3.946  23.002  0.00  0.00    +0.060 A 
BRANCH  30  32
ATOM     32  O   UNL     1       8.266  -6.296  22.678  0.00  0.00    -0.503 OA
ATOM     33  H   UNL     1       8.468  -6.299  23.640  0.00  0.00    +0.292 HD
ENDBRANCH  30  32
BRANCH  29  34
ATOM     34  O   UNL     1       6.106  -6.564  21.084  0.00  0.00    -0.503 OA
ATOM     35  H   UNL     1       6.822  -7.150  21.406  0.00  0.00    +0.292 HD
ENDBRANCH  29  34
ENDBRANCH  25  26
BRANCH  24  36
ATOM     36  O   UNL     1       7.365   3.109  25.642  0.00  0.00    -0.506 OA
ATOM     37  H   UNL     1       7.985   3.563  26.236  0.00  0.00    +0.292 HD
ENDBRANCH  24  36
BRANCH  21  38
ATOM     38  O   UNL     1      10.864   3.150  22.463  0.00  0.00    -0.507 OA
ATOM     39  H   UNL     1      11.648   3.096  23.034  0.00  0.00    +0.292 HD
ENDBRANCH  21  38
ENDBRANCH  14  15
ENDBRANCH   3  14
BRANCH   1  40
ATOM     40  O   UNL     1       4.825  -4.762  25.265  0.00  0.00    -0.340 OA
BRANCH  40  43
ATOM     41  C   UNL     1       1.810  -6.667  25.921  0.00  0.00    +0.190 C 
ATOM     42  O   UNL     1       3.138  -6.113  26.062  0.00  0.00    -0.339 OA
ATOM     43  C   UNL     1       3.534  -5.288  24.950  0.00  0.00    +0.282 C 
ATOM     44  C   UNL     1       3.544  -6.139  23.655  0.00  0.00    +0.201 C 
ATOM     45  C   UNL     1       2.150  -6.734  23.439  0.00  0.00    +0.179 C 
ATOM     46  C   UNL     1       1.745  -7.554  24.668  0.00  0.00    +0.178 C 
BRANCH  46  47
ATOM     47  O   UNL     1       0.443  -8.100  24.461  0.00  0.00    -0.386 OA
ATOM     48  H   UNL     1       0.387  -8.358  23.521  0.00  0.00    +0.210 HD
ENDBRANCH  46  47
BRANCH  45  49
ATOM     49  O   UNL     1       2.103  -7.544  22.262  0.00  0.00    -0.386 OA
ATOM     50  H   UNL     1       2.061  -6.917  21.514  0.00  0.00    +0.210 HD
ENDBRANCH  45  49
BRANCH  44  51
ATOM     51  O   UNL     1       4.526  -7.189  23.769  0.00  0.00    -0.384 OA
ATOM     52  H   UNL     1       5.127  -7.119  23.004  0.00  0.00    +0.210 HD
ENDBRANCH  44  51
BRANCH  41  53
ATOM     53  C   UNL     1       0.697  -5.592  25.963  0.00  0.00    +0.266 C 
BRANCH  53  54
ATOM     54  O   UNL     1       0.872  -4.705  27.082  0.00  0.00    -0.462 OA
BRANCH  54  56
ATOM     55  C   UNL     1       0.914  -2.543  27.990  0.00  0.00    +0.136 C 
ATOM     56  C   UNL     1       0.934  -3.385  26.757  0.00  0.00    +0.304 C 
ATOM     57  O   UNL     1       1.027  -2.948  25.615  0.00  0.00    -0.251 OA
ENDBRANCH  54  56
ENDBRANCH  53  54
ENDBRANCH  41  53
ENDBRANCH  40  43
ENDBRANCH   1  40
TORSDOF 19
ENDMDL
MODEL 6
REMARK VINA RESULT:      -6.7      1.771      4.116
REMARK  Name = 
REMARK  20 active torsions:
REMARK  status: ('A' for Active; 'I' for Inactive)
REMARK    1  A    between atoms: C_1  and  C_2
REMARK    2  A    between atoms: C_2  and  O_4
REMARK    3  A    between atoms: O_4  and  C_5
REMARK    4  A    between atoms: C_5  and  C_6
REMARK    5  A    between atoms: C_7  and  O_53
REMARK    6  A    between atoms: C_9  and  O_52
REMARK    7  A    between atoms: C_11  and  O_51
REMARK    8  A    between atoms: C_12  and  O_15
REMARK    9  A    between atoms: O_15  and  C_16
REMARK   10  A    between atoms: C_18  and  O_50
REMARK   11  A    between atoms: C_20  and  C_48
REMARK   12  A    between atoms: C_22  and  O_26
REMARK   13  A    between atoms: C_24  and  O_25
REMARK   14  A    between atoms: O_26  and  C_27
REMARK   15  A    between atoms: C_28  and  C_40
REMARK   16  A    between atoms: C_32  and  O_39
REMARK   17  A    between atoms: C_34  and  O_38
REMARK   18  A    between atoms: C_42  and  O_47
REMARK   19  A    between atoms: C_43  and  O_46
REMARK   20  A    between atoms: C_48  and  O_49
REMARK                            x       y       z     vdW  Elec       q    Type
REMARK                         _______ _______ _______ _____ _____    ______ ____
ROOT
ATOM      1  C   UNL     1       7.397   1.286  26.045  0.00  0.00    +0.187 C 
ATOM      2  C   UNL     1       7.591  -0.226  26.222  0.00  0.00    +0.214 C 
ATOM      3  C   UNL     1       6.255  -0.972  26.483  0.00  0.00    +0.340 C 
ATOM      4  O   UNL     1       5.492  -0.343  27.527  0.00  0.00    -0.331 OA
ATOM      5  C   UNL     1       5.245   1.059  27.308  0.00  0.00    +0.179 C 
ATOM      6  C   UNL     1       6.583   1.816  27.246  0.00  0.00    +0.177 C 
ENDROOT
BRANCH   6   7
ATOM      7  O   UNL     1       6.409   3.232  27.177  0.00  0.00    -0.386 OA
ATOM      8  H   UNL     1       6.397   3.565  28.094  0.00  0.00    +0.210 HD
ENDBRANCH   6   7
BRANCH   2   9
ATOM      9  O   UNL     1       8.506  -0.412  27.326  0.00  0.00    -0.383 OA
ATOM     10  H   UNL     1       8.263  -1.232  27.796  0.00  0.00    +0.210 HD
ENDBRANCH   2   9
BRANCH   5  11
ATOM     11  C   UNL     1       4.377   1.546  28.475  0.00  0.00    +0.190 C 
BRANCH  11  12
ATOM     12  O   UNL     1       5.199   2.000  29.552  0.00  0.00    -0.392 OA
ATOM     13  H   UNL     1       5.659   1.206  29.883  0.00  0.00    +0.210 HD
ENDBRANCH  11  12
ENDBRANCH   5  11
BRANCH   3  14
ATOM     14  O   UNL     1       5.503  -1.177  25.279  0.00  0.00    -0.453 OA
BRANCH  14  15
ATOM     15  C   UNL     1       5.162  -2.489  24.948  0.00  0.00    +0.214 A 
ATOM     16  C   UNL     1       3.985  -3.154  25.605  0.00  0.00    +0.238 A 
ATOM     17  O   UNL     1       3.494  -2.724  26.644  0.00  0.00    -0.283 OA
ATOM     18  C   UNL     1       3.503  -4.427  25.052  0.00  0.00    +0.109 A 
ATOM     19  C   UNL     1       4.355  -5.092  24.186  0.00  0.00    +0.147 A 
ATOM     20  C   UNL     1       4.024  -6.357  23.692  0.00  0.00    +0.092 A 
ATOM     21  C   UNL     1       2.827  -6.947  24.082  0.00  0.00    +0.124 A 
ATOM     22  C   UNL     1       1.955  -6.290  24.943  0.00  0.00    +0.091 A 
ATOM     23  O   UNL     1       5.562  -4.583  23.809  0.00  0.00    -0.451 OA
ATOM     24  C   UNL     1       2.291  -5.027  25.424  0.00  0.00    +0.135 A 
ATOM     25  C   UNL     1       5.938  -3.286  24.168  0.00  0.00    +0.181 A 
BRANCH  25  26
ATOM     26  C   UNL     1       7.325  -2.988  23.647  0.00  0.00    +0.025 A 
ATOM     27  C   UNL     1       8.448  -3.385  24.421  0.00  0.00    +0.015 A 
ATOM     28  C   UNL     1       9.760  -3.012  24.095  0.00  0.00    +0.050 A 
ATOM     29  C   UNL     1       9.974  -2.239  22.974  0.00  0.00    +0.158 A 
ATOM     30  C   UNL     1       8.906  -1.877  22.168  0.00  0.00    +0.159 A 
ATOM     31  C   UNL     1       7.596  -2.248  22.486  0.00  0.00    +0.060 A 
BRANCH  30  32
ATOM     32  O   UNL     1       9.188  -1.127  21.060  0.00  0.00    -0.503 OA
ATOM     33  H   UNL     1       8.409  -1.184  20.466  0.00  0.00    +0.292 HD
ENDBRANCH  30  32
BRANCH  29  34
ATOM     34  O   UNL     1      11.238  -1.833  22.666  0.00  0.00    -0.503 OA
ATOM     35  H   UNL     1      11.145  -0.882  22.453  0.00  0.00    +0.292 HD
ENDBRANCH  29  34
ENDBRANCH  25  26
BRANCH  24  36
ATOM     36  O   UNL     1       1.413  -4.381  26.246  0.00  0.00    -0.506 OA
ATOM     37  H   UNL     1       0.709  -3.966  25.723  0.00  0.00    +0.292 HD
ENDBRANCH  24  36
BRANCH  21  38
ATOM     38  O   UNL     1       2.461  -8.184  23.641  0.00  0.00    -0.507 OA
ATOM     39  H   UNL     1       2.149  -8.714  24.393  0.00  0.00    +0.292 HD
ENDBRANCH  21  38
ENDBRANCH  14  15
ENDBRANCH   3  14
BRANCH   1  40
ATOM     40  O   UNL     1       6.793   1.522  24.760  0.00  0.00    -0.340 OA
BRANCH  40  43
ATOM     41  C   UNL     1       9.019   4.319  24.144  0.00  0.00    +0.190 C 
ATOM     42  O   UNL     1       8.264   3.294  24.831  0.00  0.00    -0.339 OA
ATOM     43  C   UNL     1       7.412   2.529  23.957  0.00  0.00    +0.282 C 
ATOM     44  C   UNL     1       6.377   3.471  23.292  0.00  0.00    +0.201 C 
ATOM     45  C   UNL     1       7.121   4.568  22.526  0.00  0.00    +0.179 C 
ATOM     46  C   UNL     1       8.058   5.317  23.479  0.00  0.00    +0.178 C 
BRANCH  46  47
ATOM     47  O   UNL     1       8.751   6.333  22.756  0.00  0.00    -0.386 OA
ATOM     48  H   UNL     1       8.607   6.158  21.807  0.00  0.00    +0.210 HD
ENDBRANCH  46  47
BRANCH  45  49
ATOM     49  O   UNL     1       6.214   5.479  21.901  0.00  0.00    -0.386 OA
ATOM     50  H   UNL     1       6.005   5.086  21.031  0.00  0.00    +0.210 HD
ENDBRANCH  45  49
BRANCH  44  51
ATOM     51  O   UNL     1       5.528   4.054  24.302  0.00  0.00    -0.384 OA
ATOM     52  H   UNL     1       5.753   3.638  25.155  0.00  0.00    +0.210 HD
ENDBRANCH  44  51
BRANCH  41  53
ATOM     53  C   UNL     1      10.070   3.744  23.165  0.00  0.00    +0.266 C 
BRANCH  53  54
ATOM     54  O   UNL     1      10.957   2.828  23.833  0.00  0.00    -0.462 OA
BRANCH  54  56
ATOM     55  C   UNL     1      10.908   0.693  24.801  0.00  0.00    +0.136 C 
ATOM     56  C   UNL     1      10.725   1.515  23.568  0.00  0.00    +0.304 C 
ATOM     57  O   UNL     1      10.381   1.070  22.478  0.00  0.00    -0.251 OA
ENDBRANCH  54  56
ENDBRANCH  53  54
ENDBRANCH  41  53
ENDBRANCH  40  43
ENDBRANCH   1  40
TORSDOF 19
ENDMDL
MODEL 7
REMARK VINA RESULT:      -6.7      2.242      8.488
REMARK  Name = 
REMARK  20 active torsions:
REMARK  status: ('A' for Active; 'I' for Inactive)
REMARK    1  A    between atoms: C_1  and  C_2
REMARK    2  A    between atoms: C_2  and  O_4
REMARK    3  A    between atoms: O_4  and  C_5
REMARK    4  A    between atoms: C_5  and  C_6
REMARK    5  A    between atoms: C_7  and  O_53
REMARK    6  A    between atoms: C_9  and  O_52
REMARK    7  A    between atoms: C_11  and  O_51
REMARK    8  A    between atoms: C_12  and  O_15
REMARK    9  A    between atoms: O_15  and  C_16
REMARK   10  A    between atoms: C_18  and  O_50
REMARK   11  A    between atoms: C_20  and  C_48
REMARK   12  A    between atoms: C_22  and  O_26
REMARK   13  A    between atoms: C_24  and  O_25
REMARK   14  A    between atoms: O_26  and  C_27
REMARK   15  A    between atoms: C_28  and  C_40
REMARK   16  A    between atoms: C_32  and  O_39
REMARK   17  A    between atoms: C_34  and  O_38
REMARK   18  A    between atoms: C_42  and  O_47
REMARK   19  A    between atoms: C_43  and  O_46
REMARK   20  A    between atoms: C_48  and  O_49
REMARK                            x       y       z     vdW  Elec       q    Type
REMARK                         _______ _______ _______ _____ _____    ______ ____
ROOT
ATOM      1  C   UNL     1       7.521  -2.468  24.811  0.00  0.00    +0.187 C 
ATOM      2  C   UNL     1       7.792  -1.251  25.705  0.00  0.00    +0.214 C 
ATOM      3  C   UNL     1       7.852   0.077  24.903  0.00  0.00    +0.340 C 
ATOM      4  O   UNL     1       8.722  -0.030  23.765  0.00  0.00    -0.331 OA
ATOM      5  C   UNL     1       8.406  -1.128  22.887  0.00  0.00    +0.179 C 
ATOM      6  C   UNL     1       8.542  -2.456  23.651  0.00  0.00    +0.177 C 
ENDROOT
BRANCH   6   7
ATOM      7  O   UNL     1       8.384  -3.595  22.803  0.00  0.00    -0.386 OA
ATOM      8  H   UNL     1       8.226  -4.364  23.383  0.00  0.00    +0.210 HD
ENDBRANCH   6   7
BRANCH   2   9
ATOM      9  O   UNL     1       9.043  -1.494  26.388  0.00  0.00    -0.383 OA
ATOM     10  H   UNL     1       8.856  -1.646  27.334  0.00  0.00    +0.210 HD
ENDBRANCH   2   9
BRANCH   5  11
ATOM     11  C   UNL     1       9.385  -1.054  21.709  0.00  0.00    +0.190 C 
BRANCH  11  12
ATOM     12  O   UNL     1      10.558  -1.820  21.988  0.00  0.00    -0.392 OA
ATOM     13  H   UNL     1      10.697  -1.747  22.951  0.00  0.00    +0.210 HD
ENDBRANCH  11  12
ENDBRANCH   5  11
BRANCH   3  14
ATOM     14  O   UNL     1       6.546   0.571  24.573  0.00  0.00    -0.453 OA
BRANCH  14  15
ATOM     15  C   UNL     1       5.897   1.361  25.522  0.00  0.00    +0.214 A 
ATOM     16  C   UNL     1       4.747   0.803  26.311  0.00  0.00    +0.238 A 
ATOM     17  O   UNL     1       4.140  -0.201  25.953  0.00  0.00    -0.283 OA
ATOM     18  C   UNL     1       4.259   1.565  27.469  0.00  0.00    +0.109 A 
ATOM     19  C   UNL     1       4.661   2.888  27.559  0.00  0.00    +0.147 A 
ATOM     20  C   UNL     1       4.165   3.716  28.570  0.00  0.00    +0.092 A 
ATOM     21  C   UNL     1       3.258   3.200  29.488  0.00  0.00    +0.124 A 
ATOM     22  C   UNL     1       2.850   1.873  29.419  0.00  0.00    +0.091 A 
ATOM     23  O   UNL     1       5.509   3.459  26.658  0.00  0.00    -0.451 OA
ATOM     24  C   UNL     1       3.356   1.053  28.412  0.00  0.00    +0.135 A 
ATOM     25  C   UNL     1       6.135   2.690  25.674  0.00  0.00    +0.181 A 
BRANCH  25  26
ATOM     26  C   UNL     1       6.995   3.572  24.799  0.00  0.00    +0.025 A 
ATOM     27  C   UNL     1       8.270   3.978  25.277  0.00  0.00    +0.015 A 
ATOM     28  C   UNL     1       9.064   4.919  24.605  0.00  0.00    +0.050 A 
ATOM     29  C   UNL     1       8.599   5.465  23.429  0.00  0.00    +0.158 A 
ATOM     30  C   UNL     1       7.382   5.053  22.907  0.00  0.00    +0.159 A 
ATOM     31  C   UNL     1       6.587   4.114  23.571  0.00  0.00    +0.060 A 
BRANCH  30  32
ATOM     32  O   UNL     1       6.987   5.620  21.727  0.00  0.00    -0.503 OA
ATOM     33  H   UNL     1       6.876   6.582  21.891  0.00  0.00    +0.292 HD
ENDBRANCH  30  32
BRANCH  29  34
ATOM     34  O   UNL     1       9.339   6.412  22.785  0.00  0.00    -0.503 OA
ATOM     35  H   UNL     1       8.948   6.461  21.890  0.00  0.00    +0.292 HD
ENDBRANCH  29  34
ENDBRANCH  25  26
BRANCH  24  36
ATOM     36  O   UNL     1       2.970  -0.256  28.374  0.00  0.00    -0.506 OA
ATOM     37  H   UNL     1       2.946  -0.571  27.456  0.00  0.00    +0.292 HD
ENDBRANCH  24  36
BRANCH  21  38
ATOM     38  O   UNL     1       2.733   3.968  30.485  0.00  0.00    -0.507 OA
ATOM     39  H   UNL     1       1.829   3.669  30.678  0.00  0.00    +0.292 HD
ENDBRANCH  21  38
ENDBRANCH  14  15
ENDBRANCH   3  14
BRANCH   1  40
ATOM     40  O   UNL     1       6.143  -2.433  24.397  0.00  0.00    -0.340 OA
BRANCH  40  43
ATOM     41  C   UNL     1       5.737  -5.947  25.198  0.00  0.00    +0.190 C 
ATOM     42  O   UNL     1       6.350  -4.676  24.880  0.00  0.00    -0.339 OA
ATOM     43  C   UNL     1       5.394  -3.630  24.625  0.00  0.00    +0.282 C 
ATOM     44  C   UNL     1       4.517  -4.017  23.408  0.00  0.00    +0.201 C 
ATOM     45  C   UNL     1       3.820  -5.348  23.699  0.00  0.00    +0.179 C 
ATOM     46  C   UNL     1       4.869  -6.418  24.021  0.00  0.00    +0.178 C 
BRANCH  46  47
ATOM     47  O   UNL     1       4.211  -7.653  24.297  0.00  0.00    -0.386 OA
ATOM     48  H   UNL     1       3.322  -7.435  24.638  0.00  0.00    +0.210 HD
ENDBRANCH  46  47
BRANCH  45  49
ATOM     49  O   UNL     1       3.006  -5.765  22.601  0.00  0.00    -0.386 OA
ATOM     50  H   UNL     1       3.593  -6.290  22.023  0.00  0.00    +0.210 HD
ENDBRANCH  45  49
BRANCH  44  51
ATOM     51  O   UNL     1       5.341  -4.129  22.229  0.00  0.00    -0.384 OA
ATOM     52  H   UNL     1       5.413  -3.242  21.831  0.00  0.00    +0.210 HD
ENDBRANCH  44  51
BRANCH  41  53
ATOM     53  C   UNL     1       4.977  -5.932  26.546  0.00  0.00    +0.266 C 
BRANCH  53  54
ATOM     54  O   UNL     1       5.148  -7.172  27.255  0.00  0.00    -0.462 OA
BRANCH  54  56
ATOM     55  C   UNL     1       4.106  -6.748  29.312  0.00  0.00    +0.136 C 
ATOM     56  C   UNL     1       5.379  -7.038  28.588  0.00  0.00    +0.304 C 
ATOM     57  O   UNL     1       6.473  -7.169  29.127  0.00  0.00    -0.251 OA
ENDBRANCH  54  56
ENDBRANCH  53  54
ENDBRANCH  41  53
ENDBRANCH  40  43
ENDBRANCH   1  40
TORSDOF 19
ENDMDL
MODEL 8
REMARK VINA RESULT:      -6.7      1.952      9.562
REMARK  Name = 
REMARK  20 active torsions:
REMARK  status: ('A' for Active; 'I' for Inactive)
REMARK    1  A    between atoms: C_1  and  C_2
REMARK    2  A    between atoms: C_2  and  O_4
REMARK    3  A    between atoms: O_4  and  C_5
REMARK    4  A    between atoms: C_5  and  C_6
REMARK    5  A    between atoms: C_7  and  O_53
REMARK    6  A    between atoms: C_9  and  O_52
REMARK    7  A    between atoms: C_11  and  O_51
REMARK    8  A    between atoms: C_12  and  O_15
REMARK    9  A    between atoms: O_15  and  C_16
REMARK   10  A    between atoms: C_18  and  O_50
REMARK   11  A    between atoms: C_20  and  C_48
REMARK   12  A    between atoms: C_22  and  O_26
REMARK   13  A    between atoms: C_24  and  O_25
REMARK   14  A    between atoms: O_26  and  C_27
REMARK   15  A    between atoms: C_28  and  C_40
REMARK   16  A    between atoms: C_32  and  O_39
REMARK   17  A    between atoms: C_34  and  O_38
REMARK   18  A    between atoms: C_42  and  O_47
REMARK   19  A    between atoms: C_43  and  O_46
REMARK   20  A    between atoms: C_48  and  O_49
REMARK                            x       y       z     vdW  Elec       q    Type
REMARK                         _______ _______ _______ _____ _____    ______ ____
ROOT
ATOM      1  C   UNL     1       5.509   0.252  24.880  0.00  0.00    +0.187 C 
ATOM      2  C   UNL     1       6.046   1.461  24.103  0.00  0.00    +0.214 C 
ATOM      3  C   UNL     1       6.797   2.470  25.014  0.00  0.00    +0.340 C 
ATOM      4  O   UNL     1       6.025   2.806  26.180  0.00  0.00    -0.331 OA
ATOM      5  C   UNL     1       5.597   1.665  26.948  0.00  0.00    +0.179 C 
ATOM      6  C   UNL     1       4.691   0.772  26.083  0.00  0.00    +0.177 C 
ENDROOT
BRANCH   6   7
ATOM      7  O   UNL     1       4.112  -0.303  26.825  0.00  0.00    -0.386 OA
ATOM      8  H   UNL     1       4.759  -0.562  27.508  0.00  0.00    +0.210 HD
ENDBRANCH   6   7
BRANCH   2   9
ATOM      9  O   UNL     1       4.916   2.093  23.461  0.00  0.00    -0.383 OA
ATOM     10  H   UNL     1       4.625   1.530  22.719  0.00  0.00    +0.210 HD
ENDBRANCH   2   9
BRANCH   5  11
ATOM     11  C   UNL     1       4.848   2.207  28.171  0.00  0.00    +0.190 C 
BRANCH  11  12
ATOM     12  O   UNL     1       4.804   1.221  29.205  0.00  0.00    -0.392 OA
ATOM     13  H   UNL     1       3.999   0.697  29.033  0.00  0.00    +0.210 HD
ENDBRANCH  11  12
ENDBRANCH   5  11
BRANCH   3  14
ATOM     14  O   UNL     1       8.129   2.037  25.324  0.00  0.00    -0.453 OA
BRANCH  14  15
ATOM     15  C   UNL     1       9.180   2.643  24.635  0.00  0.00    +0.214 A 
ATOM     16  C   UNL     1       9.366   4.133  24.697  0.00  0.00    +0.238 A 
ATOM     17  O   UNL     1       8.467   4.884  25.060  0.00  0.00    -0.283 OA
ATOM     18  C   UNL     1      10.617   4.703  24.178  0.00  0.00    +0.109 A 
ATOM     19  C   UNL     1      11.390   3.882  23.374  0.00  0.00    +0.147 A 
ATOM     20  C   UNL     1      12.543   4.372  22.755  0.00  0.00    +0.092 A 
ATOM     21  C   UNL     1      12.909   5.698  22.952  0.00  0.00    +0.124 A 
ATOM     22  C   UNL     1      12.151   6.534  23.764  0.00  0.00    +0.091 A 
ATOM     23  O   UNL     1      11.052   2.588  23.107  0.00  0.00    -0.451 OA
ATOM     24  C   UNL     1      11.007   6.035  24.382  0.00  0.00    +0.135 A 
ATOM     25  C   UNL     1       9.976   1.979  23.757  0.00  0.00    +0.181 A 
BRANCH  25  26
ATOM     26  C   UNL     1       9.807   0.563  23.258  0.00  0.00    +0.025 A 
ATOM     27  C   UNL     1       9.125   0.345  22.030  0.00  0.00    +0.015 A 
ATOM     28  C   UNL     1       8.786  -0.936  21.572  0.00  0.00    +0.050 A 
ATOM     29  C   UNL     1       9.134  -2.031  22.333  0.00  0.00    +0.158 A 
ATOM     30  C   UNL     1       9.845  -1.858  23.510  0.00  0.00    +0.159 A 
ATOM     31  C   UNL     1      10.189  -0.583  23.971  0.00  0.00    +0.060 A 
BRANCH  30  32
ATOM     32  O   UNL     1      10.178  -2.986  24.208  0.00  0.00    -0.503 OA
ATOM     33  H   UNL     1      10.360  -2.709  25.133  0.00  0.00    +0.292 HD
ENDBRANCH  30  32
BRANCH  29  34
ATOM     34  O   UNL     1       8.775  -3.280  21.922  0.00  0.00    -0.503 OA
ATOM     35  H   UNL     1       9.620  -3.707  21.672  0.00  0.00    +0.292 HD
ENDBRANCH  29  34
ENDBRANCH  25  26
BRANCH  24  36
ATOM     36  O   UNL     1      10.289   6.859  25.200  0.00  0.00    -0.506 OA
ATOM     37  H   UNL     1      10.774   7.686  25.352  0.00  0.00    +0.292 HD
ENDBRANCH  24  36
BRANCH  21  38
ATOM     38  O   UNL     1      14.017   6.231  22.361  0.00  0.00    -0.507 OA
ATOM     39  H   UNL     1      14.556   6.678  23.034  0.00  0.00    +0.292 HD
ENDBRANCH  21  38
ENDBRANCH  14  15
ENDBRANCH   3  14
BRANCH   1  40
ATOM     40  O   UNL     1       6.619  -0.596  25.230  0.00  0.00    -0.340 OA
BRANCH  40  43
ATOM     41  C   UNL     1       4.870  -3.514  23.973  0.00  0.00    +0.190 C 
ATOM     42  O   UNL     1       5.130  -2.180  24.467  0.00  0.00    -0.339 OA
ATOM     43  C   UNL     1       6.506  -1.964  24.833  0.00  0.00    +0.282 C 
ATOM     44  C   UNL     1       6.897  -2.942  25.969  0.00  0.00    +0.201 C 
ATOM     45  C   UNL     1       6.666  -4.378  25.492  0.00  0.00    +0.179 C 
ATOM     46  C   UNL     1       5.207  -4.547  25.059  0.00  0.00    +0.178 C 
BRANCH  46  47
ATOM     47  O   UNL     1       5.001  -5.886  24.610  0.00  0.00    -0.386 OA
ATOM     48  H   UNL     1       4.095  -6.140  24.872  0.00  0.00    +0.210 HD
ENDBRANCH  46  47
BRANCH  45  49
ATOM     49  O   UNL     1       6.997  -5.328  26.508  0.00  0.00    -0.386 OA
ATOM     50  H   UNL     1       6.422  -6.100  26.342  0.00  0.00    +0.210 HD
ENDBRANCH  45  49
BRANCH  44  51
ATOM     51  O   UNL     1       6.104  -2.670  27.142  0.00  0.00    -0.384 OA
ATOM     52  H   UNL     1       6.177  -1.716  27.335  0.00  0.00    +0.210 HD
ENDBRANCH  44  51
BRANCH  41  53
ATOM     53  C   UNL     1       5.565  -3.805  22.621  0.00  0.00    +0.266 C 
BRANCH  53  54
ATOM     54  O   UNL     1       5.102  -5.044  22.054  0.00  0.00    -0.462 OA
BRANCH  54  56
ATOM     55  C   UNL     1       7.053  -6.344  22.035  0.00  0.00    +0.136 C 
ATOM     56  C   UNL     1       5.993  -5.662  21.234  0.00  0.00    +0.304 C 
ATOM     57  O   UNL     1       5.921  -5.686  20.010  0.00  0.00    -0.251 OA
ENDBRANCH  54  56
ENDBRANCH  53  54
ENDBRANCH  41  53
ENDBRANCH  40  43
ENDBRANCH   1  40
TORSDOF 19
ENDMDL
MODEL 9
REMARK VINA RESULT:      -6.7      2.499      8.745
REMARK  Name = 
REMARK  20 active torsions:
REMARK  status: ('A' for Active; 'I' for Inactive)
REMARK    1  A    between atoms: C_1  and  C_2
REMARK    2  A    between atoms: C_2  and  O_4
REMARK    3  A    between atoms: O_4  and  C_5
REMARK    4  A    between atoms: C_5  and  C_6
REMARK    5  A    between atoms: C_7  and  O_53
REMARK    6  A    between atoms: C_9  and  O_52
REMARK    7  A    between atoms: C_11  and  O_51
REMARK    8  A    between atoms: C_12  and  O_15
REMARK    9  A    between atoms: O_15  and  C_16
REMARK   10  A    between atoms: C_18  and  O_50
REMARK   11  A    between atoms: C_20  and  C_48
REMARK   12  A    between atoms: C_22  and  O_26
REMARK   13  A    between atoms: C_24  and  O_25
REMARK   14  A    between atoms: O_26  and  C_27
REMARK   15  A    between atoms: C_28  and  C_40
REMARK   16  A    between atoms: C_32  and  O_39
REMARK   17  A    between atoms: C_34  and  O_38
REMARK   18  A    between atoms: C_42  and  O_47
REMARK   19  A    between atoms: C_43  and  O_46
REMARK   20  A    between atoms: C_48  and  O_49
REMARK                            x       y       z     vdW  Elec       q    Type
REMARK                         _______ _______ _______ _____ _____    ______ ____
ROOT
ATOM      1  C   UNL     1       7.305  -3.929  25.054  0.00  0.00    +0.187 C 
ATOM      2  C   UNL     1       7.318  -2.949  26.235  0.00  0.00    +0.214 C 
ATOM      3  C   UNL     1       7.508  -1.476  25.784  0.00  0.00    +0.340 C 
ATOM      4  O   UNL     1       8.619  -1.337  24.882  0.00  0.00    -0.331 OA
ATOM      5  C   UNL     1       8.553  -2.204  23.734  0.00  0.00    +0.179 C 
ATOM      6  C   UNL     1       8.562  -3.671  24.194  0.00  0.00    +0.177 C 
ENDROOT
BRANCH   6   7
ATOM      7  O   UNL     1       8.645  -4.588  23.101  0.00  0.00    -0.386 OA
ATOM      8  H   UNL     1       9.545  -4.966  23.111  0.00  0.00    +0.210 HD
ENDBRANCH   6   7
BRANCH   2   9
ATOM      9  O   UNL     1       8.389  -3.358  27.116  0.00  0.00    -0.383 OA
ATOM     10  H   UNL     1       8.093  -3.239  28.039  0.00  0.00    +0.210 HD
ENDBRANCH   2   9
BRANCH   5  11
ATOM     11  C   UNL     1       9.772  -1.881  22.861  0.00  0.00    +0.190 C 
BRANCH  11  12
ATOM     12  O   UNL     1       9.363  -1.588  21.524  0.00  0.00    -0.392 OA
ATOM     13  H   UNL     1       9.932  -2.135  20.950  0.00  0.00    +0.210 HD
ENDBRANCH  11  12
ENDBRANCH   5  11
BRANCH   3  14
ATOM     14  O   UNL     1       6.295  -0.901  25.279  0.00  0.00    -0.453 OA
BRANCH  14  15
ATOM     15  C   UNL     1       5.944   0.370  25.737  0.00  0.00    +0.214 A 
ATOM     16  C   UNL     1       4.671   0.571  26.510  0.00  0.00    +0.238 A 
ATOM     17  O   UNL     1       3.765  -0.255  26.493  0.00  0.00    -0.283 OA
ATOM     18  C   UNL     1       4.463   1.856  27.192  0.00  0.00    +0.109 A 
ATOM     19  C   UNL     1       5.285   2.904  26.810  0.00  0.00    +0.147 A 
ATOM     20  C   UNL     1       5.091   4.187  27.331  0.00  0.00    +0.092 A 
ATOM     21  C   UNL     1       4.061   4.404  28.238  0.00  0.00    +0.124 A 
ATOM     22  C   UNL     1       3.233   3.362  28.640  0.00  0.00    +0.091 A 
ATOM     23  O   UNL     1       6.278   2.759  25.888  0.00  0.00    -0.451 OA
ATOM     24  C   UNL     1       3.438   2.085  28.121  0.00  0.00    +0.135 A 
ATOM     25  C   UNL     1       6.614   1.499  25.387  0.00  0.00    +0.181 A 
BRANCH  25  26
ATOM     26  C   UNL     1       7.722   1.627  24.367  0.00  0.00    +0.025 A 
ATOM     27  C   UNL     1       8.963   2.189  24.772  0.00  0.00    +0.015 A 
ATOM     28  C   UNL     1       9.987   2.490  23.862  0.00  0.00    +0.050 A 
ATOM     29  C   UNL     1       9.791   2.223  22.525  0.00  0.00    +0.158 A 
ATOM     30  C   UNL     1       8.612   1.628  22.103  0.00  0.00    +0.159 A 
ATOM     31  C   UNL     1       7.588   1.323  23.005  0.00  0.00    +0.060 A 
BRANCH  30  32
ATOM     32  O   UNL     1       8.489   1.371  20.765  0.00  0.00    -0.503 OA
ATOM     33  H   UNL     1       9.394   1.219  20.415  0.00  0.00    +0.292 HD
ENDBRANCH  30  32
BRANCH  29  34
ATOM     34  O   UNL     1      10.760   2.548  21.623  0.00  0.00    -0.503 OA
ATOM     35  H   UNL     1      10.876   1.738  21.085  0.00  0.00    +0.292 HD
ENDBRANCH  29  34
ENDBRANCH  25  26
BRANCH  24  36
ATOM     36  O   UNL     1       2.636   1.066  28.546  0.00  0.00    -0.506 OA
ATOM     37  H   UNL     1       1.703   1.330  28.493  0.00  0.00    +0.292 HD
ENDBRANCH  24  36
BRANCH  21  38
ATOM     38  O   UNL     1       3.820   5.638  28.767  0.00  0.00    -0.507 OA
ATOM     39  H   UNL     1       3.833   6.299  28.056  0.00  0.00    +0.292 HD
ENDBRANCH  21  38
ENDBRANCH  14  15
ENDBRANCH   3  14
BRANCH   1  40
ATOM     40  O   UNL     1       6.057  -3.783  24.352  0.00  0.00    -0.340 OA
BRANCH  40  43
ATOM     41  C   UNL     1       4.744  -7.016  25.340  0.00  0.00    +0.190 C 
ATOM     42  O   UNL     1       5.657  -5.984  24.898  0.00  0.00    -0.339 OA
ATOM     43  C   UNL     1       5.026  -4.703  24.716  0.00  0.00    +0.282 C 
ATOM     44  C   UNL     1       3.928  -4.818  23.629  0.00  0.00    +0.201 C 
ATOM     45  C   UNL     1       2.914  -5.883  24.056  0.00  0.00    +0.179 C 
ATOM     46  C   UNL     1       3.635  -7.213  24.295  0.00  0.00    +0.178 C 
BRANCH  46  47
ATOM     47  O   UNL     1       2.684  -8.197  24.698  0.00  0.00    -0.386 OA
ATOM     48  H   UNL     1       3.021  -8.603  25.519  0.00  0.00    +0.210 HD
ENDBRANCH  46  47
BRANCH  45  49
ATOM     49  O   UNL     1       1.881  -6.043  23.081  0.00  0.00    -0.386 OA
ATOM     50  H   UNL     1       1.045  -6.072  23.586  0.00  0.00    +0.210 HD
ENDBRANCH  45  49
BRANCH  44  51
ATOM     51  O   UNL     1       4.527  -5.174  22.366  0.00  0.00    -0.384 OA
ATOM     52  H   UNL     1       5.351  -5.661  22.555  0.00  0.00    +0.210 HD
ENDBRANCH  44  51
BRANCH  41  53
ATOM     53  C   UNL     1       4.197  -6.770  26.767  0.00  0.00    +0.266 C 
BRANCH  53  54
ATOM     54  O   UNL     1       5.187  -7.080  27.764  0.00  0.00    -0.462 OA
BRANCH  54  56
ATOM     55  C   UNL     1       5.129  -4.905  28.638  0.00  0.00    +0.136 C 
ATOM     56  C   UNL     1       5.970  -6.031  28.134  0.00  0.00    +0.304 C 
ATOM     57  O   UNL     1       7.195  -6.022  28.090  0.00  0.00    -0.251 OA
ENDBRANCH  54  56
ENDBRANCH  53  54
ENDBRANCH  41  53
ENDBRANCH  40  43
ENDBRANCH   1  40
TORSDOF 19
ENDMDL
