MODEL 1
REMARK VINA RESULT:      -7.3      0.000      0.000
REMARK  Name = 
REMARK  18 active torsions:
REMARK  status: ('A' for Active; 'I' for Inactive)
REMARK    1  A    between atoms: C_3  and  O_50
REMARK    2  A    between atoms: C_4  and  O_49
REMARK    3  A    between atoms: C_6  and  C_7
REMARK    4  A    between atoms: C_8  and  O_33
REMARK    5  A    between atoms: C_15  and  O_32
REMARK    6  A    between atoms: C_17  and  O_18
REMARK    7  A    between atoms: O_18  and  C_19
REMARK    8  A    between atoms: C_20  and  O_31
REMARK    9  A    between atoms: C_21  and  O_30
REMARK   10  A    between atoms: C_23  and  O_29
REMARK   11  A    between atoms: C_24  and  C_27
REMARK   12  A    between atoms: C_27  and  O_28
REMARK   13  A    between atoms: O_33  and  C_34
REMARK   14  A    between atoms: C_35  and  O_48
REMARK   15  A    between atoms: C_37  and  O_47
REMARK   16  A    between atoms: C_39  and  O_46
REMARK   17  A    between atoms: C_41  and  C_44
REMARK   18  A    between atoms: C_44  and  O_45
REMARK                            x       y       z     vdW  Elec       q    Type
REMARK                         _______ _______ _______ _____ _____    ______ ____
ROOT
ATOM      1  C   UNL     1       8.183  -1.881  23.575  0.00  0.00    +0.181 A 
ATOM      2  O   UNL     1       8.009  -2.717  22.471  0.00  0.00    -0.451 OA
ATOM      3  C   UNL     1       7.220  -3.836  22.587  0.00  0.00    +0.147 A 
ATOM      4  C   UNL     1       7.019  -4.605  21.446  0.00  0.00    +0.092 A 
ATOM      5  C   UNL     1       6.246  -5.769  21.537  0.00  0.00    +0.124 A 
ATOM      6  C   UNL     1       5.684  -6.192  22.743  0.00  0.00    +0.092 A 
ATOM      7  C   UNL     1       5.804  -5.384  23.856  0.00  0.00    +0.142 A 
ATOM      8  C   UNL     1       6.576  -4.201  23.764  0.00  0.00    +0.110 A 
ATOM      9  C   UNL     1       6.682  -3.274  24.895  0.00  0.00    +0.238 A 
ATOM     10  O   UNL     1       5.969  -3.460  25.876  0.00  0.00    -0.283 OA
ATOM     11  C   UNL     1       7.615  -2.106  24.782  0.00  0.00    +0.214 A 
ENDROOT
BRANCH   1  13
ATOM     12  C   UNL     1      10.119  -0.330  23.922  0.00  0.00    +0.015 A 
ATOM     13  C   UNL     1       8.943  -0.640  23.214  0.00  0.00    +0.025 A 
ATOM     14  C   UNL     1       8.420   0.337  22.346  0.00  0.00    +0.060 A 
ATOM     15  C   UNL     1       9.010   1.605  22.287  0.00  0.00    +0.159 A 
ATOM     16  C   UNL     1      10.107   1.919  23.076  0.00  0.00    +0.158 A 
ATOM     17  C   UNL     1      10.704   0.946  23.860  0.00  0.00    +0.050 A 
BRANCH  16  18
ATOM     18  O   UNL     1      10.552   3.215  23.072  0.00  0.00    -0.503 OA
ATOM     19  H   UNL     1      10.822   3.439  23.980  0.00  0.00    +0.292 HD
ENDBRANCH  16  18
BRANCH  15  20
ATOM     20  O   UNL     1       8.460   2.571  21.491  0.00  0.00    -0.503 OA
ATOM     21  H   UNL     1       9.229   3.037  21.103  0.00  0.00    +0.292 HD
ENDBRANCH  15  20
ENDBRANCH   1  13
BRANCH   5  22
ATOM     22  O   UNL     1       5.970  -6.507  20.425  0.00  0.00    -0.507 OA
ATOM     23  H   UNL     1       6.800  -6.863  20.067  0.00  0.00    +0.292 HD
ENDBRANCH   5  22
BRANCH  11  24
ATOM     24  O   UNL     1       7.783  -1.229  25.846  0.00  0.00    -0.453 OA
BRANCH  24  25
ATOM     25  C   UNL     1       7.212   0.098  25.702  0.00  0.00    +0.340 C 
ATOM     26  O   UNL     1       7.507   0.826  26.886  0.00  0.00    -0.331 OA
ATOM     27  C   UNL     1       6.577   1.582  27.656  0.00  0.00    +0.179 C 
ATOM     28  C   UNL     1       5.106   1.180  27.492  0.00  0.00    +0.177 C 
ATOM     29  C   UNL     1       4.984  -0.194  26.807  0.00  0.00    +0.180 C 
ATOM     30  C   UNL     1       5.719  -0.126  25.457  0.00  0.00    +0.214 C 
BRANCH  30  31
ATOM     31  O   UNL     1       5.169   0.907  24.618  0.00  0.00    -0.383 OA
ATOM     32  H   UNL     1       4.198   0.772  24.568  0.00  0.00    +0.210 HD
ENDBRANCH  30  31
BRANCH  29  33
ATOM     33  O   UNL     1       5.500  -1.226  27.661  0.00  0.00    -0.386 OA
ATOM     34  H   UNL     1       4.771  -1.829  27.930  0.00  0.00    +0.210 HD
ENDBRANCH  29  33
BRANCH  28  35
ATOM     35  O   UNL     1       4.457   2.199  26.706  0.00  0.00    -0.386 OA
ATOM     36  H   UNL     1       5.017   2.410  25.933  0.00  0.00    +0.210 HD
ENDBRANCH  28  35
BRANCH  27  37
ATOM     37  C   UNL     1       7.069   1.412  29.108  0.00  0.00    +0.190 C 
BRANCH  37  38
ATOM     38  O   UNL     1       8.341   0.788  29.200  0.00  0.00    -0.392 OA
ATOM     39  H   UNL     1       8.818   1.190  29.945  0.00  0.00    +0.210 HD
ENDBRANCH  37  38
ENDBRANCH  27  37
ENDBRANCH  24  25
ENDBRANCH  11  24
BRANCH   7  40
ATOM     40  O   UNL     1       5.133  -5.566  25.014  0.00  0.00    -0.460 OA
BRANCH  40  41
ATOM     41  C   UNL     1       4.916  -6.760  25.761  0.00  0.00    +0.339 C 
ATOM     42  O   UNL     1       3.959  -7.681  25.239  0.00  0.00    -0.331 OA
ATOM     43  C   UNL     1       2.555  -7.385  25.404  0.00  0.00    +0.179 C 
ATOM     44  C   UNL     1       2.118  -6.639  26.690  0.00  0.00    +0.177 C 
ATOM     45  C   UNL     1       3.135  -5.580  27.114  0.00  0.00    +0.180 C 
ATOM     46  C   UNL     1       4.511  -6.271  27.173  0.00  0.00    +0.214 C 
BRANCH  46  47
ATOM     47  O   UNL     1       5.502  -5.393  27.730  0.00  0.00    -0.383 OA
ATOM     48  H   UNL     1       5.121  -5.049  28.559  0.00  0.00    +0.210 HD
ENDBRANCH  46  47
BRANCH  45  49
ATOM     49  O   UNL     1       3.045  -4.479  26.204  0.00  0.00    -0.386 OA
ATOM     50  H   UNL     1       3.614  -3.745  26.527  0.00  0.00    +0.210 HD
ENDBRANCH  45  49
BRANCH  44  51
ATOM     51  O   UNL     1       1.989  -7.561  27.789  0.00  0.00    -0.386 OA
ATOM     52  H   UNL     1       2.843  -8.001  27.939  0.00  0.00    +0.210 HD
ENDBRANCH  44  51
BRANCH  43  53
ATOM     53  C   UNL     1       2.029  -6.733  24.122  0.00  0.00    +0.190 C 
BRANCH  53  54
ATOM     54  O   UNL     1       2.463  -7.508  23.000  0.00  0.00    -0.392 OA
ATOM     55  H   UNL     1       2.015  -8.370  23.090  0.00  0.00    +0.210 HD
ENDBRANCH  53  54
ENDBRANCH  43  53
ENDBRANCH  40  41
ENDBRANCH   7  40
TORSDOF 18
ENDMDL
MODEL 2
REMARK VINA RESULT:      -7.2      1.300      1.815
REMARK  Name = 
REMARK  18 active torsions:
REMARK  status: ('A' for Active; 'I' for Inactive)
REMARK    1  A    between atoms: C_3  and  O_50
REMARK    2  A    between atoms: C_4  and  O_49
REMARK    3  A    between atoms: C_6  and  C_7
REMARK    4  A    between atoms: C_8  and  O_33
REMARK    5  A    between atoms: C_15  and  O_32
REMARK    6  A    between atoms: C_17  and  O_18
REMARK    7  A    between atoms: O_18  and  C_19
REMARK    8  A    between atoms: C_20  and  O_31
REMARK    9  A    between atoms: C_21  and  O_30
REMARK   10  A    between atoms: C_23  and  O_29
REMARK   11  A    between atoms: C_24  and  C_27
REMARK   12  A    between atoms: C_27  and  O_28
REMARK   13  A    between atoms: O_33  and  C_34
REMARK   14  A    between atoms: C_35  and  O_48
REMARK   15  A    between atoms: C_37  and  O_47
REMARK   16  A    between atoms: C_39  and  O_46
REMARK   17  A    between atoms: C_41  and  C_44
REMARK   18  A    between atoms: C_44  and  O_45
REMARK                            x       y       z     vdW  Elec       q    Type
REMARK                         _______ _______ _______ _____ _____    ______ ____
ROOT
ATOM      1  C   UNL     1       8.213  -1.636  24.140  0.00  0.00    +0.181 A 
ATOM      2  O   UNL     1       8.139  -2.672  23.206  0.00  0.00    -0.451 OA
ATOM      3  C   UNL     1       7.291  -3.729  23.433  0.00  0.00    +0.147 A 
ATOM      4  C   UNL     1       7.199  -4.706  22.448  0.00  0.00    +0.092 A 
ATOM      5  C   UNL     1       6.368  -5.812  22.662  0.00  0.00    +0.124 A 
ATOM      6  C   UNL     1       5.642  -5.975  23.843  0.00  0.00    +0.092 A 
ATOM      7  C   UNL     1       5.659  -4.964  24.783  0.00  0.00    +0.142 A 
ATOM      8  C   UNL     1       6.490  -3.839  24.564  0.00  0.00    +0.110 A 
ATOM      9  C   UNL     1       6.497  -2.708  25.497  0.00  0.00    +0.238 A 
ATOM     10  O   UNL     1       5.660  -2.680  26.394  0.00  0.00    -0.283 OA
ATOM     11  C   UNL     1       7.489  -1.605  25.282  0.00  0.00    +0.214 A 
ENDROOT
BRANCH   1  13
ATOM     12  C   UNL     1      10.197  -0.129  24.396  0.00  0.00    +0.015 A 
ATOM     13  C   UNL     1       9.067  -0.507  23.646  0.00  0.00    +0.025 A 
ATOM     14  C   UNL     1       8.672   0.328  22.583  0.00  0.00    +0.060 A 
ATOM     15  C   UNL     1       9.335   1.541  22.367  0.00  0.00    +0.159 A 
ATOM     16  C   UNL     1      10.379   1.940  23.188  0.00  0.00    +0.158 A 
ATOM     17  C   UNL     1      10.855   1.092  24.174  0.00  0.00    +0.050 A 
BRANCH  16  18
ATOM     18  O   UNL     1      10.895   3.197  23.008  0.00  0.00    -0.503 OA
ATOM     19  H   UNL     1      11.746   3.239  23.478  0.00  0.00    +0.292 HD
ENDBRANCH  16  18
BRANCH  15  20
ATOM     20  O   UNL     1       8.907   2.378  21.375  0.00  0.00    -0.503 OA
ATOM     21  H   UNL     1       8.201   1.877  20.918  0.00  0.00    +0.292 HD
ENDBRANCH  15  20
ENDBRANCH   1  13
BRANCH   5  22
ATOM     22  O   UNL     1       6.199  -6.750  21.688  0.00  0.00    -0.507 OA
ATOM     23  H   UNL     1       5.362  -6.579  21.225  0.00  0.00    +0.292 HD
ENDBRANCH   5  22
BRANCH  11  24
ATOM     24  O   UNL     1       7.563  -0.538  26.167  0.00  0.00    -0.453 OA
BRANCH  24  25
ATOM     25  C   UNL     1       6.991   0.723  25.729  0.00  0.00    +0.340 C 
ATOM     26  O   UNL     1       7.318   1.707  26.700  0.00  0.00    -0.331 OA
ATOM     27  C   UNL     1       6.411   2.630  27.293  0.00  0.00    +0.179 C 
ATOM     28  C   UNL     1       4.935   2.213  27.266  0.00  0.00    +0.177 C 
ATOM     29  C   UNL     1       4.792   0.718  26.928  0.00  0.00    +0.180 C 
ATOM     30  C   UNL     1       5.492   0.460  25.581  0.00  0.00    +0.214 C 
BRANCH  30  31
ATOM     31  O   UNL     1       4.922   1.270  24.537  0.00  0.00    -0.383 OA
ATOM     32  H   UNL     1       5.239   2.190  24.660  0.00  0.00    +0.210 HD
ENDBRANCH  30  31
BRANCH  29  33
ATOM     33  O   UNL     1       5.329  -0.089  27.987  0.00  0.00    -0.386 OA
ATOM     34  H   UNL     1       4.598  -0.407  28.564  0.00  0.00    +0.210 HD
ENDBRANCH  29  33
BRANCH  28  35
ATOM     35  O   UNL     1       4.267   3.024  26.278  0.00  0.00    -0.386 OA
ATOM     36  H   UNL     1       4.800   3.030  25.459  0.00  0.00    +0.210 HD
ENDBRANCH  28  35
BRANCH  27  37
ATOM     37  C   UNL     1       6.940   2.804  28.731  0.00  0.00    +0.190 C 
BRANCH  37  38
ATOM     38  O   UNL     1       7.627   1.661  29.218  0.00  0.00    -0.392 OA
ATOM     39  H   UNL     1       7.545   0.957  28.554  0.00  0.00    +0.210 HD
ENDBRANCH  37  38
ENDBRANCH  27  37
ENDBRANCH  24  25
ENDBRANCH  11  24
BRANCH   7  40
ATOM     40  O   UNL     1       4.842  -4.899  25.856  0.00  0.00    -0.460 OA
BRANCH  40  41
ATOM     41  C   UNL     1       3.647  -5.624  26.135  0.00  0.00    +0.339 C 
ATOM     42  O   UNL     1       2.443  -4.866  26.234  0.00  0.00    -0.331 OA
ATOM     43  C   UNL     1       2.202  -4.108  27.440  0.00  0.00    +0.179 C 
ATOM     44  C   UNL     1       2.728  -4.688  28.778  0.00  0.00    +0.177 C 
ATOM     45  C   UNL     1       4.084  -5.374  28.613  0.00  0.00    +0.180 C 
ATOM     46  C   UNL     1       3.945  -6.379  27.453  0.00  0.00    +0.214 C 
BRANCH  46  47
ATOM     47  O   UNL     1       5.122  -7.195  27.338  0.00  0.00    -0.383 OA
ATOM     48  H   UNL     1       5.042  -7.664  26.487  0.00  0.00    +0.210 HD
ENDBRANCH  46  47
BRANCH  45  49
ATOM     49  O   UNL     1       5.080  -4.364  28.428  0.00  0.00    -0.386 OA
ATOM     50  H   UNL     1       5.691  -4.640  27.708  0.00  0.00    +0.210 HD
ENDBRANCH  45  49
BRANCH  44  51
ATOM     51  O   UNL     1       1.816  -5.677  29.291  0.00  0.00    -0.386 OA
ATOM     52  H   UNL     1       2.293  -6.513  29.424  0.00  0.00    +0.210 HD
ENDBRANCH  44  51
BRANCH  43  53
ATOM     53  C   UNL     1       2.624  -2.654  27.208  0.00  0.00    +0.190 C 
BRANCH  53  54
ATOM     54  O   UNL     1       2.880  -2.467  25.813  0.00  0.00    -0.392 OA
ATOM     55  H   UNL     1       3.844  -2.569  25.709  0.00  0.00    +0.210 HD
ENDBRANCH  53  54
ENDBRANCH  43  53
ENDBRANCH  40  41
ENDBRANCH   7  40
TORSDOF 18
ENDMDL
MODEL 3
REMARK VINA RESULT:      -7.1      1.890      8.820
REMARK  Name = 
REMARK  18 active torsions:
REMARK  status: ('A' for Active; 'I' for Inactive)
REMARK    1  A    between atoms: C_3  and  O_50
REMARK    2  A    between atoms: C_4  and  O_49
REMARK    3  A    between atoms: C_6  and  C_7
REMARK    4  A    between atoms: C_8  and  O_33
REMARK    5  A    between atoms: C_15  and  O_32
REMARK    6  A    between atoms: C_17  and  O_18
REMARK    7  A    between atoms: O_18  and  C_19
REMARK    8  A    between atoms: C_20  and  O_31
REMARK    9  A    between atoms: C_21  and  O_30
REMARK   10  A    between atoms: C_23  and  O_29
REMARK   11  A    between atoms: C_24  and  C_27
REMARK   12  A    between atoms: C_27  and  O_28
REMARK   13  A    between atoms: O_33  and  C_34
REMARK   14  A    between atoms: C_35  and  O_48
REMARK   15  A    between atoms: C_37  and  O_47
REMARK   16  A    between atoms: C_39  and  O_46
REMARK   17  A    between atoms: C_41  and  C_44
REMARK   18  A    between atoms: C_44  and  O_45
REMARK                            x       y       z     vdW  Elec       q    Type
REMARK                         _______ _______ _______ _____ _____    ______ ____
ROOT
ATOM      1  C   UNL     1       4.348  -2.628  26.452  0.00  0.00    +0.181 A 
ATOM      2  O   UNL     1       4.596  -1.864  27.593  0.00  0.00    -0.451 OA
ATOM      3  C   UNL     1       5.444  -0.786  27.515  0.00  0.00    +0.147 A 
ATOM      4  C   UNL     1       5.612  -0.012  28.659  0.00  0.00    +0.092 A 
ATOM      5  C   UNL     1       6.493   1.076  28.621  0.00  0.00    +0.124 A 
ATOM      6  C   UNL     1       7.223   1.397  27.476  0.00  0.00    +0.092 A 
ATOM      7  C   UNL     1       6.991   0.689  26.314  0.00  0.00    +0.142 A 
ATOM      8  C   UNL     1       6.092  -0.404  26.346  0.00  0.00    +0.110 A 
ATOM      9  C   UNL     1       5.759  -1.148  25.128  0.00  0.00    +0.238 A 
ATOM     10  O   UNL     1       6.153  -0.717  24.049  0.00  0.00    -0.283 OA
ATOM     11  C   UNL     1       4.903  -2.373  25.245  0.00  0.00    +0.214 A 
ENDROOT
BRANCH   1  13
ATOM     12  C   UNL     1       1.952  -3.235  26.856  0.00  0.00    +0.015 A 
ATOM     13  C   UNL     1       3.285  -3.657  26.697  0.00  0.00    +0.025 A 
ATOM     14  C   UNL     1       3.590  -5.001  26.985  0.00  0.00    +0.060 A 
ATOM     15  C   UNL     1       2.603  -5.841  27.513  0.00  0.00    +0.159 A 
ATOM     16  C   UNL     1       1.322  -5.370  27.760  0.00  0.00    +0.158 A 
ATOM     17  C   UNL     1       0.967  -4.085  27.389  0.00  0.00    +0.050 A 
BRANCH  16  18
ATOM     18  O   UNL     1       0.443  -6.204  28.401  0.00  0.00    -0.503 OA
ATOM     19  H   UNL     1      -0.403  -5.731  28.490  0.00  0.00    +0.292 HD
ENDBRANCH  16  18
BRANCH  15  20
ATOM     20  O   UNL     1       2.920  -7.127  27.852  0.00  0.00    -0.503 OA
ATOM     21  H   UNL     1       2.175  -7.424  28.414  0.00  0.00    +0.292 HD
ENDBRANCH  15  20
ENDBRANCH   1  13
BRANCH   5  22
ATOM     22  O   UNL     1       6.627   1.897  29.700  0.00  0.00    -0.507 OA
ATOM     23  H   UNL     1       7.464   1.693  30.152  0.00  0.00    +0.292 HD
ENDBRANCH   5  22
BRANCH  11  24
ATOM     24  O   UNL     1       4.601  -3.135  24.124  0.00  0.00    -0.453 OA
BRANCH  24  25
ATOM     25  C   UNL     1       5.253  -4.428  24.012  0.00  0.00    +0.340 C 
ATOM     26  O   UNL     1       6.520  -4.331  24.646  0.00  0.00    -0.331 OA
ATOM     27  C   UNL     1       7.764  -4.757  24.099  0.00  0.00    +0.179 C 
ATOM     28  C   UNL     1       7.811  -4.854  22.568  0.00  0.00    +0.177 C 
ATOM     29  C   UNL     1       6.616  -4.121  21.933  0.00  0.00    +0.180 C 
ATOM     30  C   UNL     1       5.321  -4.719  22.511  0.00  0.00    +0.214 C 
BRANCH  30  31
ATOM     31  O   UNL     1       5.242  -6.133  22.251  0.00  0.00    -0.383 OA
ATOM     32  H   UNL     1       4.703  -6.263  21.442  0.00  0.00    +0.210 HD
ENDBRANCH  30  31
BRANCH  29  33
ATOM     33  O   UNL     1       6.717  -2.707  22.163  0.00  0.00    -0.386 OA
ATOM     34  H   UNL     1       7.230  -2.540  22.985  0.00  0.00    +0.210 HD
ENDBRANCH  29  33
BRANCH  28  35
ATOM     35  O   UNL     1       7.795  -6.252  22.217  0.00  0.00    -0.386 OA
ATOM     36  H   UNL     1       8.668  -6.641  22.419  0.00  0.00    +0.210 HD
ENDBRANCH  28  35
BRANCH  27  37
ATOM     37  C   UNL     1       8.783  -3.739  24.650  0.00  0.00    +0.190 C 
BRANCH  37  38
ATOM     38  O   UNL     1       9.580  -3.140  23.640  0.00  0.00    -0.392 OA
ATOM     39  H   UNL     1       9.094  -3.200  22.800  0.00  0.00    +0.210 HD
ENDBRANCH  37  38
ENDBRANCH  27  37
ENDBRANCH  24  25
ENDBRANCH  11  24
BRANCH   7  40
ATOM     40  O   UNL     1       7.464   1.034  25.096  0.00  0.00    -0.460 OA
BRANCH  40  41
ATOM     41  C   UNL     1       8.309   2.118  24.723  0.00  0.00    +0.339 C 
ATOM     42  O   UNL     1       7.853   2.952  23.659  0.00  0.00    -0.331 OA
ATOM     43  C   UNL     1       7.965   2.466  22.304  0.00  0.00    +0.179 C 
ATOM     44  C   UNL     1       9.173   1.558  21.957  0.00  0.00    +0.177 C 
ATOM     45  C   UNL     1       9.520   0.604  23.100  0.00  0.00    +0.180 C 
ATOM     46  C   UNL     1       9.665   1.457  24.375  0.00  0.00    +0.214 C 
BRANCH  46  47
ATOM     47  O   UNL     1      10.161   0.667  25.467  0.00  0.00    -0.383 OA
ATOM     48  H   UNL     1      10.735  -0.013  25.068  0.00  0.00    +0.210 HD
ENDBRANCH  46  47
BRANCH  45  49
ATOM     49  O   UNL     1       8.516  -0.414  23.159  0.00  0.00    -0.386 OA
ATOM     50  H   UNL     1       8.690  -0.996  23.932  0.00  0.00    +0.210 HD
ENDBRANCH  45  49
BRANCH  44  51
ATOM     51  O   UNL     1      10.345   2.354  21.703  0.00  0.00    -0.386 OA
ATOM     52  H   UNL     1      10.679   2.157  20.812  0.00  0.00    +0.210 HD
ENDBRANCH  44  51
BRANCH  43  53
ATOM     53  C   UNL     1       6.622   1.869  21.874  0.00  0.00    +0.190 C 
BRANCH  53  54
ATOM     54  O   UNL     1       5.712   1.945  22.977  0.00  0.00    -0.392 OA
ATOM     55  H   UNL     1       5.044   1.254  22.811  0.00  0.00    +0.210 HD
ENDBRANCH  53  54
ENDBRANCH  43  53
ENDBRANCH  40  41
ENDBRANCH   7  40
TORSDOF 18
ENDMDL
MODEL 4
REMARK VINA RESULT:      -7.1      0.986      1.730
REMARK  Name = 
REMARK  18 active torsions:
REMARK  status: ('A' for Active; 'I' for Inactive)
REMARK    1  A    between atoms: C_3  and  O_50
REMARK    2  A    between atoms: C_4  and  O_49
REMARK    3  A    between atoms: C_6  and  C_7
REMARK    4  A    between atoms: C_8  and  O_33
REMARK    5  A    between atoms: C_15  and  O_32
REMARK    6  A    between atoms: C_17  and  O_18
REMARK    7  A    between atoms: O_18  and  C_19
REMARK    8  A    between atoms: C_20  and  O_31
REMARK    9  A    between atoms: C_21  and  O_30
REMARK   10  A    between atoms: C_23  and  O_29
REMARK   11  A    between atoms: C_24  and  C_27
REMARK   12  A    between atoms: C_27  and  O_28
REMARK   13  A    between atoms: O_33  and  C_34
REMARK   14  A    between atoms: C_35  and  O_48
REMARK   15  A    between atoms: C_37  and  O_47
REMARK   16  A    between atoms: C_39  and  O_46
REMARK   17  A    between atoms: C_41  and  C_44
REMARK   18  A    between atoms: C_44  and  O_45
REMARK                            x       y       z     vdW  Elec       q    Type
REMARK                         _______ _______ _______ _____ _____    ______ ____
ROOT
ATOM      1  C   UNL     1       7.564  -1.761  23.855  0.00  0.00    +0.181 A 
ATOM      2  O   UNL     1       7.534  -2.588  22.730  0.00  0.00    -0.451 OA
ATOM      3  C   UNL     1       6.850  -3.778  22.783  0.00  0.00    +0.147 A 
ATOM      4  C   UNL     1       6.790  -4.540  21.621  0.00  0.00    +0.092 A 
ATOM      5  C   UNL     1       6.126  -5.773  21.649  0.00  0.00    +0.124 A 
ATOM      6  C   UNL     1       5.539  -6.271  22.814  0.00  0.00    +0.092 A 
ATOM      7  C   UNL     1       5.518  -5.478  23.943  0.00  0.00    +0.142 A 
ATOM      8  C   UNL     1       6.177  -4.226  23.914  0.00  0.00    +0.110 A 
ATOM      9  C   UNL     1       6.130  -3.316  25.063  0.00  0.00    +0.238 A 
ATOM     10  O   UNL     1       5.382  -3.587  25.997  0.00  0.00    -0.283 OA
ATOM     11  C   UNL     1       6.951  -2.063  25.022  0.00  0.00    +0.214 A 
ENDROOT
BRANCH   1  13
ATOM     12  C   UNL     1       7.699   0.358  22.527  0.00  0.00    +0.015 A 
ATOM     13  C   UNL     1       8.221  -0.447  23.557  0.00  0.00    +0.025 A 
ATOM     14  C   UNL     1       9.461  -0.080  24.115  0.00  0.00    +0.060 A 
ATOM     15  C   UNL     1      10.179   0.992  23.573  0.00  0.00    +0.159 A 
ATOM     16  C   UNL     1       9.689   1.704  22.489  0.00  0.00    +0.158 A 
ATOM     17  C   UNL     1       8.427   1.432  21.988  0.00  0.00    +0.050 A 
BRANCH  16  18
ATOM     18  O   UNL     1      10.500   2.652  21.923  0.00  0.00    -0.503 OA
ATOM     19  H   UNL     1       9.961   3.447  21.761  0.00  0.00    +0.292 HD
ENDBRANCH  16  18
BRANCH  15  20
ATOM     20  O   UNL     1      11.411   1.303  24.076  0.00  0.00    -0.503 OA
ATOM     21  H   UNL     1      11.983   1.396  23.287  0.00  0.00    +0.292 HD
ENDBRANCH  15  20
ENDBRANCH   1  13
BRANCH   5  22
ATOM     22  O   UNL     1       5.987  -6.511  20.512  0.00  0.00    -0.507 OA
ATOM     23  H   UNL     1       6.749  -6.347  19.932  0.00  0.00    +0.292 HD
ENDBRANCH   5  22
BRANCH  11  24
ATOM     24  O   UNL     1       6.974  -1.196  26.107  0.00  0.00    -0.453 OA
BRANCH  24  25
ATOM     25  C   UNL     1       5.786  -0.390  26.331  0.00  0.00    +0.340 C 
ATOM     26  O   UNL     1       5.963   0.841  25.645  0.00  0.00    -0.331 OA
ATOM     27  C   UNL     1       5.748   2.139  26.188  0.00  0.00    +0.179 C 
ATOM     28  C   UNL     1       5.824   2.234  27.718  0.00  0.00    +0.177 C 
ATOM     29  C   UNL     1       6.476   0.974  28.315  0.00  0.00    +0.180 C 
ATOM     30  C   UNL     1       5.670  -0.252  27.850  0.00  0.00    +0.214 C 
BRANCH  30  31
ATOM     31  O   UNL     1       4.294  -0.154  28.260  0.00  0.00    -0.383 OA
ATOM     32  H   UNL     1       3.740  -0.566  27.563  0.00  0.00    +0.210 HD
ENDBRANCH  30  31
BRANCH  29  33
ATOM     33  O   UNL     1       7.858   0.897  27.934  0.00  0.00    -0.386 OA
ATOM     34  H   UNL     1       8.083  -0.028  27.686  0.00  0.00    +0.210 HD
ENDBRANCH  29  33
BRANCH  28  35
ATOM     35  O   UNL     1       4.480   2.395  28.215  0.00  0.00    -0.386 OA
ATOM     36  H   UNL     1       4.155   1.533  28.540  0.00  0.00    +0.210 HD
ENDBRANCH  28  35
BRANCH  27  37
ATOM     37  C   UNL     1       6.813   3.015  25.497  0.00  0.00    +0.190 C 
BRANCH  37  38
ATOM     38  O   UNL     1       8.143   2.655  25.838  0.00  0.00    -0.392 OA
ATOM     39  H   UNL     1       8.473   2.048  25.156  0.00  0.00    +0.210 HD
ENDBRANCH  37  38
ENDBRANCH  27  37
ENDBRANCH  24  25
ENDBRANCH  11  24
BRANCH   7  40
ATOM     40  O   UNL     1       4.801  -5.746  25.057  0.00  0.00    -0.460 OA
BRANCH  40  41
ATOM     41  C   UNL     1       4.592  -6.986  25.726  0.00  0.00    +0.339 C 
ATOM     42  O   UNL     1       3.661  -7.889  25.131  0.00  0.00    -0.331 OA
ATOM     43  C   UNL     1       2.249  -7.627  25.285  0.00  0.00    +0.179 C 
ATOM     44  C   UNL     1       1.775  -6.967  26.605  0.00  0.00    +0.177 C 
ATOM     45  C   UNL     1       2.765  -5.919  27.112  0.00  0.00    +0.180 C 
ATOM     46  C   UNL     1       4.151  -6.590  27.157  0.00  0.00    +0.214 C 
BRANCH  46  47
ATOM     47  O   UNL     1       5.116  -5.731  27.786  0.00  0.00    -0.383 OA
ATOM     48  H   UNL     1       5.147  -4.920  27.245  0.00  0.00    +0.210 HD
ENDBRANCH  46  47
BRANCH  45  49
ATOM     49  O   UNL     1       2.673  -4.767  26.268  0.00  0.00    -0.386 OA
ATOM     50  H   UNL     1       3.558  -4.575  25.885  0.00  0.00    +0.210 HD
ENDBRANCH  45  49
BRANCH  44  51
ATOM     51  O   UNL     1       1.641  -7.956  27.643  0.00  0.00    -0.386 OA
ATOM     52  H   UNL     1       1.835  -7.546  28.502  0.00  0.00    +0.210 HD
ENDBRANCH  44  51
BRANCH  43  53
ATOM     53  C   UNL     1       1.736  -6.907  24.035  0.00  0.00    +0.190 C 
BRANCH  53  54
ATOM     54  O   UNL     1       2.296  -7.538  22.879  0.00  0.00    -0.392 OA
ATOM     55  H   UNL     1       1.535  -7.885  22.377  0.00  0.00    +0.210 HD
ENDBRANCH  53  54
ENDBRANCH  43  53
ENDBRANCH  40  41
ENDBRANCH   7  40
TORSDOF 18
ENDMDL
MODEL 5
REMARK VINA RESULT:      -7.0      1.908      5.542
REMARK  Name = 
REMARK  18 active torsions:
REMARK  status: ('A' for Active; 'I' for Inactive)
REMARK    1  A    between atoms: C_3  and  O_50
REMARK    2  A    between atoms: C_4  and  O_49
REMARK    3  A    between atoms: C_6  and  C_7
REMARK    4  A    between atoms: C_8  and  O_33
REMARK    5  A    between atoms: C_15  and  O_32
REMARK    6  A    between atoms: C_17  and  O_18
REMARK    7  A    between atoms: O_18  and  C_19
REMARK    8  A    between atoms: C_20  and  O_31
REMARK    9  A    between atoms: C_21  and  O_30
REMARK   10  A    between atoms: C_23  and  O_29
REMARK   11  A    between atoms: C_24  and  C_27
REMARK   12  A    between atoms: C_27  and  O_28
REMARK   13  A    between atoms: O_33  and  C_34
REMARK   14  A    between atoms: C_35  and  O_48
REMARK   15  A    between atoms: C_37  and  O_47
REMARK   16  A    between atoms: C_39  and  O_46
REMARK   17  A    between atoms: C_41  and  C_44
REMARK   18  A    between atoms: C_44  and  O_45
REMARK                            x       y       z     vdW  Elec       q    Type
REMARK                         _______ _______ _______ _____ _____    ______ ____
ROOT
ATOM      1  C   UNL     1       7.112  -0.851  25.111  0.00  0.00    +0.181 A 
ATOM      2  O   UNL     1       6.525   0.134  25.908  0.00  0.00    -0.451 OA
ATOM      3  C   UNL     1       5.715  -0.235  26.955  0.00  0.00    +0.147 A 
ATOM      4  C   UNL     1       5.205   0.774  27.764  0.00  0.00    +0.092 A 
ATOM      5  C   UNL     1       4.352   0.433  28.820  0.00  0.00    +0.124 A 
ATOM      6  C   UNL     1       3.982  -0.888  29.076  0.00  0.00    +0.092 A 
ATOM      7  C   UNL     1       4.557  -1.899  28.334  0.00  0.00    +0.142 A 
ATOM      8  C   UNL     1       5.430  -1.559  27.273  0.00  0.00    +0.110 A 
ATOM      9  C   UNL     1       6.119  -2.593  26.495  0.00  0.00    +0.238 A 
ATOM     10  O   UNL     1       6.049  -3.758  26.875  0.00  0.00    -0.283 OA
ATOM     11  C   UNL     1       6.929  -2.177  25.304  0.00  0.00    +0.214 A 
ENDROOT
BRANCH   1  13
ATOM     12  C   UNL     1       9.374   0.073  24.561  0.00  0.00    +0.015 A 
ATOM     13  C   UNL     1       8.077  -0.262  24.127  0.00  0.00    +0.025 A 
ATOM     14  C   UNL     1       7.680   0.166  22.846  0.00  0.00    +0.060 A 
ATOM     15  C   UNL     1       8.527   0.987  22.092  0.00  0.00    +0.159 A 
ATOM     16  C   UNL     1       9.757   1.390  22.589  0.00  0.00    +0.158 A 
ATOM     17  C   UNL     1      10.217   0.900  23.799  0.00  0.00    +0.050 A 
BRANCH  16  18
ATOM     18  O   UNL     1      10.478   2.301  21.860  0.00  0.00    -0.503 OA
ATOM     19  H   UNL     1      11.346   2.403  22.288  0.00  0.00    +0.292 HD
ENDBRANCH  16  18
BRANCH  15  20
ATOM     20  O   UNL     1       8.111   1.453  20.877  0.00  0.00    -0.503 OA
ATOM     21  H   UNL     1       8.078   2.426  20.984  0.00  0.00    +0.292 HD
ENDBRANCH  15  20
ENDBRANCH   1  13
BRANCH   5  22
ATOM     22  O   UNL     1       3.892   1.390  29.675  0.00  0.00    -0.507 OA
ATOM     23  H   UNL     1       3.738   2.211  29.179  0.00  0.00    +0.292 HD
ENDBRANCH   5  22
BRANCH  11  24
ATOM     24  O   UNL     1       7.560  -3.127  24.512  0.00  0.00    -0.453 OA
BRANCH  24  25
ATOM     25  C   UNL     1       6.921  -3.465  23.252  0.00  0.00    +0.340 C 
ATOM     26  O   UNL     1       5.519  -3.313  23.425  0.00  0.00    -0.331 OA
ATOM     27  C   UNL     1       4.524  -4.262  23.054  0.00  0.00    +0.179 C 
ATOM     28  C   UNL     1       5.009  -5.713  22.935  0.00  0.00    +0.177 C 
ATOM     29  C   UNL     1       6.388  -5.887  23.597  0.00  0.00    +0.180 C 
ATOM     30  C   UNL     1       7.366  -4.895  22.942  0.00  0.00    +0.214 C 
BRANCH  30  31
ATOM     31  O   UNL     1       7.455  -5.115  21.522  0.00  0.00    -0.383 OA
ATOM     32  H   UNL     1       6.977  -4.386  21.071  0.00  0.00    +0.210 HD
ENDBRANCH  30  31
BRANCH  29  33
ATOM     33  O   UNL     1       6.289  -5.703  25.017  0.00  0.00    -0.386 OA
ATOM     34  H   UNL     1       7.093  -6.063  25.455  0.00  0.00    +0.210 HD
ENDBRANCH  29  33
BRANCH  28  35
ATOM     35  O   UNL     1       5.072  -6.041  21.533  0.00  0.00    -0.386 OA
ATOM     36  H   UNL     1       4.822  -5.255  21.010  0.00  0.00    +0.210 HD
ENDBRANCH  28  35
BRANCH  27  37
ATOM     37  C   UNL     1       3.432  -4.099  24.131  0.00  0.00    +0.190 C 
BRANCH  37  38
ATOM     38  O   UNL     1       3.033  -5.329  24.716  0.00  0.00    -0.392 OA
ATOM     39  H   UNL     1       2.079  -5.435  24.567  0.00  0.00    +0.210 HD
ENDBRANCH  37  38
ENDBRANCH  27  37
ENDBRANCH  24  25
ENDBRANCH  11  24
BRANCH   7  40
ATOM     40  O   UNL     1       4.454  -3.215  28.619  0.00  0.00    -0.460 OA
BRANCH  40  41
ATOM     41  C   UNL     1       4.171  -3.858  29.859  0.00  0.00    +0.339 C 
ATOM     42  O   UNL     1       5.184  -4.715  30.384  0.00  0.00    -0.331 OA
ATOM     43  C   UNL     1       5.350  -6.026  29.801  0.00  0.00    +0.179 C 
ATOM     44  C   UNL     1       4.085  -6.749  29.272  0.00  0.00    +0.177 C 
ATOM     45  C   UNL     1       3.106  -5.781  28.609  0.00  0.00    +0.180 C 
ATOM     46  C   UNL     1       2.856  -4.634  29.607  0.00  0.00    +0.214 C 
BRANCH  46  47
ATOM     47  O   UNL     1       1.813  -3.764  29.138  0.00  0.00    -0.383 OA
ATOM     48  H   UNL     1       1.175  -3.690  29.872  0.00  0.00    +0.210 HD
ENDBRANCH  46  47
BRANCH  45  49
ATOM     49  O   UNL     1       3.651  -5.382  27.347  0.00  0.00    -0.386 OA
ATOM     50  H   UNL     1       4.304  -4.662  27.490  0.00  0.00    +0.210 HD
ENDBRANCH  45  49
BRANCH  44  51
ATOM     51  O   UNL     1       3.379  -7.386  30.353  0.00  0.00    -0.386 OA
ATOM     52  H   UNL     1       3.137  -6.718  31.016  0.00  0.00    +0.210 HD
ENDBRANCH  44  51
BRANCH  43  53
ATOM     53  C   UNL     1       6.487  -5.977  28.778  0.00  0.00    +0.190 C 
BRANCH  53  54
ATOM     54  O   UNL     1       6.107  -6.746  27.632  0.00  0.00    -0.392 OA
ATOM     55  H   UNL     1       6.815  -6.602  26.976  0.00  0.00    +0.210 HD
ENDBRANCH  53  54
ENDBRANCH  43  53
ENDBRANCH  40  41
ENDBRANCH   7  40
TORSDOF 18
ENDMDL
MODEL 6
REMARK VINA RESULT:      -7.0      2.748      9.165
REMARK  Name = 
REMARK  18 active torsions:
REMARK  status: ('A' for Active; 'I' for Inactive)
REMARK    1  A    between atoms: C_3  and  O_50
REMARK    2  A    between atoms: C_4  and  O_49
REMARK    3  A    between atoms: C_6  and  C_7
REMARK    4  A    between atoms: C_8  and  O_33
REMARK    5  A    between atoms: C_15  and  O_32
REMARK    6  A    between atoms: C_17  and  O_18
REMARK    7  A    between atoms: O_18  and  C_19
REMARK    8  A    between atoms: C_20  and  O_31
REMARK    9  A    between atoms: C_21  and  O_30
REMARK   10  A    between atoms: C_23  and  O_29
REMARK   11  A    between atoms: C_24  and  C_27
REMARK   12  A    between atoms: C_27  and  O_28
REMARK   13  A    between atoms: O_33  and  C_34
REMARK   14  A    between atoms: C_35  and  O_48
REMARK   15  A    between atoms: C_37  and  O_47
REMARK   16  A    between atoms: C_39  and  O_46
REMARK   17  A    between atoms: C_41  and  C_44
REMARK   18  A    between atoms: C_44  and  O_45
REMARK                            x       y       z     vdW  Elec       q    Type
REMARK                         _______ _______ _______ _____ _____    ______ ____
ROOT
ATOM      1  C   UNL     1       6.461  -1.013  26.663  0.00  0.00    +0.181 A 
ATOM      2  O   UNL     1       6.421  -0.368  27.900  0.00  0.00    -0.451 OA
ATOM      3  C   UNL     1       6.538   1.000  27.954  0.00  0.00    +0.147 A 
ATOM      4  C   UNL     1       6.427   1.609  29.199  0.00  0.00    +0.092 A 
ATOM      5  C   UNL     1       6.572   2.999  29.292  0.00  0.00    +0.124 A 
ATOM      6  C   UNL     1       6.844   3.791  28.176  0.00  0.00    +0.092 A 
ATOM      7  C   UNL     1       6.864   3.203  26.928  0.00  0.00    +0.142 A 
ATOM      8  C   UNL     1       6.706   1.800  26.829  0.00  0.00    +0.110 A 
ATOM      9  C   UNL     1       6.653   1.132  25.525  0.00  0.00    +0.238 A 
ATOM     10  O   UNL     1       6.595   1.823  24.512  0.00  0.00    -0.283 OA
ATOM     11  C   UNL     1       6.613  -0.366  25.485  0.00  0.00    +0.214 A 
ENDROOT
BRANCH   1  13
ATOM     12  C   UNL     1       4.847  -2.880  27.091  0.00  0.00    +0.015 A 
ATOM     13  C   UNL     1       6.162  -2.477  26.794  0.00  0.00    +0.025 A 
ATOM     14  C   UNL     1       7.177  -3.451  26.843  0.00  0.00    +0.060 A 
ATOM     15  C   UNL     1       6.878  -4.747  27.280  0.00  0.00    +0.159 A 
ATOM     16  C   UNL     1       5.592  -5.090  27.668  0.00  0.00    +0.158 A 
ATOM     17  C   UNL     1       4.556  -4.183  27.531  0.00  0.00    +0.050 A 
BRANCH  16  18
ATOM     18  O   UNL     1       5.394  -6.332  28.212  0.00  0.00    -0.503 OA
ATOM     19  H   UNL     1       4.436  -6.458  28.327  0.00  0.00    +0.292 HD
ENDBRANCH  16  18
BRANCH  15  20
ATOM     20  O   UNL     1       7.879  -5.672  27.388  0.00  0.00    -0.503 OA
ATOM     21  H   UNL     1       7.702  -6.128  28.235  0.00  0.00    +0.292 HD
ENDBRANCH  15  20
ENDBRANCH   1  13
BRANCH   5  22
ATOM     22  O   UNL     1       6.399   3.635  30.485  0.00  0.00    -0.507 OA
ATOM     23  H   UNL     1       5.666   3.214  30.965  0.00  0.00    +0.292 HD
ENDBRANCH   5  22
BRANCH  11  24
ATOM     24  O   UNL     1       6.610  -1.042  24.272  0.00  0.00    -0.453 OA
BRANCH  24  25
ATOM     25  C   UNL     1       7.817  -1.767  23.918  0.00  0.00    +0.340 C 
ATOM     26  O   UNL     1       8.905  -1.150  24.592  0.00  0.00    -0.331 OA
ATOM     27  C   UNL     1      10.143  -0.766  24.003  0.00  0.00    +0.179 C 
ATOM     28  C   UNL     1      10.108  -0.539  22.486  0.00  0.00    +0.177 C 
ATOM     29  C   UNL     1       8.659  -0.423  21.980  0.00  0.00    +0.180 C 
ATOM     30  C   UNL     1       7.901  -1.697  22.392  0.00  0.00    +0.214 C 
BRANCH  30  31
ATOM     31  O   UNL     1       8.532  -2.873  21.852  0.00  0.00    -0.383 OA
ATOM     32  H   UNL     1       8.969  -3.349  22.590  0.00  0.00    +0.210 HD
ENDBRANCH  30  31
BRANCH  29  33
ATOM     33  O   UNL     1       8.044   0.770  22.492  0.00  0.00    -0.386 OA
ATOM     34  H   UNL     1       7.137   0.860  22.122  0.00  0.00    +0.210 HD
ENDBRANCH  29  33
BRANCH  28  35
ATOM     35  O   UNL     1      10.777  -1.652  21.860  0.00  0.00    -0.386 OA
ATOM     36  H   UNL     1      10.959  -2.335  22.535  0.00  0.00    +0.210 HD
ENDBRANCH  28  35
BRANCH  27  37
ATOM     37  C   UNL     1      10.543   0.509  24.773  0.00  0.00    +0.190 C 
BRANCH  37  38
ATOM     38  O   UNL     1       9.683   1.610  24.523  0.00  0.00    -0.392 OA
ATOM     39  H   UNL     1       9.689   2.180  25.310  0.00  0.00    +0.210 HD
ENDBRANCH  37  38
ENDBRANCH  27  37
ENDBRANCH  24  25
ENDBRANCH  11  24
BRANCH   7  40
ATOM     40  O   UNL     1       6.899   3.881  25.759  0.00  0.00    -0.460 OA
BRANCH  40  41
ATOM     41  C   UNL     1       6.639   5.257  25.499  0.00  0.00    +0.339 C 
ATOM     42  O   UNL     1       5.574   5.551  24.596  0.00  0.00    -0.331 OA
ATOM     43  C   UNL     1       5.802   5.379  23.180  0.00  0.00    +0.179 C 
ATOM     44  C   UNL     1       7.225   5.664  22.635  0.00  0.00    +0.177 C 
ATOM     45  C   UNL     1       8.314   5.204  23.604  0.00  0.00    +0.180 C 
ATOM     46  C   UNL     1       7.985   5.818  24.979  0.00  0.00    +0.214 C 
BRANCH  46  47
ATOM     47  O   UNL     1       9.051   5.581  25.913  0.00  0.00    -0.383 OA
ATOM     48  H   UNL     1       8.684   4.986  26.593  0.00  0.00    +0.210 HD
ENDBRANCH  46  47
BRANCH  45  49
ATOM     49  O   UNL     1       8.370   3.775  23.573  0.00  0.00    -0.386 OA
ATOM     50  H   UNL     1       9.198   3.493  23.124  0.00  0.00    +0.210 HD
ENDBRANCH  45  49
BRANCH  44  51
ATOM     51  O   UNL     1       7.413   7.077  22.431  0.00  0.00    -0.386 OA
ATOM     52  H   UNL     1       7.041   7.329  21.569  0.00  0.00    +0.210 HD
ENDBRANCH  44  51
BRANCH  43  53
ATOM     53  C   UNL     1       5.255   4.016  22.748  0.00  0.00    +0.190 C 
BRANCH  53  54
ATOM     54  O   UNL     1       6.208   3.391  21.882  0.00  0.00    -0.392 OA
ATOM     55  H   UNL     1       7.046   3.868  22.031  0.00  0.00    +0.210 HD
ENDBRANCH  53  54
ENDBRANCH  43  53
ENDBRANCH  40  41
ENDBRANCH   7  40
TORSDOF 18
ENDMDL
MODEL 7
REMARK VINA RESULT:      -6.9      1.936      2.686
REMARK  Name = 
REMARK  18 active torsions:
REMARK  status: ('A' for Active; 'I' for Inactive)
REMARK    1  A    between atoms: C_3  and  O_50
REMARK    2  A    between atoms: C_4  and  O_49
REMARK    3  A    between atoms: C_6  and  C_7
REMARK    4  A    between atoms: C_8  and  O_33
REMARK    5  A    between atoms: C_15  and  O_32
REMARK    6  A    between atoms: C_17  and  O_18
REMARK    7  A    between atoms: O_18  and  C_19
REMARK    8  A    between atoms: C_20  and  O_31
REMARK    9  A    between atoms: C_21  and  O_30
REMARK   10  A    between atoms: C_23  and  O_29
REMARK   11  A    between atoms: C_24  and  C_27
REMARK   12  A    between atoms: C_27  and  O_28
REMARK   13  A    between atoms: O_33  and  C_34
REMARK   14  A    between atoms: C_35  and  O_48
REMARK   15  A    between atoms: C_37  and  O_47
REMARK   16  A    between atoms: C_39  and  O_46
REMARK   17  A    between atoms: C_41  and  C_44
REMARK   18  A    between atoms: C_44  and  O_45
REMARK                            x       y       z     vdW  Elec       q    Type
REMARK                         _______ _______ _______ _____ _____    ______ ____
ROOT
ATOM      1  C   UNL     1       7.647  -0.132  24.546  0.00  0.00    +0.181 A 
ATOM      2  O   UNL     1       8.624  -1.116  24.388  0.00  0.00    -0.451 OA
ATOM      3  C   UNL     1       8.367  -2.399  24.808  0.00  0.00    +0.147 A 
ATOM      4  C   UNL     1       9.342  -3.362  24.573  0.00  0.00    +0.092 A 
ATOM      5  C   UNL     1       9.124  -4.673  25.016  0.00  0.00    +0.124 A 
ATOM      6  C   UNL     1       7.966  -5.039  25.704  0.00  0.00    +0.092 A 
ATOM      7  C   UNL     1       6.958  -4.109  25.858  0.00  0.00    +0.142 A 
ATOM      8  C   UNL     1       7.171  -2.786  25.401  0.00  0.00    +0.110 A 
ATOM      9  C   UNL     1       6.111  -1.776  25.480  0.00  0.00    +0.238 A 
ATOM     10  O   UNL     1       4.983  -2.132  25.809  0.00  0.00    -0.283 OA
ATOM     11  C   UNL     1       6.434  -0.363  25.100  0.00  0.00    +0.214 A 
ENDROOT
BRANCH   1  13
ATOM     12  C   UNL     1       9.122   1.889  24.431  0.00  0.00    +0.015 A 
ATOM     13  C   UNL     1       8.049   1.155  23.891  0.00  0.00    +0.025 A 
ATOM     14  C   UNL     1       7.268   1.769  22.893  0.00  0.00    +0.060 A 
ATOM     15  C   UNL     1       7.508   3.103  22.543  0.00  0.00    +0.159 A 
ATOM     16  C   UNL     1       8.506   3.836  23.167  0.00  0.00    +0.158 A 
ATOM     17  C   UNL     1       9.355   3.228  24.076  0.00  0.00    +0.050 A 
BRANCH  16  18
ATOM     18  O   UNL     1       8.600   5.172  22.876  0.00  0.00    -0.503 OA
ATOM     19  H   UNL     1       8.459   5.278  21.918  0.00  0.00    +0.292 HD
ENDBRANCH  16  18
BRANCH  15  20
ATOM     20  O   UNL     1       6.707   3.714  21.619  0.00  0.00    -0.503 OA
ATOM     21  H   UNL     1       5.796   3.563  21.945  0.00  0.00    +0.292 HD
ENDBRANCH  15  20
ENDBRANCH   1  13
BRANCH   5  22
ATOM     22  O   UNL     1      10.026  -5.657  24.739  0.00  0.00    -0.507 OA
ATOM     23  H   UNL     1      10.650  -5.334  24.067  0.00  0.00    +0.292 HD
ENDBRANCH   5  22
BRANCH  11  24
ATOM     24  O   UNL     1       5.475   0.635  25.204  0.00  0.00    -0.453 OA
BRANCH  24  25
ATOM     25  C   UNL     1       5.648   1.607  26.269  0.00  0.00    +0.340 C 
ATOM     26  O   UNL     1       5.668   0.900  27.501  0.00  0.00    -0.331 OA
ATOM     27  C   UNL     1       4.913   1.225  28.664  0.00  0.00    +0.179 C 
ATOM     28  C   UNL     1       3.649   2.059  28.416  0.00  0.00    +0.177 C 
ATOM     29  C   UNL     1       3.273   2.059  26.924  0.00  0.00    +0.180 C 
ATOM     30  C   UNL     1       4.478   2.583  26.123  0.00  0.00    +0.214 C 
BRANCH  30  31
ATOM     31  O   UNL     1       4.849   3.907  26.550  0.00  0.00    -0.383 OA
ATOM     32  H   UNL     1       5.398   3.822  27.359  0.00  0.00    +0.210 HD
ENDBRANCH  30  31
BRANCH  29  33
ATOM     33  O   UNL     1       2.869   0.745  26.510  0.00  0.00    -0.386 OA
ATOM     34  H   UNL     1       2.872   0.138  27.284  0.00  0.00    +0.210 HD
ENDBRANCH  29  33
BRANCH  28  35
ATOM     35  O   UNL     1       3.913   3.401  28.874  0.00  0.00    -0.386 OA
ATOM     36  H   UNL     1       4.878   3.553  28.877  0.00  0.00    +0.210 HD
ENDBRANCH  28  35
BRANCH  27  37
ATOM     37  C   UNL     1       4.591  -0.145  29.295  0.00  0.00    +0.190 C 
BRANCH  37  38
ATOM     38  O   UNL     1       4.119  -1.099  28.357  0.00  0.00    -0.392 OA
ATOM     39  H   UNL     1       3.168  -0.947  28.228  0.00  0.00    +0.210 HD
ENDBRANCH  37  38
ENDBRANCH  27  37
ENDBRANCH  24  25
ENDBRANCH  11  24
BRANCH   7  40
ATOM     40  O   UNL     1       5.715  -4.390  26.306  0.00  0.00    -0.460 OA
BRANCH  40  41
ATOM     41  C   UNL     1       5.253  -5.501  27.068  0.00  0.00    +0.339 C 
ATOM     42  O   UNL     1       5.290  -6.778  26.432  0.00  0.00    -0.331 OA
ATOM     43  C   UNL     1       4.275  -7.092  25.454  0.00  0.00    +0.179 C 
ATOM     44  C   UNL     1       2.856  -6.504  25.669  0.00  0.00    +0.177 C 
ATOM     45  C   UNL     1       2.903  -5.085  26.234  0.00  0.00    +0.180 C 
ATOM     46  C   UNL     1       3.809  -5.122  27.479  0.00  0.00    +0.214 C 
BRANCH  46  47
ATOM     47  O   UNL     1       3.773  -3.867  28.177  0.00  0.00    -0.383 OA
ATOM     48  H   UNL     1       4.577  -3.386  27.906  0.00  0.00    +0.210 HD
ENDBRANCH  46  47
BRANCH  45  49
ATOM     49  O   UNL     1       3.331  -4.199  25.195  0.00  0.00    -0.386 OA
ATOM     50  H   UNL     1       3.828  -4.711  24.518  0.00  0.00    +0.210 HD
ENDBRANCH  45  49
BRANCH  44  51
ATOM     51  O   UNL     1       2.115  -7.306  26.607  0.00  0.00    -0.386 OA
ATOM     52  H   UNL     1       1.334  -6.810  26.905  0.00  0.00    +0.210 HD
ENDBRANCH  44  51
BRANCH  43  53
ATOM     53  C   UNL     1       4.831  -6.825  24.053  0.00  0.00    +0.190 C 
BRANCH  53  54
ATOM     54  O   UNL     1       3.741  -6.523  23.176  0.00  0.00    -0.392 OA
ATOM     55  H   UNL     1       4.000  -5.706  22.710  0.00  0.00    +0.210 HD
ENDBRANCH  53  54
ENDBRANCH  43  53
ENDBRANCH  40  41
ENDBRANCH   7  40
TORSDOF 18
ENDMDL
MODEL 8
REMARK VINA RESULT:      -6.9      2.136      3.251
REMARK  Name = 
REMARK  18 active torsions:
REMARK  status: ('A' for Active; 'I' for Inactive)
REMARK    1  A    between atoms: C_3  and  O_50
REMARK    2  A    between atoms: C_4  and  O_49
REMARK    3  A    between atoms: C_6  and  C_7
REMARK    4  A    between atoms: C_8  and  O_33
REMARK    5  A    between atoms: C_15  and  O_32
REMARK    6  A    between atoms: C_17  and  O_18
REMARK    7  A    between atoms: O_18  and  C_19
REMARK    8  A    between atoms: C_20  and  O_31
REMARK    9  A    between atoms: C_21  and  O_30
REMARK   10  A    between atoms: C_23  and  O_29
REMARK   11  A    between atoms: C_24  and  C_27
REMARK   12  A    between atoms: C_27  and  O_28
REMARK   13  A    between atoms: O_33  and  C_34
REMARK   14  A    between atoms: C_35  and  O_48
REMARK   15  A    between atoms: C_37  and  O_47
REMARK   16  A    between atoms: C_39  and  O_46
REMARK   17  A    between atoms: C_41  and  C_44
REMARK   18  A    between atoms: C_44  and  O_45
REMARK                            x       y       z     vdW  Elec       q    Type
REMARK                         _______ _______ _______ _____ _____    ______ ____
ROOT
ATOM      1  C   UNL     1       8.091  -0.302  25.430  0.00  0.00    +0.181 A 
ATOM      2  O   UNL     1       8.935  -1.359  25.086  0.00  0.00    -0.451 OA
ATOM      3  C   UNL     1       8.637  -2.631  25.513  0.00  0.00    +0.147 A 
ATOM      4  C   UNL     1       9.467  -3.664  25.092  0.00  0.00    +0.092 A 
ATOM      5  C   UNL     1       9.209  -4.967  25.535  0.00  0.00    +0.124 A 
ATOM      6  C   UNL     1       8.155  -5.259  26.402  0.00  0.00    +0.092 A 
ATOM      7  C   UNL     1       7.276  -4.253  26.748  0.00  0.00    +0.142 A 
ATOM      8  C   UNL     1       7.527  -2.937  26.292  0.00  0.00    +0.110 A 
ATOM      9  C   UNL     1       6.592  -1.844  26.575  0.00  0.00    +0.238 A 
ATOM     10  O   UNL     1       5.508  -2.114  27.083  0.00  0.00    -0.283 OA
ATOM     11  C   UNL     1       6.973  -0.450  26.178  0.00  0.00    +0.214 A 
ENDROOT
BRANCH   1  13
ATOM     12  C   UNL     1       8.326   2.192  25.428  0.00  0.00    +0.015 A 
ATOM     13  C   UNL     1       8.492   0.970  24.747  0.00  0.00    +0.025 A 
ATOM     14  C   UNL     1       8.828   1.019  23.381  0.00  0.00    +0.060 A 
ATOM     15  C   UNL     1       8.884   2.251  22.720  0.00  0.00    +0.159 A 
ATOM     16  C   UNL     1       8.612   3.433  23.391  0.00  0.00    +0.158 A 
ATOM     17  C   UNL     1       8.382   3.425  24.756  0.00  0.00    +0.050 A 
BRANCH  16  18
ATOM     18  O   UNL     1       8.552   4.590  22.658  0.00  0.00    -0.503 OA
ATOM     19  H   UNL     1       9.181   5.222  23.047  0.00  0.00    +0.292 HD
ENDBRANCH  16  18
BRANCH  15  20
ATOM     20  O   UNL     1       9.148   2.288  21.379  0.00  0.00    -0.503 OA
ATOM     21  H   UNL     1       8.266   2.331  20.956  0.00  0.00    +0.292 HD
ENDBRANCH  15  20
ENDBRANCH   1  13
BRANCH   5  22
ATOM     22  O   UNL     1       9.958  -6.013  25.086  0.00  0.00    -0.507 OA
ATOM     23  H   UNL     1       9.840  -6.769  25.686  0.00  0.00    +0.292 HD
ENDBRANCH   5  22
BRANCH  11  24
ATOM     24  O   UNL     1       6.139   0.622  26.468  0.00  0.00    -0.453 OA
BRANCH  24  25
ATOM     25  C   UNL     1       4.846   0.649  25.807  0.00  0.00    +0.340 C 
ATOM     26  O   UNL     1       4.964   1.479  24.660  0.00  0.00    -0.331 OA
ATOM     27  C   UNL     1       4.074   2.527  24.292  0.00  0.00    +0.179 C 
ATOM     28  C   UNL     1       3.245   3.121  25.439  0.00  0.00    +0.177 C 
ATOM     29  C   UNL     1       3.819   2.703  26.805  0.00  0.00    +0.180 C 
ATOM     30  C   UNL     1       3.863   1.166  26.859  0.00  0.00    +0.214 C 
BRANCH  30  31
ATOM     31  O   UNL     1       2.553   0.602  26.668  0.00  0.00    -0.383 OA
ATOM     32  H   UNL     1       2.642  -0.180  26.082  0.00  0.00    +0.210 HD
ENDBRANCH  30  31
BRANCH  29  33
ATOM     33  O   UNL     1       5.110   3.296  27.009  0.00  0.00    -0.386 OA
ATOM     34  H   UNL     1       5.766   2.596  27.227  0.00  0.00    +0.210 HD
ENDBRANCH  29  33
BRANCH  28  35
ATOM     35  O   UNL     1       1.890   2.651  25.291  0.00  0.00    -0.386 OA
ATOM     36  H   UNL     1       1.753   2.360  24.368  0.00  0.00    +0.210 HD
ENDBRANCH  28  35
BRANCH  27  37
ATOM     37  C   UNL     1       4.987   3.578  23.629  0.00  0.00    +0.190 C 
BRANCH  37  38
ATOM     38  O   UNL     1       5.029   4.810  24.332  0.00  0.00    -0.392 OA
ATOM     39  H   UNL     1       5.618   5.412  23.847  0.00  0.00    +0.210 HD
ENDBRANCH  37  38
ENDBRANCH  27  37
ENDBRANCH  24  25
ENDBRANCH  11  24
BRANCH   7  40
ATOM     40  O   UNL     1       6.105  -4.444  27.395  0.00  0.00    -0.460 OA
BRANCH  40  41
ATOM     41  C   UNL     1       5.648  -5.573  28.133  0.00  0.00    +0.339 C 
ATOM     42  O   UNL     1       5.552  -6.809  27.425  0.00  0.00    -0.331 OA
ATOM     43  C   UNL     1       4.435  -7.007  26.531  0.00  0.00    +0.179 C 
ATOM     44  C   UNL     1       3.079  -6.357  26.910  0.00  0.00    +0.177 C 
ATOM     45  C   UNL     1       3.261  -4.980  27.547  0.00  0.00    +0.180 C 
ATOM     46  C   UNL     1       4.273  -5.143  28.698  0.00  0.00    +0.214 C 
BRANCH  46  47
ATOM     47  O   UNL     1       4.374  -3.933  29.466  0.00  0.00    -0.383 OA
ATOM     48  H   UNL     1       3.501  -3.802  29.879  0.00  0.00    +0.210 HD
ENDBRANCH  46  47
BRANCH  45  49
ATOM     49  O   UNL     1       3.646  -4.057  26.524  0.00  0.00    -0.386 OA
ATOM     50  H   UNL     1       3.352  -4.400  25.651  0.00  0.00    +0.210 HD
ENDBRANCH  45  49
BRANCH  44  51
ATOM     51  O   UNL     1       2.379  -7.174  27.866  0.00  0.00    -0.386 OA
ATOM     52  H   UNL     1       3.008  -7.497  28.533  0.00  0.00    +0.210 HD
ENDBRANCH  44  51
BRANCH  43  53
ATOM     53  C   UNL     1       4.877  -6.684  25.101  0.00  0.00    +0.190 C 
BRANCH  53  54
ATOM     54  O   UNL     1       4.248  -7.607  24.206  0.00  0.00    -0.392 OA
ATOM     55  H   UNL     1       4.397  -8.490  24.595  0.00  0.00    +0.210 HD
ENDBRANCH  53  54
ENDBRANCH  43  53
ENDBRANCH  40  41
ENDBRANCH   7  40
TORSDOF 18
ENDMDL
MODEL 9
REMARK VINA RESULT:      -6.9      2.404      8.959
REMARK  Name = 
REMARK  18 active torsions:
REMARK  status: ('A' for Active; 'I' for Inactive)
REMARK    1  A    between atoms: C_3  and  O_50
REMARK    2  A    between atoms: C_4  and  O_49
REMARK    3  A    between atoms: C_6  and  C_7
REMARK    4  A    between atoms: C_8  and  O_33
REMARK    5  A    between atoms: C_15  and  O_32
REMARK    6  A    between atoms: C_17  and  O_18
REMARK    7  A    between atoms: O_18  and  C_19
REMARK    8  A    between atoms: C_20  and  O_31
REMARK    9  A    between atoms: C_21  and  O_30
REMARK   10  A    between atoms: C_23  and  O_29
REMARK   11  A    between atoms: C_24  and  C_27
REMARK   12  A    between atoms: C_27  and  O_28
REMARK   13  A    between atoms: O_33  and  C_34
REMARK   14  A    between atoms: C_35  and  O_48
REMARK   15  A    between atoms: C_37  and  O_47
REMARK   16  A    between atoms: C_39  and  O_46
REMARK   17  A    between atoms: C_41  and  C_44
REMARK   18  A    between atoms: C_44  and  O_45
REMARK                            x       y       z     vdW  Elec       q    Type
REMARK                         _______ _______ _______ _____ _____    ______ ____
ROOT
ATOM      1  C   UNL     1       4.657  -1.841  27.484  0.00  0.00    +0.181 A 
ATOM      2  O   UNL     1       4.213  -0.615  27.984  0.00  0.00    -0.451 OA
ATOM      3  C   UNL     1       4.779   0.549  27.522  0.00  0.00    +0.147 A 
ATOM      4  C   UNL     1       4.263   1.750  27.996  0.00  0.00    +0.092 A 
ATOM      5  C   UNL     1       4.837   2.953  27.568  0.00  0.00    +0.124 A 
ATOM      6  C   UNL     1       5.925   2.984  26.694  0.00  0.00    +0.092 A 
ATOM      7  C   UNL     1       6.380   1.800  26.150  0.00  0.00    +0.142 A 
ATOM      8  C   UNL     1       5.793   0.583  26.572  0.00  0.00    +0.110 A 
ATOM      9  C   UNL     1       6.193  -0.697  25.979  0.00  0.00    +0.238 A 
ATOM     10  O   UNL     1       6.935  -0.687  25.002  0.00  0.00    -0.283 OA
ATOM     11  C   UNL     1       5.631  -1.962  26.554  0.00  0.00    +0.214 A 
ENDROOT
BRANCH   1  13
ATOM     12  C   UNL     1       4.256  -3.698  29.118  0.00  0.00    +0.015 A 
ATOM     13  C   UNL     1       3.820  -2.978  27.989  0.00  0.00    +0.025 A 
ATOM     14  C   UNL     1       2.730  -3.493  27.261  0.00  0.00    +0.060 A 
ATOM     15  C   UNL     1       2.185  -4.734  27.607  0.00  0.00    +0.159 A 
ATOM     16  C   UNL     1       2.703  -5.473  28.660  0.00  0.00    +0.158 A 
ATOM     17  C   UNL     1       3.705  -4.945  29.457  0.00  0.00    +0.050 A 
BRANCH  16  18
ATOM     18  O   UNL     1       2.214  -6.737  28.862  0.00  0.00    -0.503 OA
ATOM     19  H   UNL     1       2.365  -6.969  29.795  0.00  0.00    +0.292 HD
ENDBRANCH  16  18
BRANCH  15  20
ATOM     20  O   UNL     1       1.169  -5.260  26.858  0.00  0.00    -0.503 OA
ATOM     21  H   UNL     1       1.226  -4.789  26.002  0.00  0.00    +0.292 HD
ENDBRANCH  15  20
ENDBRANCH   1  13
BRANCH   5  22
ATOM     22  O   UNL     1       4.311   4.149  27.957  0.00  0.00    -0.507 OA
ATOM     23  H   UNL     1       3.466   4.287  27.497  0.00  0.00    +0.292 HD
ENDBRANCH   5  22
BRANCH  11  24
ATOM     24  O   UNL     1       6.018  -3.199  26.055  0.00  0.00    -0.453 OA
BRANCH  24  25
ATOM     25  C   UNL     1       7.279  -3.737  26.532  0.00  0.00    +0.340 C 
ATOM     26  O   UNL     1       8.324  -3.075  25.834  0.00  0.00    -0.331 OA
ATOM     27  C   UNL     1       9.428  -3.702  25.190  0.00  0.00    +0.179 C 
ATOM     28  C   UNL     1       9.213  -5.168  24.794  0.00  0.00    +0.177 C 
ATOM     29  C   UNL     1       7.721  -5.541  24.851  0.00  0.00    +0.180 C 
ATOM     30  C   UNL     1       7.204  -5.243  26.270  0.00  0.00    +0.214 C 
BRANCH  30  31
ATOM     31  O   UNL     1       7.947  -5.981  27.258  0.00  0.00    -0.383 OA
ATOM     32  H   UNL     1       7.458  -6.810  27.448  0.00  0.00    +0.210 HD
ENDBRANCH  30  31
BRANCH  29  33
ATOM     33  O   UNL     1       6.988  -4.830  23.841  0.00  0.00    -0.386 OA
ATOM     34  H   UNL     1       7.060  -5.306  22.983  0.00  0.00    +0.210 HD
ENDBRANCH  29  33
BRANCH  28  35
ATOM     35  O   UNL     1       9.976  -5.986  25.705  0.00  0.00    -0.386 OA
ATOM     36  H   UNL     1       9.581  -6.878  25.739  0.00  0.00    +0.210 HD
ENDBRANCH  28  35
BRANCH  27  37
ATOM     37  C   UNL     1       9.707  -2.803  23.968  0.00  0.00    +0.190 C 
BRANCH  37  38
ATOM     38  O   UNL     1       8.536  -2.460  23.244  0.00  0.00    -0.392 OA
ATOM     39  H   UNL     1       8.757  -2.465  22.298  0.00  0.00    +0.210 HD
ENDBRANCH  37  38
ENDBRANCH  27  37
ENDBRANCH  24  25
ENDBRANCH  11  24
BRANCH   7  40
ATOM     40  O   UNL     1       7.270   1.711  25.138  0.00  0.00    -0.460 OA
BRANCH  40  41
ATOM     41  C   UNL     1       8.407   2.522  24.853  0.00  0.00    +0.339 C 
ATOM     42  O   UNL     1       8.217   3.595  23.932  0.00  0.00    -0.331 OA
ATOM     43  C   UNL     1       8.146   3.290  22.522  0.00  0.00    +0.179 C 
ATOM     44  C   UNL     1       9.000   2.110  21.992  0.00  0.00    +0.177 C 
ATOM     45  C   UNL     1       9.050   0.947  22.983  0.00  0.00    +0.180 C 
ATOM     46  C   UNL     1       9.479   1.528  24.343  0.00  0.00    +0.214 C 
BRANCH  46  47
ATOM     47  O   UNL     1       9.721   0.480  25.296  0.00  0.00    -0.383 OA
ATOM     48  H   UNL     1       9.714   0.907  26.172  0.00  0.00    +0.210 HD
ENDBRANCH  46  47
BRANCH  45  49
ATOM     49  O   UNL     1       7.778   0.292  22.974  0.00  0.00    -0.386 OA
ATOM     50  H   UNL     1       7.789  -0.429  22.306  0.00  0.00    +0.210 HD
ENDBRANCH  45  49
BRANCH  44  51
ATOM     51  O   UNL     1      10.359   2.531  21.770  0.00  0.00    -0.386 OA
ATOM     52  H   UNL     1      10.614   2.321  20.856  0.00  0.00    +0.210 HD
ENDBRANCH  44  51
BRANCH  43  53
ATOM     53  C   UNL     1       6.676   3.203  22.103  0.00  0.00    +0.190 C 
BRANCH  53  54
ATOM     54  O   UNL     1       6.145   4.529  22.013  0.00  0.00    -0.392 OA
ATOM     55  H   UNL     1       5.816   4.616  21.099  0.00  0.00    +0.210 HD
ENDBRANCH  53  54
ENDBRANCH  43  53
ENDBRANCH  40  41
ENDBRANCH   7  40
TORSDOF 18
ENDMDL
