MODEL 1
REMARK VINA RESULT:      -6.9      0.000      0.000
REMARK  Name = 
REMARK  24 active torsions:
REMARK  status: ('A' for Active; 'I' for Inactive)
REMARK    1  A    between atoms: C_3  and  O_63
REMARK    2  A    between atoms: C_4  and  O_62
REMARK    3  A    between atoms: C_6  and  C_7
REMARK    4  A    between atoms: C_8  and  O_34
REMARK    5  A    between atoms: C_12  and  O_33
REMARK    6  A    between atoms: C_14  and  O_18
REMARK    7  A    between atoms: O_18  and  C_19
REMARK    8  A    between atoms: C_21  and  O_32
REMARK    9  A    between atoms: C_22  and  O_31
REMARK   10  A    between atoms: C_24  and  O_30
REMARK   11  A    between atoms: C_26  and  C_28
REMARK   12  A    between atoms: C_28  and  O_29
REMARK   13  A    between atoms: O_34  and  C_35
REMARK   14  A    between atoms: C_37  and  O_47
REMARK   15  A    between atoms: C_38  and  O_46
REMARK   16  A    between atoms: C_39  and  O_45
REMARK   17  A    between atoms: C_41  and  C_43
REMARK   18  A    between atoms: C_43  and  O_44
REMARK   19  A    between atoms: O_47  and  C_48
REMARK   20  A    between atoms: C_50  and  O_61
REMARK   21  A    between atoms: C_52  and  O_60
REMARK   22  A    between atoms: C_53  and  O_59
REMARK   23  A    between atoms: C_55  and  C_57
REMARK   24  A    between atoms: C_57  and  O_58
REMARK                            x       y       z     vdW  Elec       q    Type
REMARK                         _______ _______ _______ _____ _____    ______ ____
ROOT
ATOM      1  C   UNL     1       6.171  -2.063  26.379  0.00  0.00    +0.181 A 
ATOM      2  O   UNL     1       6.133  -0.999  25.459  0.00  0.00    -0.451 OA
ATOM      3  C   UNL     1       5.687   0.234  25.819  0.00  0.00    +0.147 A 
ATOM      4  C   UNL     1       5.162   0.494  27.048  0.00  0.00    +0.109 A 
ATOM      5  C   UNL     1       4.886   1.822  27.424  0.00  0.00    +0.135 A 
ATOM      6  C   UNL     1       5.093   2.879  26.527  0.00  0.00    +0.092 A 
ATOM      7  C   UNL     1       5.546   2.604  25.237  0.00  0.00    +0.131 A 
ATOM      8  C   UNL     1       4.822  -0.690  27.845  0.00  0.00    +0.238 A 
ATOM      9  O   UNL     1       4.062  -0.486  28.780  0.00  0.00    -0.283 OA
ATOM     10  C   UNL     1       5.810   1.264  24.894  0.00  0.00    +0.093 A 
ATOM     11  C   UNL     1       5.411  -2.039  27.509  0.00  0.00    +0.214 A 
ENDROOT
BRANCH   1  13
ATOM     12  C   UNL     1       8.119  -3.562  26.815  0.00  0.00    +0.015 A 
ATOM     13  C   UNL     1       7.150  -3.093  25.873  0.00  0.00    +0.025 A 
ATOM     14  C   UNL     1       7.191  -3.675  24.607  0.00  0.00    +0.060 A 
ATOM     15  C   UNL     1       8.110  -4.700  24.335  0.00  0.00    +0.159 A 
ATOM     16  C   UNL     1       9.034  -5.143  25.282  0.00  0.00    +0.158 A 
ATOM     17  C   UNL     1       9.063  -4.556  26.528  0.00  0.00    +0.050 A 
BRANCH  16  18
ATOM     18  O   UNL     1       9.884  -6.161  24.944  0.00  0.00    -0.503 OA
ATOM     19  H   UNL     1      10.133  -6.049  24.008  0.00  0.00    +0.292 HD
ENDBRANCH  16  18
BRANCH  15  20
ATOM     20  O   UNL     1       8.100  -5.313  23.104  0.00  0.00    -0.503 OA
ATOM     21  H   UNL     1       8.192  -6.269  23.297  0.00  0.00    +0.292 HD
ENDBRANCH  15  20
ENDBRANCH   1  13
BRANCH   5  22
ATOM     22  O   UNL     1       4.434   2.163  28.671  0.00  0.00    -0.506 OA
ATOM     23  H   UNL     1       5.181   2.557  29.173  0.00  0.00    +0.292 HD
ENDBRANCH   5  22
BRANCH  11  24
ATOM     24  O   UNL     1       4.899  -3.142  28.183  0.00  0.00    -0.453 OA
BRANCH  24  25
ATOM     25  C   UNL     1       3.925  -4.086  27.673  0.00  0.00    +0.340 C 
ATOM     26  O   UNL     1       2.775  -4.141  28.575  0.00  0.00    -0.331 OA
ATOM     27  C   UNL     1       2.558  -5.250  29.501  0.00  0.00    +0.179 C 
ATOM     28  C   UNL     1       3.581  -6.434  29.557  0.00  0.00    +0.177 C 
ATOM     29  C   UNL     1       4.845  -6.087  28.775  0.00  0.00    +0.180 C 
ATOM     30  C   UNL     1       4.378  -5.514  27.424  0.00  0.00    +0.221 C 
BRANCH  29  31
ATOM     31  O   UNL     1       5.740  -7.184  28.734  0.00  0.00    -0.386 OA
ATOM     32  H   UNL     1       6.648  -6.838  28.754  0.00  0.00    +0.210 HD
ENDBRANCH  29  31
BRANCH  28  33
ATOM     33  O   UNL     1       3.055  -7.662  29.006  0.00  0.00    -0.386 OA
ATOM     34  H   UNL     1       2.410  -8.032  29.636  0.00  0.00    +0.210 HD
ENDBRANCH  28  33
BRANCH  27  35
ATOM     35  C   UNL     1       1.121  -5.812  29.316  0.00  0.00    +0.190 C 
BRANCH  35  36
ATOM     36  O   UNL     1       0.803  -6.139  27.966  0.00  0.00    -0.392 OA
ATOM     37  H   UNL     1       1.566  -5.914  27.412  0.00  0.00    +0.210 HD
ENDBRANCH  35  36
ENDBRANCH  27  35
BRANCH  30  38
ATOM     38  O   UNL     1       4.887  -5.786  26.154  0.00  0.00    -0.337 OA
BRANCH  38  39
ATOM     39  C   UNL     1       4.729  -6.847  25.262  0.00  0.00    +0.282 C 
ATOM     40  O   UNL     1       5.009  -6.294  23.941  0.00  0.00    -0.341 OA
ATOM     41  C   UNL     1       4.313  -5.039  23.756  0.00  0.00    +0.178 C 
ATOM     42  C   UNL     1       2.786  -5.237  23.840  0.00  0.00    +0.177 C 
ATOM     43  C   UNL     1       2.364  -6.167  24.989  0.00  0.00    +0.179 C 
ATOM     44  C   UNL     1       3.298  -7.368  25.207  0.00  0.00    +0.201 C 
BRANCH  44  45
ATOM     45  O   UNL     1       3.100  -8.320  24.145  0.00  0.00    -0.384 OA
ATOM     46  H   UNL     1       3.153  -9.208  24.559  0.00  0.00    +0.210 HD
ENDBRANCH  44  45
BRANCH  43  47
ATOM     47  O   UNL     1       1.015  -6.616  24.772  0.00  0.00    -0.386 OA
ATOM     48  H   UNL     1       0.491  -6.227  25.504  0.00  0.00    +0.210 HD
ENDBRANCH  43  47
BRANCH  42  49
ATOM     49  O   UNL     1       2.244  -5.768  22.627  0.00  0.00    -0.386 OA
ATOM     50  H   UNL     1       1.376  -5.316  22.543  0.00  0.00    +0.210 HD
ENDBRANCH  42  49
BRANCH  41  51
ATOM     51  C   UNL     1       4.763  -4.345  22.466  0.00  0.00    +0.190 C 
BRANCH  51  52
ATOM     52  O   UNL     1       5.370  -5.289  21.579  0.00  0.00    -0.392 OA
ATOM     53  H   UNL     1       5.785  -4.788  20.856  0.00  0.00    +0.210 HD
ENDBRANCH  51  52
ENDBRANCH  41  51
ENDBRANCH  38  39
ENDBRANCH  30  38
ENDBRANCH  24  25
ENDBRANCH  11  24
BRANCH   7  54
ATOM     54  O   UNL     1       5.771   3.690  24.397  0.00  0.00    -0.461 OA
BRANCH  54  55
ATOM     55  C   UNL     1       7.126   3.738  23.907  0.00  0.00    +0.339 C 
ATOM     56  O   UNL     1       7.910   4.604  24.734  0.00  0.00    -0.331 OA
ATOM     57  C   UNL     1       7.567   5.991  24.561  0.00  0.00    +0.179 C 
ATOM     58  C   UNL     1       8.090   6.403  23.181  0.00  0.00    +0.177 C 
ATOM     59  C   UNL     1       7.317   5.605  22.114  0.00  0.00    +0.180 C 
ATOM     60  C   UNL     1       7.312   4.098  22.411  0.00  0.00    +0.214 C 
BRANCH  60  61
ATOM     61  O   UNL     1       6.414   3.397  21.548  0.00  0.00    -0.383 OA
ATOM     62  H   UNL     1       6.611   3.675  20.633  0.00  0.00    +0.210 HD
ENDBRANCH  60  61
BRANCH  59  63
ATOM     63  O   UNL     1       5.978   6.092  21.952  0.00  0.00    -0.386 OA
ATOM     64  H   UNL     1       5.631   6.368  22.818  0.00  0.00    +0.210 HD
ENDBRANCH  59  63
BRANCH  58  65
ATOM     65  O   UNL     1       9.492   6.108  23.120  0.00  0.00    -0.386 OA
ATOM     66  H   UNL     1      10.002   6.876  23.427  0.00  0.00    +0.210 HD
ENDBRANCH  58  65
BRANCH  57  67
ATOM     67  C   UNL     1       8.190   6.794  25.709  0.00  0.00    +0.190 C 
BRANCH  67  68
ATOM     68  O   UNL     1       9.294   6.091  26.293  0.00  0.00    -0.392 OA
ATOM     69  H   UNL     1       9.142   6.010  27.251  0.00  0.00    +0.210 HD
ENDBRANCH  67  68
ENDBRANCH  57  67
ENDBRANCH  54  55
ENDBRANCH   7  54
TORSDOF 24
ENDMDL
MODEL 2
REMARK VINA RESULT:      -6.6      2.247      9.920
REMARK  Name = 
REMARK  24 active torsions:
REMARK  status: ('A' for Active; 'I' for Inactive)
REMARK    1  A    between atoms: C_3  and  O_63
REMARK    2  A    between atoms: C_4  and  O_62
REMARK    3  A    between atoms: C_6  and  C_7
REMARK    4  A    between atoms: C_8  and  O_34
REMARK    5  A    between atoms: C_12  and  O_33
REMARK    6  A    between atoms: C_14  and  O_18
REMARK    7  A    between atoms: O_18  and  C_19
REMARK    8  A    between atoms: C_21  and  O_32
REMARK    9  A    between atoms: C_22  and  O_31
REMARK   10  A    between atoms: C_24  and  O_30
REMARK   11  A    between atoms: C_26  and  C_28
REMARK   12  A    between atoms: C_28  and  O_29
REMARK   13  A    between atoms: O_34  and  C_35
REMARK   14  A    between atoms: C_37  and  O_47
REMARK   15  A    between atoms: C_38  and  O_46
REMARK   16  A    between atoms: C_39  and  O_45
REMARK   17  A    between atoms: C_41  and  C_43
REMARK   18  A    between atoms: C_43  and  O_44
REMARK   19  A    between atoms: O_47  and  C_48
REMARK   20  A    between atoms: C_50  and  O_61
REMARK   21  A    between atoms: C_52  and  O_60
REMARK   22  A    between atoms: C_53  and  O_59
REMARK   23  A    between atoms: C_55  and  C_57
REMARK   24  A    between atoms: C_57  and  O_58
REMARK                            x       y       z     vdW  Elec       q    Type
REMARK                         _______ _______ _______ _____ _____    ______ ____
ROOT
ATOM      1  C   UNL     1       5.072   0.884  26.592  0.00  0.00    +0.181 A 
ATOM      2  O   UNL     1       4.288  -0.215  26.192  0.00  0.00    -0.451 OA
ATOM      3  C   UNL     1       4.766  -1.486  26.254  0.00  0.00    +0.147 A 
ATOM      4  C   UNL     1       6.050  -1.772  26.608  0.00  0.00    +0.109 A 
ATOM      5  C   UNL     1       6.434  -3.108  26.828  0.00  0.00    +0.135 A 
ATOM      6  C   UNL     1       5.524  -4.157  26.634  0.00  0.00    +0.092 A 
ATOM      7  C   UNL     1       4.235  -3.872  26.185  0.00  0.00    +0.131 A 
ATOM      8  C   UNL     1       6.964  -0.625  26.618  0.00  0.00    +0.238 A 
ATOM      9  O   UNL     1       8.153  -0.908  26.603  0.00  0.00    -0.283 OA
ATOM     10  C   UNL     1       3.886  -2.524  25.972  0.00  0.00    +0.093 A 
ATOM     11  C   UNL     1       6.428   0.786  26.665  0.00  0.00    +0.214 A 
ENDROOT
BRANCH   1  13
ATOM     12  C   UNL     1       3.390   2.550  25.803  0.00  0.00    +0.015 A 
ATOM     13  C   UNL     1       4.151   2.038  26.900  0.00  0.00    +0.025 A 
ATOM     14  C   UNL     1       3.922   2.632  28.140  0.00  0.00    +0.060 A 
ATOM     15  C   UNL     1       2.947   3.635  28.268  0.00  0.00    +0.159 A 
ATOM     16  C   UNL     1       2.212   4.102  27.178  0.00  0.00    +0.158 A 
ATOM     17  C   UNL     1       2.447   3.579  25.926  0.00  0.00    +0.050 A 
BRANCH  16  18
ATOM     18  O   UNL     1       1.266   5.069  27.390  0.00  0.00    -0.503 OA
ATOM     19  H   UNL     1       0.441   4.785  26.956  0.00  0.00    +0.292 HD
ENDBRANCH  16  18
BRANCH  15  20
ATOM     20  O   UNL     1       2.681   4.170  29.506  0.00  0.00    -0.503 OA
ATOM     21  H   UNL     1       2.495   3.399  30.080  0.00  0.00    +0.292 HD
ENDBRANCH  15  20
ENDBRANCH   1  13
BRANCH   5  22
ATOM     22  O   UNL     1       7.683  -3.459  27.264  0.00  0.00    -0.506 OA
ATOM     23  H   UNL     1       7.693  -3.410  28.246  0.00  0.00    +0.292 HD
ENDBRANCH   5  22
BRANCH  11  24
ATOM     24  O   UNL     1       7.342   1.819  26.479  0.00  0.00    -0.453 OA
BRANCH  24  25
ATOM     25  C   UNL     1       8.227   1.990  25.345  0.00  0.00    +0.340 C 
ATOM     26  O   UNL     1       8.704   3.371  25.297  0.00  0.00    -0.331 OA
ATOM     27  C   UNL     1       8.183   4.349  24.345  0.00  0.00    +0.179 C 
ATOM     28  C   UNL     1       7.067   3.932  23.329  0.00  0.00    +0.177 C 
ATOM     29  C   UNL     1       6.491   2.568  23.697  0.00  0.00    +0.180 C 
ATOM     30  C   UNL     1       7.693   1.645  23.965  0.00  0.00    +0.221 C 
BRANCH  29  31
ATOM     31  O   UNL     1       5.548   2.132  22.733  0.00  0.00    -0.386 OA
ATOM     32  H   UNL     1       5.721   2.605  21.902  0.00  0.00    +0.210 HD
ENDBRANCH  29  31
BRANCH  28  33
ATOM     33  O   UNL     1       7.544   3.848  21.968  0.00  0.00    -0.386 OA
ATOM     34  H   UNL     1       8.164   3.099  21.904  0.00  0.00    +0.210 HD
ENDBRANCH  28  33
BRANCH  27  35
ATOM     35  C   UNL     1       9.361   5.013  23.580  0.00  0.00    +0.190 C 
BRANCH  35  36
ATOM     36  O   UNL     1       8.977   6.144  22.805  0.00  0.00    -0.392 OA
ATOM     37  H   UNL     1       9.680   6.323  22.161  0.00  0.00    +0.210 HD
ENDBRANCH  35  36
ENDBRANCH  27  35
BRANCH  30  38
ATOM     38  O   UNL     1       7.874   0.326  23.547  0.00  0.00    -0.337 OA
BRANCH  38  39
ATOM     39  C   UNL     1       8.312  -0.254  22.356  0.00  0.00    +0.282 C 
ATOM     40  O   UNL     1       7.268  -1.197  21.971  0.00  0.00    -0.341 OA
ATOM     41  C   UNL     1       6.867  -2.003  23.103  0.00  0.00    +0.178 C 
ATOM     42  C   UNL     1       8.049  -2.842  23.630  0.00  0.00    +0.177 C 
ATOM     43  C   UNL     1       9.362  -2.047  23.703  0.00  0.00    +0.179 C 
ATOM     44  C   UNL     1       9.582  -1.079  22.530  0.00  0.00    +0.201 C 
BRANCH  44  45
ATOM     45  O   UNL     1       9.914  -1.834  21.349  0.00  0.00    -0.384 OA
ATOM     46  H   UNL     1      10.495  -2.566  21.644  0.00  0.00    +0.210 HD
ENDBRANCH  44  45
BRANCH  43  47
ATOM     47  O   UNL     1      10.469  -2.959  23.812  0.00  0.00    -0.386 OA
ATOM     48  H   UNL     1      10.208  -3.746  23.289  0.00  0.00    +0.210 HD
ENDBRANCH  43  47
BRANCH  42  49
ATOM     49  O   UNL     1       8.285  -4.004  22.829  0.00  0.00    -0.386 OA
ATOM     50  H   UNL     1       8.097  -4.749  23.439  0.00  0.00    +0.210 HD
ENDBRANCH  42  49
BRANCH  41  51
ATOM     51  C   UNL     1       5.630  -2.844  22.769  0.00  0.00    +0.190 C 
BRANCH  51  52
ATOM     52  O   UNL     1       5.727  -3.367  21.440  0.00  0.00    -0.392 OA
ATOM     53  H   UNL     1       5.041  -2.936  20.903  0.00  0.00    +0.210 HD
ENDBRANCH  51  52
ENDBRANCH  41  51
ENDBRANCH  38  39
ENDBRANCH  30  38
ENDBRANCH  24  25
ENDBRANCH  11  24
BRANCH   7  54
ATOM     54  O   UNL     1       3.360  -4.944  26.042  0.00  0.00    -0.461 OA
BRANCH  54  55
ATOM     55  C   UNL     1       3.702  -5.792  24.927  0.00  0.00    +0.339 C 
ATOM     56  O   UNL     1       2.753  -5.609  23.871  0.00  0.00    -0.331 OA
ATOM     57  C   UNL     1       1.465  -6.169  24.184  0.00  0.00    +0.179 C 
ATOM     58  C   UNL     1       1.626  -7.692  24.131  0.00  0.00    +0.177 C 
ATOM     59  C   UNL     1       2.591  -8.116  25.254  0.00  0.00    +0.180 C 
ATOM     60  C   UNL     1       3.892  -7.299  25.233  0.00  0.00    +0.214 C 
BRANCH  60  61
ATOM     61  O   UNL     1       4.680  -7.540  26.402  0.00  0.00    -0.383 OA
ATOM     62  H   UNL     1       5.412  -6.893  26.398  0.00  0.00    +0.210 HD
ENDBRANCH  60  61
BRANCH  59  63
ATOM     63  O   UNL     1       1.971  -8.043  26.544  0.00  0.00    -0.386 OA
ATOM     64  H   UNL     1       1.186  -7.470  26.492  0.00  0.00    +0.210 HD
ENDBRANCH  59  63
BRANCH  58  65
ATOM     65  O   UNL     1       2.152  -8.049  22.846  0.00  0.00    -0.386 OA
ATOM     66  H   UNL     1       1.952  -7.348  22.204  0.00  0.00    +0.210 HD
ENDBRANCH  58  65
BRANCH  57  67
ATOM     67  C   UNL     1       0.443  -5.633  23.175  0.00  0.00    +0.190 C 
BRANCH  67  68
ATOM     68  O   UNL     1       0.857  -5.898  21.828  0.00  0.00    -0.392 OA
ATOM     69  H   UNL     1       0.478  -6.749  21.546  0.00  0.00    +0.210 HD
ENDBRANCH  67  68
ENDBRANCH  57  67
ENDBRANCH  54  55
ENDBRANCH   7  54
TORSDOF 24
ENDMDL
MODEL 3
REMARK VINA RESULT:      -6.5      1.331      2.216
REMARK  Name = 
REMARK  24 active torsions:
REMARK  status: ('A' for Active; 'I' for Inactive)
REMARK    1  A    between atoms: C_3  and  O_63
REMARK    2  A    between atoms: C_4  and  O_62
REMARK    3  A    between atoms: C_6  and  C_7
REMARK    4  A    between atoms: C_8  and  O_34
REMARK    5  A    between atoms: C_12  and  O_33
REMARK    6  A    between atoms: C_14  and  O_18
REMARK    7  A    between atoms: O_18  and  C_19
REMARK    8  A    between atoms: C_21  and  O_32
REMARK    9  A    between atoms: C_22  and  O_31
REMARK   10  A    between atoms: C_24  and  O_30
REMARK   11  A    between atoms: C_26  and  C_28
REMARK   12  A    between atoms: C_28  and  O_29
REMARK   13  A    between atoms: O_34  and  C_35
REMARK   14  A    between atoms: C_37  and  O_47
REMARK   15  A    between atoms: C_38  and  O_46
REMARK   16  A    between atoms: C_39  and  O_45
REMARK   17  A    between atoms: C_41  and  C_43
REMARK   18  A    between atoms: C_43  and  O_44
REMARK   19  A    between atoms: O_47  and  C_48
REMARK   20  A    between atoms: C_50  and  O_61
REMARK   21  A    between atoms: C_52  and  O_60
REMARK   22  A    between atoms: C_53  and  O_59
REMARK   23  A    between atoms: C_55  and  C_57
REMARK   24  A    between atoms: C_57  and  O_58
REMARK                            x       y       z     vdW  Elec       q    Type
REMARK                         _______ _______ _______ _____ _____    ______ ____
ROOT
ATOM      1  C   UNL     1       6.400  -1.538  26.681  0.00  0.00    +0.181 A 
ATOM      2  O   UNL     1       6.444  -0.367  25.900  0.00  0.00    -0.451 OA
ATOM      3  C   UNL     1       5.900   0.799  26.340  0.00  0.00    +0.147 A 
ATOM      4  C   UNL     1       5.199   0.888  27.504  0.00  0.00    +0.109 A 
ATOM      5  C   UNL     1       4.816   2.151  27.995  0.00  0.00    +0.135 A 
ATOM      6  C   UNL     1       5.100   3.317  27.271  0.00  0.00    +0.092 A 
ATOM      7  C   UNL     1       5.739   3.219  26.035  0.00  0.00    +0.131 A 
ATOM      8  C   UNL     1       4.804  -0.395  28.095  0.00  0.00    +0.238 A 
ATOM      9  O   UNL     1       3.913  -0.331  28.929  0.00  0.00    -0.283 OA
ATOM     10  C   UNL     1       6.105   1.940  25.574  0.00  0.00    +0.093 A 
ATOM     11  C   UNL     1       5.491  -1.675  27.685  0.00  0.00    +0.214 A 
ENDROOT
BRANCH   1  13
ATOM     12  C   UNL     1       7.526  -3.762  26.812  0.00  0.00    +0.015 A 
ATOM     13  C   UNL     1       7.484  -2.470  26.199  0.00  0.00    +0.025 A 
ATOM     14  C   UNL     1       8.420  -2.234  25.194  0.00  0.00    +0.060 A 
ATOM     15  C   UNL     1       9.297  -3.257  24.798  0.00  0.00    +0.159 A 
ATOM     16  C   UNL     1       9.302  -4.511  25.408  0.00  0.00    +0.158 A 
ATOM     17  C   UNL     1       8.430  -4.767  26.443  0.00  0.00    +0.050 A 
BRANCH  16  18
ATOM     18  O   UNL     1      10.177  -5.460  24.951  0.00  0.00    -0.503 OA
ATOM     19  H   UNL     1      11.083  -5.144  25.121  0.00  0.00    +0.292 HD
ENDBRANCH  16  18
BRANCH  15  20
ATOM     20  O   UNL     1      10.173  -3.037  23.761  0.00  0.00    -0.503 OA
ATOM     21  H   UNL     1       9.906  -3.673  23.066  0.00  0.00    +0.292 HD
ENDBRANCH  15  20
ENDBRANCH   1  13
BRANCH   5  22
ATOM     22  O   UNL     1       4.182   2.320  29.197  0.00  0.00    -0.506 OA
ATOM     23  H   UNL     1       3.679   1.500  29.399  0.00  0.00    +0.292 HD
ENDBRANCH   5  22
BRANCH  11  24
ATOM     24  O   UNL     1       4.938  -2.868  28.141  0.00  0.00    -0.453 OA
BRANCH  24  25
ATOM     25  C   UNL     1       3.850  -3.600  27.528  0.00  0.00    +0.340 C 
ATOM     26  O   UNL     1       2.766  -3.773  28.494  0.00  0.00    -0.331 OA
ATOM     27  C   UNL     1       2.516  -5.041  29.174  0.00  0.00    +0.179 C 
ATOM     28  C   UNL     1       3.429  -6.279  28.881  0.00  0.00    +0.177 C 
ATOM     29  C   UNL     1       4.661  -5.858  28.084  0.00  0.00    +0.180 C 
ATOM     30  C   UNL     1       4.153  -4.967  26.936  0.00  0.00    +0.221 C 
BRANCH  29  31
ATOM     31  O   UNL     1       5.448  -6.980  27.727  0.00  0.00    -0.386 OA
ATOM     32  H   UNL     1       5.767  -7.402  28.542  0.00  0.00    +0.210 HD
ENDBRANCH  29  31
BRANCH  28  33
ATOM     33  O   UNL     1       2.757  -7.311  28.126  0.00  0.00    -0.386 OA
ATOM     34  H   UNL     1       2.731  -8.122  28.667  0.00  0.00    +0.210 HD
ENDBRANCH  28  33
BRANCH  27  35
ATOM     35  C   UNL     1       1.025  -5.442  29.000  0.00  0.00    +0.190 C 
BRANCH  35  36
ATOM     36  O   UNL     1       0.635  -6.561  29.790  0.00  0.00    -0.392 OA
ATOM     37  H   UNL     1       0.920  -7.368  29.333  0.00  0.00    +0.210 HD
ENDBRANCH  35  36
ENDBRANCH  27  35
BRANCH  30  38
ATOM     38  O   UNL     1       4.545  -4.984  25.597  0.00  0.00    -0.337 OA
BRANCH  38  39
ATOM     39  C   UNL     1       4.334  -4.120  24.522  0.00  0.00    +0.282 C 
ATOM     40  O   UNL     1       3.385  -4.804  23.650  0.00  0.00    -0.341 OA
ATOM     41  C   UNL     1       3.779  -6.181  23.448  0.00  0.00    +0.178 C 
ATOM     42  C   UNL     1       5.156  -6.266  22.759  0.00  0.00    +0.177 C 
ATOM     43  C   UNL     1       6.176  -5.270  23.333  0.00  0.00    +0.179 C 
ATOM     44  C   UNL     1       5.588  -3.895  23.686  0.00  0.00    +0.201 C 
BRANCH  44  45
ATOM     45  O   UNL     1       5.317  -3.169  22.472  0.00  0.00    -0.384 OA
ATOM     46  H   UNL     1       5.265  -3.838  21.757  0.00  0.00    +0.210 HD
ENDBRANCH  44  45
BRANCH  43  47
ATOM     47  O   UNL     1       7.272  -5.122  22.413  0.00  0.00    -0.386 OA
ATOM     48  H   UNL     1       6.961  -4.481  21.740  0.00  0.00    +0.210 HD
ENDBRANCH  43  47
BRANCH  42  49
ATOM     49  O   UNL     1       5.068  -6.037  21.349  0.00  0.00    -0.386 OA
ATOM     50  H   UNL     1       4.176  -6.374  21.114  0.00  0.00    +0.210 HD
ENDBRANCH  42  49
BRANCH  41  51
ATOM     51  C   UNL     1       2.686  -6.964  22.714  0.00  0.00    +0.190 C 
BRANCH  51  52
ATOM     52  O   UNL     1       2.499  -8.246  23.320  0.00  0.00    -0.392 OA
ATOM     53  H   UNL     1       3.314  -8.466  23.802  0.00  0.00    +0.210 HD
ENDBRANCH  51  52
ENDBRANCH  41  51
ENDBRANCH  38  39
ENDBRANCH  30  38
ENDBRANCH  24  25
ENDBRANCH  11  24
BRANCH   7  54
ATOM     54  O   UNL     1       6.030   4.408  25.374  0.00  0.00    -0.461 OA
BRANCH  54  55
ATOM     55  C   UNL     1       6.385   4.197  23.992  0.00  0.00    +0.339 C 
ATOM     56  O   UNL     1       7.673   4.764  23.730  0.00  0.00    -0.331 OA
ATOM     57  C   UNL     1       7.652   6.203  23.733  0.00  0.00    +0.179 C 
ATOM     58  C   UNL     1       6.913   6.634  22.462  0.00  0.00    +0.177 C 
ATOM     59  C   UNL     1       5.453   6.157  22.567  0.00  0.00    +0.180 C 
ATOM     60  C   UNL     1       5.357   4.668  22.931  0.00  0.00    +0.214 C 
BRANCH  60  61
ATOM     61  O   UNL     1       4.014   4.291  23.244  0.00  0.00    -0.383 OA
ATOM     62  H   UNL     1       3.725   4.840  23.998  0.00  0.00    +0.210 HD
ENDBRANCH  60  61
BRANCH  59  63
ATOM     63  O   UNL     1       4.699   6.952  23.492  0.00  0.00    -0.386 OA
ATOM     64  H   UNL     1       5.210   7.748  23.722  0.00  0.00    +0.210 HD
ENDBRANCH  59  63
BRANCH  58  65
ATOM     65  O   UNL     1       7.564   6.034  21.333  0.00  0.00    -0.386 OA
ATOM     66  H   UNL     1       7.605   6.672  20.602  0.00  0.00    +0.210 HD
ENDBRANCH  58  65
BRANCH  57  67
ATOM     67  C   UNL     1       9.098   6.710  23.794  0.00  0.00    +0.190 C 
BRANCH  67  68
ATOM     68  O   UNL     1       9.934   6.003  22.870  0.00  0.00    -0.392 OA
ATOM     69  H   UNL     1       9.708   5.057  22.903  0.00  0.00    +0.210 HD
ENDBRANCH  67  68
ENDBRANCH  57  67
ENDBRANCH  54  55
ENDBRANCH   7  54
TORSDOF 24
ENDMDL
MODEL 4
REMARK VINA RESULT:      -6.4      2.234     10.862
REMARK  Name = 
REMARK  24 active torsions:
REMARK  status: ('A' for Active; 'I' for Inactive)
REMARK    1  A    between atoms: C_3  and  O_63
REMARK    2  A    between atoms: C_4  and  O_62
REMARK    3  A    between atoms: C_6  and  C_7
REMARK    4  A    between atoms: C_8  and  O_34
REMARK    5  A    between atoms: C_12  and  O_33
REMARK    6  A    between atoms: C_14  and  O_18
REMARK    7  A    between atoms: O_18  and  C_19
REMARK    8  A    between atoms: C_21  and  O_32
REMARK    9  A    between atoms: C_22  and  O_31
REMARK   10  A    between atoms: C_24  and  O_30
REMARK   11  A    between atoms: C_26  and  C_28
REMARK   12  A    between atoms: C_28  and  O_29
REMARK   13  A    between atoms: O_34  and  C_35
REMARK   14  A    between atoms: C_37  and  O_47
REMARK   15  A    between atoms: C_38  and  O_46
REMARK   16  A    between atoms: C_39  and  O_45
REMARK   17  A    between atoms: C_41  and  C_43
REMARK   18  A    between atoms: C_43  and  O_44
REMARK   19  A    between atoms: O_47  and  C_48
REMARK   20  A    between atoms: C_50  and  O_61
REMARK   21  A    between atoms: C_52  and  O_60
REMARK   22  A    between atoms: C_53  and  O_59
REMARK   23  A    between atoms: C_55  and  C_57
REMARK   24  A    between atoms: C_57  and  O_58
REMARK                            x       y       z     vdW  Elec       q    Type
REMARK                         _______ _______ _______ _____ _____    ______ ____
ROOT
ATOM      1  C   UNL     1       7.607   0.550  25.482  0.00  0.00    +0.181 A 
ATOM      2  O   UNL     1       6.709  -0.485  25.160  0.00  0.00    -0.451 OA
ATOM      3  C   UNL     1       7.150  -1.702  24.744  0.00  0.00    +0.147 A 
ATOM      4  C   UNL     1       8.466  -1.967  24.518  0.00  0.00    +0.109 A 
ATOM      5  C   UNL     1       8.879  -3.289  24.265  0.00  0.00    +0.135 A 
ATOM      6  C   UNL     1       7.943  -4.330  24.186  0.00  0.00    +0.092 A 
ATOM      7  C   UNL     1       6.586  -4.044  24.328  0.00  0.00    +0.131 A 
ATOM      8  C   UNL     1       9.338  -0.790  24.451  0.00  0.00    +0.238 A 
ATOM      9  O   UNL     1      10.427  -0.979  23.930  0.00  0.00    -0.283 OA
ATOM     10  C   UNL     1       6.208  -2.711  24.579  0.00  0.00    +0.093 A 
ATOM     11  C   UNL     1       8.888   0.535  25.019  0.00  0.00    +0.214 A 
ENDROOT
BRANCH   1  13
ATOM     12  C   UNL     1       5.533   1.238  26.688  0.00  0.00    +0.015 A 
ATOM     13  C   UNL     1       6.893   1.541  26.368  0.00  0.00    +0.025 A 
ATOM     14  C   UNL     1       7.421   2.693  26.948  0.00  0.00    +0.060 A 
ATOM     15  C   UNL     1       6.642   3.452  27.836  0.00  0.00    +0.159 A 
ATOM     16  C   UNL     1       5.320   3.120  28.137  0.00  0.00    +0.158 A 
ATOM     17  C   UNL     1       4.744   2.020  27.542  0.00  0.00    +0.050 A 
BRANCH  16  18
ATOM     18  O   UNL     1       4.634   3.901  29.028  0.00  0.00    -0.503 OA
ATOM     19  H   UNL     1       5.169   4.697  29.207  0.00  0.00    +0.292 HD
ENDBRANCH  16  18
BRANCH  15  20
ATOM     20  O   UNL     1       7.192   4.549  28.455  0.00  0.00    -0.503 OA
ATOM     21  H   UNL     1       7.484   4.226  29.332  0.00  0.00    +0.292 HD
ENDBRANCH  15  20
ENDBRANCH   1  13
BRANCH   5  22
ATOM     22  O   UNL     1      10.194  -3.640  24.110  0.00  0.00    -0.506 OA
ATOM     23  H   UNL     1      10.598  -3.037  23.449  0.00  0.00    +0.292 HD
ENDBRANCH   5  22
BRANCH  11  24
ATOM     24  O   UNL     1       9.683   1.644  24.750  0.00  0.00    -0.453 OA
BRANCH  24  25
ATOM     25  C   UNL     1       9.572   2.524  23.604  0.00  0.00    +0.340 C 
ATOM     26  O   UNL     1      10.907   2.859  23.111  0.00  0.00    -0.331 OA
ATOM     27  C   UNL     1      11.533   4.155  23.360  0.00  0.00    +0.179 C 
ATOM     28  C   UNL     1      10.772   5.244  24.189  0.00  0.00    +0.177 C 
ATOM     29  C   UNL     1       9.540   4.643  24.859  0.00  0.00    +0.180 C 
ATOM     30  C   UNL     1       8.810   3.827  23.777  0.00  0.00    +0.221 C 
BRANCH  29  31
ATOM     31  O   UNL     1       8.787   5.635  25.533  0.00  0.00    -0.386 OA
ATOM     32  H   UNL     1       7.869   5.326  25.605  0.00  0.00    +0.210 HD
ENDBRANCH  29  31
BRANCH  28  33
ATOM     33  O   UNL     1      10.327   6.358  23.384  0.00  0.00    -0.386 OA
ATOM     34  H   UNL     1      10.080   6.023  22.503  0.00  0.00    +0.210 HD
ENDBRANCH  28  33
BRANCH  27  35
ATOM     35  C   UNL     1      12.018   4.768  22.017  0.00  0.00    +0.190 C 
BRANCH  35  36
ATOM     36  O   UNL     1      13.107   5.675  22.161  0.00  0.00    -0.392 OA
ATOM     37  H   UNL     1      13.192   6.179  21.336  0.00  0.00    +0.210 HD
ENDBRANCH  35  36
ENDBRANCH  27  35
BRANCH  30  38
ATOM     38  O   UNL     1       7.440   3.778  23.515  0.00  0.00    -0.337 OA
BRANCH  38  39
ATOM     39  C   UNL     1       6.610   4.441  22.611  0.00  0.00    +0.282 C 
ATOM     40  O   UNL     1       6.159   5.644  23.301  0.00  0.00    -0.341 OA
ATOM     41  C   UNL     1       5.717   5.327  24.642  0.00  0.00    +0.178 C 
ATOM     42  C   UNL     1       4.520   4.356  24.614  0.00  0.00    +0.177 C 
ATOM     43  C   UNL     1       4.692   3.221  23.592  0.00  0.00    +0.179 C 
ATOM     44  C   UNL     1       5.350   3.652  22.273  0.00  0.00    +0.201 C 
BRANCH  44  45
ATOM     45  O   UNL     1       4.409   4.422  21.502  0.00  0.00    -0.384 OA
ATOM     46  H   UNL     1       4.830   5.294  21.345  0.00  0.00    +0.210 HD
ENDBRANCH  44  45
BRANCH  43  47
ATOM     47  O   UNL     1       3.416   2.608  23.337  0.00  0.00    -0.386 OA
ATOM     48  H   UNL     1       2.947   3.227  22.738  0.00  0.00    +0.210 HD
ENDBRANCH  43  47
BRANCH  42  49
ATOM     49  O   UNL     1       3.290   5.026  24.319  0.00  0.00    -0.386 OA
ATOM     50  H   UNL     1       2.603   4.375  24.579  0.00  0.00    +0.210 HD
ENDBRANCH  42  49
BRANCH  41  51
ATOM     51  C   UNL     1       5.444   6.602  25.447  0.00  0.00    +0.190 C 
BRANCH  51  52
ATOM     52  O   UNL     1       6.304   6.663  26.589  0.00  0.00    -0.392 OA
ATOM     53  H   UNL     1       5.817   7.114  27.300  0.00  0.00    +0.210 HD
ENDBRANCH  51  52
ENDBRANCH  41  51
ENDBRANCH  38  39
ENDBRANCH  30  38
ENDBRANCH  24  25
ENDBRANCH  11  24
BRANCH   7  54
ATOM     54  O   UNL     1       5.701  -5.116  24.279  0.00  0.00    -0.461 OA
BRANCH  54  55
ATOM     55  C   UNL     1       4.465  -4.844  24.971  0.00  0.00    +0.339 C 
ATOM     56  O   UNL     1       4.616  -5.133  26.364  0.00  0.00    -0.331 OA
ATOM     57  C   UNL     1       4.707  -6.545  26.628  0.00  0.00    +0.179 C 
ATOM     58  C   UNL     1       3.309  -7.126  26.390  0.00  0.00    +0.177 C 
ATOM     59  C   UNL     1       2.966  -6.963  24.898  0.00  0.00    +0.180 C 
ATOM     60  C   UNL     1       3.190  -5.524  24.409  0.00  0.00    +0.214 C 
BRANCH  60  61
ATOM     61  O   UNL     1       3.086  -5.432  22.986  0.00  0.00    -0.383 OA
ATOM     62  H   UNL     1       3.271  -6.319  22.622  0.00  0.00    +0.210 HD
ENDBRANCH  60  61
BRANCH  59  63
ATOM     63  O   UNL     1       3.690  -7.892  24.081  0.00  0.00    -0.386 OA
ATOM     64  H   UNL     1       4.361  -8.342  24.623  0.00  0.00    +0.210 HD
ENDBRANCH  59  63
BRANCH  58  65
ATOM     65  O   UNL     1       2.374  -6.410  27.209  0.00  0.00    -0.386 OA
ATOM     66  H   UNL     1       1.469  -6.696  26.998  0.00  0.00    +0.210 HD
ENDBRANCH  58  65
BRANCH  57  67
ATOM     67  C   UNL     1       5.207  -6.740  28.064  0.00  0.00    +0.190 C 
BRANCH  67  68
ATOM     68  O   UNL     1       4.281  -7.517  28.834  0.00  0.00    -0.392 OA
ATOM     69  H   UNL     1       3.600  -7.874  28.238  0.00  0.00    +0.210 HD
ENDBRANCH  67  68
ENDBRANCH  57  67
ENDBRANCH  54  55
ENDBRANCH   7  54
TORSDOF 24
ENDMDL
MODEL 5
REMARK VINA RESULT:      -6.4      2.445     10.056
REMARK  Name = 
REMARK  24 active torsions:
REMARK  status: ('A' for Active; 'I' for Inactive)
REMARK    1  A    between atoms: C_3  and  O_63
REMARK    2  A    between atoms: C_4  and  O_62
REMARK    3  A    between atoms: C_6  and  C_7
REMARK    4  A    between atoms: C_8  and  O_34
REMARK    5  A    between atoms: C_12  and  O_33
REMARK    6  A    between atoms: C_14  and  O_18
REMARK    7  A    between atoms: O_18  and  C_19
REMARK    8  A    between atoms: C_21  and  O_32
REMARK    9  A    between atoms: C_22  and  O_31
REMARK   10  A    between atoms: C_24  and  O_30
REMARK   11  A    between atoms: C_26  and  C_28
REMARK   12  A    between atoms: C_28  and  O_29
REMARK   13  A    between atoms: O_34  and  C_35
REMARK   14  A    between atoms: C_37  and  O_47
REMARK   15  A    between atoms: C_38  and  O_46
REMARK   16  A    between atoms: C_39  and  O_45
REMARK   17  A    between atoms: C_41  and  C_43
REMARK   18  A    between atoms: C_43  and  O_44
REMARK   19  A    between atoms: O_47  and  C_48
REMARK   20  A    between atoms: C_50  and  O_61
REMARK   21  A    between atoms: C_52  and  O_60
REMARK   22  A    between atoms: C_53  and  O_59
REMARK   23  A    between atoms: C_55  and  C_57
REMARK   24  A    between atoms: C_57  and  O_58
REMARK                            x       y       z     vdW  Elec       q    Type
REMARK                         _______ _______ _______ _____ _____    ______ ____
ROOT
ATOM      1  C   UNL     1       4.861   2.780  25.328  0.00  0.00    +0.181 A 
ATOM      2  O   UNL     1       4.481   1.425  25.351  0.00  0.00    -0.451 OA
ATOM      3  C   UNL     1       4.627   0.667  26.470  0.00  0.00    +0.147 A 
ATOM      4  C   UNL     1       5.232   1.131  27.597  0.00  0.00    +0.109 A 
ATOM      5  C   UNL     1       5.193   0.366  28.779  0.00  0.00    +0.135 A 
ATOM      6  C   UNL     1       4.584  -0.896  28.795  0.00  0.00    +0.092 A 
ATOM      7  C   UNL     1       4.043  -1.411  27.618  0.00  0.00    +0.131 A 
ATOM      8  C   UNL     1       5.987   2.378  27.432  0.00  0.00    +0.238 A 
ATOM      9  O   UNL     1       6.790   2.622  28.321  0.00  0.00    -0.283 OA
ATOM     10  C   UNL     1       4.102  -0.620  26.454  0.00  0.00    +0.093 A 
ATOM     11  C   UNL     1       5.739   3.276  26.243  0.00  0.00    +0.214 A 
ENDROOT
BRANCH   1  13
ATOM     12  C   UNL     1       2.814   2.981  23.915  0.00  0.00    +0.015 A 
ATOM     13  C   UNL     1       4.132   3.459  24.196  0.00  0.00    +0.025 A 
ATOM     14  C   UNL     1       4.578   4.529  23.422  0.00  0.00    +0.060 A 
ATOM     15  C   UNL     1       3.724   5.111  22.470  0.00  0.00    +0.159 A 
ATOM     16  C   UNL     1       2.437   4.628  22.231  0.00  0.00    +0.158 A 
ATOM     17  C   UNL     1       1.979   3.537  22.936  0.00  0.00    +0.050 A 
BRANCH  16  18
ATOM     18  O   UNL     1       1.660   5.263  21.300  0.00  0.00    -0.503 OA
ATOM     19  H   UNL     1       2.230   5.510  20.548  0.00  0.00    +0.292 HD
ENDBRANCH  16  18
BRANCH  15  20
ATOM     20  O   UNL     1       4.148   6.208  21.758  0.00  0.00    -0.503 OA
ATOM     21  H   UNL     1       5.122   6.123  21.720  0.00  0.00    +0.292 HD
ENDBRANCH  15  20
ENDBRANCH   1  13
BRANCH   5  22
ATOM     22  O   UNL     1       5.710   0.808  29.968  0.00  0.00    -0.506 OA
ATOM     23  H   UNL     1       5.591   1.782  30.013  0.00  0.00    +0.292 HD
ENDBRANCH   5  22
BRANCH  11  24
ATOM     24  O   UNL     1       6.619   4.336  26.053  0.00  0.00    -0.453 OA
BRANCH  24  25
ATOM     25  C   UNL     1       8.054   4.241  25.879  0.00  0.00    +0.340 C 
ATOM     26  O   UNL     1       8.676   5.523  26.211  0.00  0.00    -0.331 OA
ATOM     27  C   UNL     1       9.160   6.448  25.190  0.00  0.00    +0.179 C 
ATOM     28  C   UNL     1       9.017   6.083  23.674  0.00  0.00    +0.177 C 
ATOM     29  C   UNL     1       8.107   4.870  23.499  0.00  0.00    +0.180 C 
ATOM     30  C   UNL     1       8.582   3.819  24.518  0.00  0.00    +0.221 C 
BRANCH  29  31
ATOM     31  O   UNL     1       8.044   4.467  22.142  0.00  0.00    -0.386 OA
ATOM     32  H   UNL     1       8.173   5.252  21.584  0.00  0.00    +0.210 HD
ENDBRANCH  29  31
BRANCH  28  33
ATOM     33  O   UNL     1      10.280   5.771  23.046  0.00  0.00    -0.386 OA
ATOM     34  H   UNL     1      10.992   5.912  23.696  0.00  0.00    +0.210 HD
ENDBRANCH  28  33
BRANCH  27  35
ATOM     35  C   UNL     1      10.633   6.838  25.494  0.00  0.00    +0.190 C 
BRANCH  35  36
ATOM     36  O   UNL     1      10.919   6.960  26.884  0.00  0.00    -0.392 OA
ATOM     37  H   UNL     1      11.217   7.867  27.053  0.00  0.00    +0.210 HD
ENDBRANCH  35  36
ENDBRANCH  27  35
BRANCH  30  38
ATOM     38  O   UNL     1       8.752   2.447  24.323  0.00  0.00    -0.337 OA
BRANCH  38  39
ATOM     39  C   UNL     1       7.946   1.447  23.780  0.00  0.00    +0.282 C 
ATOM     40  O   UNL     1       7.616   0.562  24.892  0.00  0.00    -0.341 OA
ATOM     41  C   UNL     1       8.800   0.247  25.661  0.00  0.00    +0.178 C 
ATOM     42  C   UNL     1       9.839  -0.496  24.797  0.00  0.00    +0.177 C 
ATOM     43  C   UNL     1       9.995   0.111  23.394  0.00  0.00    +0.179 C 
ATOM     44  C   UNL     1       8.678   0.584  22.759  0.00  0.00    +0.201 C 
BRANCH  44  45
ATOM     45  O   UNL     1       7.907  -0.564  22.355  0.00  0.00    -0.384 OA
ATOM     46  H   UNL     1       7.354  -0.271  21.600  0.00  0.00    +0.210 HD
ENDBRANCH  44  45
BRANCH  43  47
ATOM     47  O   UNL     1      10.653  -0.835  22.533  0.00  0.00    -0.386 OA
ATOM     48  H   UNL     1      11.471  -0.385  22.232  0.00  0.00    +0.210 HD
ENDBRANCH  43  47
BRANCH  42  49
ATOM     49  O   UNL     1       9.517  -1.882  24.640  0.00  0.00    -0.386 OA
ATOM     50  H   UNL     1       9.489  -2.219  25.562  0.00  0.00    +0.210 HD
ENDBRANCH  42  49
BRANCH  41  51
ATOM     51  C   UNL     1       8.437  -0.502  26.948  0.00  0.00    +0.190 C 
BRANCH  51  52
ATOM     52  O   UNL     1       7.470  -1.520  26.677  0.00  0.00    -0.392 OA
ATOM     53  H   UNL     1       6.787  -1.470  27.367  0.00  0.00    +0.210 HD
ENDBRANCH  51  52
ENDBRANCH  41  51
ENDBRANCH  38  39
ENDBRANCH  30  38
ENDBRANCH  24  25
ENDBRANCH  11  24
BRANCH   7  54
ATOM     54  O   UNL     1       3.418  -2.652  27.695  0.00  0.00    -0.461 OA
BRANCH  54  55
ATOM     55  C   UNL     1       4.329  -3.708  28.062  0.00  0.00    +0.339 C 
ATOM     56  O   UNL     1       5.384  -3.795  27.099  0.00  0.00    -0.331 OA
ATOM     57  C   UNL     1       4.935  -4.324  25.837  0.00  0.00    +0.179 C 
ATOM     58  C   UNL     1       4.660  -5.814  26.061  0.00  0.00    +0.177 C 
ATOM     59  C   UNL     1       3.489  -5.947  27.052  0.00  0.00    +0.180 C 
ATOM     60  C   UNL     1       3.708  -5.104  28.318  0.00  0.00    +0.214 C 
BRANCH  60  61
ATOM     61  O   UNL     1       2.529  -5.056  29.125  0.00  0.00    -0.383 OA
ATOM     62  H   UNL     1       1.832  -5.551  28.654  0.00  0.00    +0.210 HD
ENDBRANCH  60  61
BRANCH  59  63
ATOM     63  O   UNL     1       2.235  -5.621  26.441  0.00  0.00    -0.386 OA
ATOM     64  H   UNL     1       2.158  -6.093  25.593  0.00  0.00    +0.210 HD
ENDBRANCH  59  63
BRANCH  58  65
ATOM     65  O   UNL     1       5.847  -6.421  26.591  0.00  0.00    -0.386 OA
ATOM     66  H   UNL     1       6.481  -5.730  26.847  0.00  0.00    +0.210 HD
ENDBRANCH  58  65
BRANCH  57  67
ATOM     67  C   UNL     1       6.018  -4.059  24.786  0.00  0.00    +0.190 C 
BRANCH  67  68
ATOM     68  O   UNL     1       7.324  -4.054  25.377  0.00  0.00    -0.392 OA
ATOM     69  H   UNL     1       7.230  -4.001  26.344  0.00  0.00    +0.210 HD
ENDBRANCH  67  68
ENDBRANCH  57  67
ENDBRANCH  54  55
ENDBRANCH   7  54
TORSDOF 24
ENDMDL
MODEL 6
REMARK VINA RESULT:      -6.3      2.012      5.323
REMARK  Name = 
REMARK  24 active torsions:
REMARK  status: ('A' for Active; 'I' for Inactive)
REMARK    1  A    between atoms: C_3  and  O_63
REMARK    2  A    between atoms: C_4  and  O_62
REMARK    3  A    between atoms: C_6  and  C_7
REMARK    4  A    between atoms: C_8  and  O_34
REMARK    5  A    between atoms: C_12  and  O_33
REMARK    6  A    between atoms: C_14  and  O_18
REMARK    7  A    between atoms: O_18  and  C_19
REMARK    8  A    between atoms: C_21  and  O_32
REMARK    9  A    between atoms: C_22  and  O_31
REMARK   10  A    between atoms: C_24  and  O_30
REMARK   11  A    between atoms: C_26  and  C_28
REMARK   12  A    between atoms: C_28  and  O_29
REMARK   13  A    between atoms: O_34  and  C_35
REMARK   14  A    between atoms: C_37  and  O_47
REMARK   15  A    between atoms: C_38  and  O_46
REMARK   16  A    between atoms: C_39  and  O_45
REMARK   17  A    between atoms: C_41  and  C_43
REMARK   18  A    between atoms: C_43  and  O_44
REMARK   19  A    between atoms: O_47  and  C_48
REMARK   20  A    between atoms: C_50  and  O_61
REMARK   21  A    between atoms: C_52  and  O_60
REMARK   22  A    between atoms: C_53  and  O_59
REMARK   23  A    between atoms: C_55  and  C_57
REMARK   24  A    between atoms: C_57  and  O_58
REMARK                            x       y       z     vdW  Elec       q    Type
REMARK                         _______ _______ _______ _____ _____    ______ ____
ROOT
ATOM      1  C   UNL     1       7.074  -1.261  25.991  0.00  0.00    +0.181 A 
ATOM      2  O   UNL     1       7.439   0.099  26.014  0.00  0.00    -0.451 OA
ATOM      3  C   UNL     1       8.248   0.632  25.061  0.00  0.00    +0.147 A 
ATOM      4  C   UNL     1       8.832  -0.122  24.089  0.00  0.00    +0.109 A 
ATOM      5  C   UNL     1       9.510   0.508  23.028  0.00  0.00    +0.135 A 
ATOM      6  C   UNL     1       9.639   1.903  22.988  0.00  0.00    +0.092 A 
ATOM      7  C   UNL     1       9.119   2.670  24.030  0.00  0.00    +0.131 A 
ATOM      8  C   UNL     1       8.788  -1.571  24.312  0.00  0.00    +0.238 A 
ATOM      9  O   UNL     1       9.577  -2.224  23.644  0.00  0.00    -0.283 OA
ATOM     10  C   UNL     1       8.450   2.007  25.076  0.00  0.00    +0.093 A 
ATOM     11  C   UNL     1       7.807  -2.170  25.291  0.00  0.00    +0.214 A 
ENDROOT
BRANCH   1  13
ATOM     12  C   UNL     1       4.758  -0.513  26.544  0.00  0.00    +0.015 A 
ATOM     13  C   UNL     1       5.821  -1.430  26.813  0.00  0.00    +0.025 A 
ATOM     14  C   UNL     1       5.562  -2.408  27.773  0.00  0.00    +0.060 A 
ATOM     15  C   UNL     1       4.295  -2.485  28.374  0.00  0.00    +0.159 A 
ATOM     16  C   UNL     1       3.275  -1.580  28.077  0.00  0.00    +0.158 A 
ATOM     17  C   UNL     1       3.508  -0.566  27.174  0.00  0.00    +0.050 A 
BRANCH  16  18
ATOM     18  O   UNL     1       2.062  -1.735  28.692  0.00  0.00    -0.503 OA
ATOM     19  H   UNL     1       2.222  -2.043  29.603  0.00  0.00    +0.292 HD
ENDBRANCH  16  18
BRANCH  15  20
ATOM     20  O   UNL     1       4.028  -3.491  29.270  0.00  0.00    -0.503 OA
ATOM     21  H   UNL     1       3.635  -3.042  30.046  0.00  0.00    +0.292 HD
ENDBRANCH  15  20
ENDBRANCH   1  13
BRANCH   5  22
ATOM     22  O   UNL     1      10.049  -0.183  21.976  0.00  0.00    -0.506 OA
ATOM     23  H   UNL     1      10.795  -0.727  22.313  0.00  0.00    +0.292 HD
ENDBRANCH   5  22
BRANCH  11  24
ATOM     24  O   UNL     1       7.952  -3.521  25.590  0.00  0.00    -0.453 OA
BRANCH  24  25
ATOM     25  C   UNL     1       7.204  -4.616  25.008  0.00  0.00    +0.340 C 
ATOM     26  O   UNL     1       7.925  -5.143  23.850  0.00  0.00    -0.331 OA
ATOM     27  C   UNL     1       7.523  -4.854  22.476  0.00  0.00    +0.179 C 
ATOM     28  C   UNL     1       6.279  -3.943  22.202  0.00  0.00    +0.177 C 
ATOM     29  C   UNL     1       5.824  -3.256  23.487  0.00  0.00    +0.180 C 
ATOM     30  C   UNL     1       5.774  -4.349  24.570  0.00  0.00    +0.221 C 
BRANCH  29  31
ATOM     31  O   UNL     1       4.643  -2.505  23.276  0.00  0.00    -0.386 OA
ATOM     32  H   UNL     1       4.531  -1.895  24.024  0.00  0.00    +0.210 HD
ENDBRANCH  29  31
BRANCH  28  33
ATOM     33  O   UNL     1       5.148  -4.673  21.677  0.00  0.00    -0.386 OA
ATOM     34  H   UNL     1       5.402  -5.061  20.820  0.00  0.00    +0.210 HD
ENDBRANCH  28  33
BRANCH  27  35
ATOM     35  C   UNL     1       7.380  -6.182  21.683  0.00  0.00    +0.190 C 
BRANCH  35  36
ATOM     36  O   UNL     1       6.354  -7.039  22.178  0.00  0.00    -0.392 OA
ATOM     37  H   UNL     1       6.663  -7.955  22.104  0.00  0.00    +0.210 HD
ENDBRANCH  35  36
ENDBRANCH  27  35
BRANCH  30  38
ATOM     38  O   UNL     1       4.786  -4.560  25.533  0.00  0.00    -0.337 OA
BRANCH  38  39
ATOM     39  C   UNL     1       3.393  -4.619  25.483  0.00  0.00    +0.282 C 
ATOM     40  O   UNL     1       2.979  -5.182  26.764  0.00  0.00    -0.341 OA
ATOM     41  C   UNL     1       3.776  -6.344  27.092  0.00  0.00    +0.178 C 
ATOM     42  C   UNL     1       3.591  -7.455  26.038  0.00  0.00    +0.177 C 
ATOM     43  C   UNL     1       3.599  -6.922  24.597  0.00  0.00    +0.179 C 
ATOM     44  C   UNL     1       2.878  -5.578  24.416  0.00  0.00    +0.201 C 
BRANCH  44  45
ATOM     45  O   UNL     1       1.455  -5.786  24.505  0.00  0.00    -0.384 OA
ATOM     46  H   UNL     1       1.150  -5.273  25.283  0.00  0.00    +0.210 HD
ENDBRANCH  44  45
BRANCH  43  47
ATOM     47  O   UNL     1       3.038  -7.912  23.717  0.00  0.00    -0.386 OA
ATOM     48  H   UNL     1       3.772  -8.176  23.123  0.00  0.00    +0.210 HD
ENDBRANCH  43  47
BRANCH  42  49
ATOM     49  O   UNL     1       2.372  -8.182  26.229  0.00  0.00    -0.386 OA
ATOM     50  H   UNL     1       2.078  -8.386  25.315  0.00  0.00    +0.210 HD
ENDBRANCH  42  49
BRANCH  41  51
ATOM     51  C   UNL     1       3.499  -6.815  28.523  0.00  0.00    +0.190 C 
BRANCH  51  52
ATOM     52  O   UNL     1       4.616  -7.552  29.030  0.00  0.00    -0.392 OA
ATOM     53  H   UNL     1       4.266  -8.285  29.565  0.00  0.00    +0.210 HD
ENDBRANCH  51  52
ENDBRANCH  41  51
ENDBRANCH  38  39
ENDBRANCH  30  38
ENDBRANCH  24  25
ENDBRANCH  11  24
BRANCH   7  54
ATOM     54  O   UNL     1       9.242   4.052  23.925  0.00  0.00    -0.461 OA
BRANCH  54  55
ATOM     55  C   UNL     1       8.130   4.751  24.522  0.00  0.00    +0.339 C 
ATOM     56  O   UNL     1       6.911   4.063  24.228  0.00  0.00    -0.331 OA
ATOM     57  C   UNL     1       6.528   4.186  22.846  0.00  0.00    +0.179 C 
ATOM     58  C   UNL     1       6.067   5.633  22.646  0.00  0.00    +0.177 C 
ATOM     59  C   UNL     1       7.276   6.561  22.867  0.00  0.00    +0.180 C 
ATOM     60  C   UNL     1       7.999   6.259  24.189  0.00  0.00    +0.214 C 
BRANCH  60  61
ATOM     61  O   UNL     1       9.239   6.965  24.280  0.00  0.00    -0.383 OA
ATOM     62  H   UNL     1       9.038   7.918  24.210  0.00  0.00    +0.210 HD
ENDBRANCH  60  61
BRANCH  59  63
ATOM     63  O   UNL     1       8.195   6.509  21.768  0.00  0.00    -0.386 OA
ATOM     64  H   UNL     1       9.105   6.486  22.111  0.00  0.00    +0.210 HD
ENDBRANCH  59  63
BRANCH  58  65
ATOM     65  O   UNL     1       5.029   5.915  23.595  0.00  0.00    -0.386 OA
ATOM     66  H   UNL     1       4.203   6.117  23.126  0.00  0.00    +0.210 HD
ENDBRANCH  58  65
BRANCH  57  67
ATOM     67  C   UNL     1       5.432   3.155  22.552  0.00  0.00    +0.190 C 
BRANCH  67  68
ATOM     68  O   UNL     1       5.923   1.818  22.709  0.00  0.00    -0.392 OA
ATOM     69  H   UNL     1       6.761   1.733  22.223  0.00  0.00    +0.210 HD
ENDBRANCH  67  68
ENDBRANCH  57  67
ENDBRANCH  54  55
ENDBRANCH   7  54
TORSDOF 24
ENDMDL
MODEL 7
REMARK VINA RESULT:      -6.2      1.824      2.896
REMARK  Name = 
REMARK  24 active torsions:
REMARK  status: ('A' for Active; 'I' for Inactive)
REMARK    1  A    between atoms: C_3  and  O_63
REMARK    2  A    between atoms: C_4  and  O_62
REMARK    3  A    between atoms: C_6  and  C_7
REMARK    4  A    between atoms: C_8  and  O_34
REMARK    5  A    between atoms: C_12  and  O_33
REMARK    6  A    between atoms: C_14  and  O_18
REMARK    7  A    between atoms: O_18  and  C_19
REMARK    8  A    between atoms: C_21  and  O_32
REMARK    9  A    between atoms: C_22  and  O_31
REMARK   10  A    between atoms: C_24  and  O_30
REMARK   11  A    between atoms: C_26  and  C_28
REMARK   12  A    between atoms: C_28  and  O_29
REMARK   13  A    between atoms: O_34  and  C_35
REMARK   14  A    between atoms: C_37  and  O_47
REMARK   15  A    between atoms: C_38  and  O_46
REMARK   16  A    between atoms: C_39  and  O_45
REMARK   17  A    between atoms: C_41  and  C_43
REMARK   18  A    between atoms: C_43  and  O_44
REMARK   19  A    between atoms: O_47  and  C_48
REMARK   20  A    between atoms: C_50  and  O_61
REMARK   21  A    between atoms: C_52  and  O_60
REMARK   22  A    between atoms: C_53  and  O_59
REMARK   23  A    between atoms: C_55  and  C_57
REMARK   24  A    between atoms: C_57  and  O_58
REMARK                            x       y       z     vdW  Elec       q    Type
REMARK                         _______ _______ _______ _____ _____    ______ ____
ROOT
ATOM      1  C   UNL     1       6.278  -1.974  25.079  0.00  0.00    +0.181 A 
ATOM      2  O   UNL     1       6.319  -0.760  24.367  0.00  0.00    -0.451 OA
ATOM      3  C   UNL     1       6.605   0.416  24.986  0.00  0.00    +0.147 A 
ATOM      4  C   UNL     1       6.772   0.514  26.334  0.00  0.00    +0.109 A 
ATOM      5  C   UNL     1       7.243   1.716  26.894  0.00  0.00    +0.135 A 
ATOM      6  C   UNL     1       7.490   2.835  26.087  0.00  0.00    +0.092 A 
ATOM      7  C   UNL     1       7.234   2.763  24.718  0.00  0.00    +0.131 A 
ATOM      8  C   UNL     1       6.324  -0.651  27.104  0.00  0.00    +0.238 A 
ATOM      9  O   UNL     1       6.158  -0.451  28.299  0.00  0.00    -0.283 OA
ATOM     10  C   UNL     1       6.761   1.545  24.192  0.00  0.00    +0.093 A 
ATOM     11  C   UNL     1       6.117  -1.987  26.431  0.00  0.00    +0.214 A 
ENDROOT
BRANCH   1  13
ATOM     12  C   UNL     1       7.079  -4.290  24.604  0.00  0.00    +0.015 A 
ATOM     13  C   UNL     1       6.455  -3.107  24.099  0.00  0.00    +0.025 A 
ATOM     14  C   UNL     1       6.039  -3.149  22.769  0.00  0.00    +0.060 A 
ATOM     15  C   UNL     1       6.192  -4.329  22.023  0.00  0.00    +0.159 A 
ATOM     16  C   UNL     1       6.793  -5.471  22.552  0.00  0.00    +0.158 A 
ATOM     17  C   UNL     1       7.268  -5.453  23.845  0.00  0.00    +0.050 A 
BRANCH  16  18
ATOM     18  O   UNL     1       6.887  -6.588  21.765  0.00  0.00    -0.503 OA
ATOM     19  H   UNL     1       6.605  -6.347  20.863  0.00  0.00    +0.292 HD
ENDBRANCH  16  18
BRANCH  15  20
ATOM     20  O   UNL     1       5.719  -4.383  20.733  0.00  0.00    -0.503 OA
ATOM     21  H   UNL     1       6.517  -4.489  20.175  0.00  0.00    +0.292 HD
ENDBRANCH  15  20
ENDBRANCH   1  13
BRANCH   5  22
ATOM     22  O   UNL     1       7.511   1.858  28.230  0.00  0.00    -0.506 OA
ATOM     23  H   UNL     1       8.012   1.069  28.530  0.00  0.00    +0.292 HD
ENDBRANCH   5  22
BRANCH  11  24
ATOM     24  O   UNL     1       5.512  -2.990  27.182  0.00  0.00    -0.453 OA
BRANCH  24  25
ATOM     25  C   UNL     1       4.092  -3.145  27.422  0.00  0.00    +0.340 C 
ATOM     26  O   UNL     1       3.700  -2.350  28.585  0.00  0.00    -0.331 OA
ATOM     27  C   UNL     1       3.434  -2.947  29.891  0.00  0.00    +0.179 C 
ATOM     28  C   UNL     1       3.571  -4.495  30.084  0.00  0.00    +0.177 C 
ATOM     29  C   UNL     1       4.252  -5.128  28.873  0.00  0.00    +0.180 C 
ATOM     30  C   UNL     1       3.553  -4.550  27.629  0.00  0.00    +0.221 C 
BRANCH  29  31
ATOM     31  O   UNL     1       4.296  -6.539  28.989  0.00  0.00    -0.386 OA
ATOM     32  H   UNL     1       4.959  -6.876  28.364  0.00  0.00    +0.210 HD
ENDBRANCH  29  31
BRANCH  28  33
ATOM     33  O   UNL     1       2.299  -5.157  30.261  0.00  0.00    -0.386 OA
ATOM     34  H   UNL     1       1.619  -4.654  29.776  0.00  0.00    +0.210 HD
ENDBRANCH  28  33
BRANCH  27  35
ATOM     35  C   UNL     1       2.045  -2.480  30.407  0.00  0.00    +0.190 C 
BRANCH  35  36
ATOM     36  O   UNL     1       0.995  -2.647  29.460  0.00  0.00    -0.392 OA
ATOM     37  H   UNL     1       1.207  -2.116  28.676  0.00  0.00    +0.210 HD
ENDBRANCH  35  36
ENDBRANCH  27  35
BRANCH  30  38
ATOM     38  O   UNL     1       3.144  -5.228  26.480  0.00  0.00    -0.337 OA
BRANCH  38  39
ATOM     39  C   UNL     1       3.787  -5.585  25.295  0.00  0.00    +0.282 C 
ATOM     40  O   UNL     1       2.884  -5.182  24.222  0.00  0.00    -0.341 OA
ATOM     41  C   UNL     1       1.532  -5.609  24.508  0.00  0.00    +0.178 C 
ATOM     42  C   UNL     1       1.447  -7.145  24.606  0.00  0.00    +0.177 C 
ATOM     43  C   UNL     1       2.611  -7.761  25.399  0.00  0.00    +0.179 C 
ATOM     44  C   UNL     1       3.971  -7.091  25.149  0.00  0.00    +0.201 C 
BRANCH  44  45
ATOM     45  O   UNL     1       4.449  -7.462  23.842  0.00  0.00    -0.384 OA
ATOM     46  H   UNL     1       3.652  -7.606  23.288  0.00  0.00    +0.210 HD
ENDBRANCH  44  45
BRANCH  43  47
ATOM     47  O   UNL     1       2.690  -9.169  25.119  0.00  0.00    -0.386 OA
ATOM     48  H   UNL     1       2.332  -9.612  25.918  0.00  0.00    +0.210 HD
ENDBRANCH  43  47
BRANCH  42  49
ATOM     49  O   UNL     1       1.419  -7.767  23.317  0.00  0.00    -0.386 OA
ATOM     50  H   UNL     1       0.768  -8.494  23.425  0.00  0.00    +0.210 HD
ENDBRANCH  42  49
BRANCH  41  51
ATOM     51  C   UNL     1       0.543  -5.011  23.502  0.00  0.00    +0.190 C 
BRANCH  51  52
ATOM     52  O   UNL     1       0.929  -5.344  22.165  0.00  0.00    -0.392 OA
ATOM     53  H   UNL     1       1.900  -5.351  22.133  0.00  0.00    +0.210 HD
ENDBRANCH  51  52
ENDBRANCH  41  51
ENDBRANCH  38  39
ENDBRANCH  30  38
ENDBRANCH  24  25
ENDBRANCH  11  24
BRANCH   7  54
ATOM     54  O   UNL     1       7.530   3.888  23.955  0.00  0.00    -0.461 OA
BRANCH  54  55
ATOM     55  C   UNL     1       6.769   5.045  24.359  0.00  0.00    +0.339 C 
ATOM     56  O   UNL     1       5.379   4.825  24.099  0.00  0.00    -0.331 OA
ATOM     57  C   UNL     1       5.072   4.842  22.693  0.00  0.00    +0.179 C 
ATOM     58  C   UNL     1       5.197   6.298  22.235  0.00  0.00    +0.177 C 
ATOM     59  C   UNL     1       6.668   6.727  22.384  0.00  0.00    +0.180 C 
ATOM     60  C   UNL     1       7.222   6.410  23.782  0.00  0.00    +0.214 C 
BRANCH  60  61
ATOM     61  O   UNL     1       8.637   6.604  23.841  0.00  0.00    -0.383 OA
ATOM     62  H   UNL     1       8.837   7.039  24.692  0.00  0.00    +0.210 HD
ENDBRANCH  60  61
BRANCH  59  63
ATOM     63  O   UNL     1       7.498   6.146  21.370  0.00  0.00    -0.386 OA
ATOM     64  H   UNL     1       6.949   5.596  20.783  0.00  0.00    +0.210 HD
ENDBRANCH  59  63
BRANCH  58  65
ATOM     65  O   UNL     1       4.345   7.108  23.057  0.00  0.00    -0.386 OA
ATOM     66  H   UNL     1       3.642   7.501  22.512  0.00  0.00    +0.210 HD
ENDBRANCH  58  65
BRANCH  57  67
ATOM     67  C   UNL     1       3.666   4.264  22.496  0.00  0.00    +0.190 C 
BRANCH  67  68
ATOM     68  O   UNL     1       2.995   4.896  21.399  0.00  0.00    -0.392 OA
ATOM     69  H   UNL     1       3.331   4.520  20.567  0.00  0.00    +0.210 HD
ENDBRANCH  67  68
ENDBRANCH  57  67
ENDBRANCH  54  55
ENDBRANCH   7  54
TORSDOF 24
ENDMDL
MODEL 8
REMARK VINA RESULT:      -6.2      2.301      9.824
REMARK  Name = 
REMARK  24 active torsions:
REMARK  status: ('A' for Active; 'I' for Inactive)
REMARK    1  A    between atoms: C_3  and  O_63
REMARK    2  A    between atoms: C_4  and  O_62
REMARK    3  A    between atoms: C_6  and  C_7
REMARK    4  A    between atoms: C_8  and  O_34
REMARK    5  A    between atoms: C_12  and  O_33
REMARK    6  A    between atoms: C_14  and  O_18
REMARK    7  A    between atoms: O_18  and  C_19
REMARK    8  A    between atoms: C_21  and  O_32
REMARK    9  A    between atoms: C_22  and  O_31
REMARK   10  A    between atoms: C_24  and  O_30
REMARK   11  A    between atoms: C_26  and  C_28
REMARK   12  A    between atoms: C_28  and  O_29
REMARK   13  A    between atoms: O_34  and  C_35
REMARK   14  A    between atoms: C_37  and  O_47
REMARK   15  A    between atoms: C_38  and  O_46
REMARK   16  A    between atoms: C_39  and  O_45
REMARK   17  A    between atoms: C_41  and  C_43
REMARK   18  A    between atoms: C_43  and  O_44
REMARK   19  A    between atoms: O_47  and  C_48
REMARK   20  A    between atoms: C_50  and  O_61
REMARK   21  A    between atoms: C_52  and  O_60
REMARK   22  A    between atoms: C_53  and  O_59
REMARK   23  A    between atoms: C_55  and  C_57
REMARK   24  A    between atoms: C_57  and  O_58
REMARK                            x       y       z     vdW  Elec       q    Type
REMARK                         _______ _______ _______ _____ _____    ______ ____
ROOT
ATOM      1  C   UNL     1       5.115   0.447  26.174  0.00  0.00    +0.181 A 
ATOM      2  O   UNL     1       4.562  -0.728  25.630  0.00  0.00    -0.451 OA
ATOM      3  C   UNL     1       5.199  -1.925  25.733  0.00  0.00    +0.147 A 
ATOM      4  C   UNL     1       6.441  -2.050  26.274  0.00  0.00    +0.109 A 
ATOM      5  C   UNL     1       6.972  -3.332  26.518  0.00  0.00    +0.135 A 
ATOM      6  C   UNL     1       6.258  -4.483  26.159  0.00  0.00    +0.092 A 
ATOM      7  C   UNL     1       5.024  -4.354  25.523  0.00  0.00    +0.131 A 
ATOM      8  C   UNL     1       7.174  -0.792  26.454  0.00  0.00    +0.238 A 
ATOM      9  O   UNL     1       8.380  -0.912  26.616  0.00  0.00    -0.283 OA
ATOM     10  C   UNL     1       4.525  -3.058  25.292  0.00  0.00    +0.093 A 
ATOM     11  C   UNL     1       6.445   0.530  26.453  0.00  0.00    +0.214 A 
ENDROOT
BRANCH   1  13
ATOM     12  C   UNL     1       3.099   1.197  27.440  0.00  0.00    +0.015 A 
ATOM     13  C   UNL     1       4.005   1.451  26.364  0.00  0.00    +0.025 A 
ATOM     14  C   UNL     1       3.789   2.622  25.639  0.00  0.00    +0.060 A 
ATOM     15  C   UNL     1       2.762   3.502  26.017  0.00  0.00    +0.159 A 
ATOM     16  C   UNL     1       1.903   3.229  27.083  0.00  0.00    +0.158 A 
ATOM     17  C   UNL     1       2.049   2.056  27.790  0.00  0.00    +0.050 A 
BRANCH  16  18
ATOM     18  O   UNL     1       0.939   4.148  27.400  0.00  0.00    -0.503 OA
ATOM     19  H   UNL     1       0.820   4.739  26.633  0.00  0.00    +0.292 HD
ENDBRANCH  16  18
BRANCH  15  20
ATOM     20  O   UNL     1       2.597   4.685  25.338  0.00  0.00    -0.503 OA
ATOM     21  H   UNL     1       1.698   4.991  25.576  0.00  0.00    +0.292 HD
ENDBRANCH  15  20
ENDBRANCH   1  13
BRANCH   5  22
ATOM     22  O   UNL     1       8.179  -3.531  27.133  0.00  0.00    -0.506 OA
ATOM     23  H   UNL     1       8.176  -3.041  27.985  0.00  0.00    +0.292 HD
ENDBRANCH   5  22
BRANCH  11  24
ATOM     24  O   UNL     1       7.222   1.684  26.436  0.00  0.00    -0.453 OA
BRANCH  24  25
ATOM     25  C   UNL     1       8.217   2.036  25.444  0.00  0.00    +0.340 C 
ATOM     26  O   UNL     1       8.378   3.489  25.403  0.00  0.00    -0.331 OA
ATOM     27  C   UNL     1       7.812   4.311  24.337  0.00  0.00    +0.179 C 
ATOM     28  C   UNL     1       6.992   3.640  23.183  0.00  0.00    +0.177 C 
ATOM     29  C   UNL     1       6.681   2.185  23.524  0.00  0.00    +0.180 C 
ATOM     30  C   UNL     1       8.000   1.561  24.017  0.00  0.00    +0.221 C 
BRANCH  29  31
ATOM     31  O   UNL     1       6.025   1.535  22.450  0.00  0.00    -0.386 OA
ATOM     32  H   UNL     1       5.199   1.150  22.786  0.00  0.00    +0.210 HD
ENDBRANCH  29  31
BRANCH  28  33
ATOM     33  O   UNL     1       7.687   3.649  21.917  0.00  0.00    -0.386 OA
ATOM     34  H   UNL     1       7.882   4.573  21.678  0.00  0.00    +0.210 HD
ENDBRANCH  28  33
BRANCH  27  35
ATOM     35  C   UNL     1       8.920   5.214  23.729  0.00  0.00    +0.190 C 
BRANCH  35  36
ATOM     36  O   UNL     1      10.082   4.500  23.318  0.00  0.00    -0.392 OA
ATOM     37  H   UNL     1      10.327   4.805  22.431  0.00  0.00    +0.210 HD
ENDBRANCH  35  36
ENDBRANCH  27  35
BRANCH  30  38
ATOM     38  O   UNL     1       8.533   0.312  23.696  0.00  0.00    -0.337 OA
BRANCH  38  39
ATOM     39  C   UNL     1       9.190  -0.193  22.574  0.00  0.00    +0.282 C 
ATOM     40  O   UNL     1       8.162  -0.864  21.786  0.00  0.00    -0.341 OA
ATOM     41  C   UNL     1       7.345  -1.709  22.629  0.00  0.00    +0.178 C 
ATOM     42  C   UNL     1       8.192  -2.816  23.289  0.00  0.00    +0.177 C 
ATOM     43  C   UNL     1       9.539  -2.303  23.822  0.00  0.00    +0.179 C 
ATOM     44  C   UNL     1      10.220  -1.261  22.920  0.00  0.00    +0.201 C 
BRANCH  44  45
ATOM     45  O   UNL     1      10.746  -1.917  21.751  0.00  0.00    -0.384 OA
ATOM     46  H   UNL     1      10.067  -2.567  21.471  0.00  0.00    +0.210 HD
ENDBRANCH  44  45
BRANCH  43  47
ATOM     47  O   UNL     1      10.420  -3.417  24.051  0.00  0.00    -0.386 OA
ATOM     48  H   UNL     1      10.560  -3.440  25.021  0.00  0.00    +0.210 HD
ENDBRANCH  43  47
BRANCH  42  49
ATOM     49  O   UNL     1       8.460  -3.897  22.389  0.00  0.00    -0.386 OA
ATOM     50  H   UNL     1       8.031  -4.668  22.819  0.00  0.00    +0.210 HD
ENDBRANCH  42  49
BRANCH  41  51
ATOM     51  C   UNL     1       6.135  -2.250  21.859  0.00  0.00    +0.190 C 
BRANCH  51  52
ATOM     52  O   UNL     1       5.788  -3.556  22.330  0.00  0.00    -0.392 OA
ATOM     53  H   UNL     1       5.182  -3.446  23.082  0.00  0.00    +0.210 HD
ENDBRANCH  51  52
ENDBRANCH  41  51
ENDBRANCH  38  39
ENDBRANCH  30  38
ENDBRANCH  24  25
ENDBRANCH  11  24
BRANCH   7  54
ATOM     54  O   UNL     1       4.338  -5.527  25.220  0.00  0.00    -0.461 OA
BRANCH  54  55
ATOM     55  C   UNL     1       2.917  -5.406  25.434  0.00  0.00    +0.339 C 
ATOM     56  O   UNL     1       2.634  -5.438  26.836  0.00  0.00    -0.331 OA
ATOM     57  C   UNL     1       2.830  -6.744  27.409  0.00  0.00    +0.179 C 
ATOM     58  C   UNL     1       1.689  -7.625  26.890  0.00  0.00    +0.177 C 
ATOM     59  C   UNL     1       1.844  -7.769  25.365  0.00  0.00    +0.180 C 
ATOM     60  C   UNL     1       2.013  -6.408  24.672  0.00  0.00    +0.214 C 
BRANCH  60  61
ATOM     61  O   UNL     1       2.377  -6.562  23.298  0.00  0.00    -0.383 OA
ATOM     62  H   UNL     1       2.811  -7.431  23.207  0.00  0.00    +0.210 HD
ENDBRANCH  60  61
BRANCH  59  63
ATOM     63  O   UNL     1       2.922  -8.648  25.020  0.00  0.00    -0.386 OA
ATOM     64  H   UNL     1       3.760  -8.152  25.042  0.00  0.00    +0.210 HD
ENDBRANCH  59  63
BRANCH  58  65
ATOM     65  O   UNL     1       0.443  -6.995  27.219  0.00  0.00    -0.386 OA
ATOM     66  H   UNL     1       0.083  -6.554  26.431  0.00  0.00    +0.210 HD
ENDBRANCH  58  65
BRANCH  57  67
ATOM     67  C   UNL     1       2.845  -6.609  28.935  0.00  0.00    +0.190 C 
BRANCH  67  68
ATOM     68  O   UNL     1       3.721  -7.574  29.532  0.00  0.00    -0.392 OA
ATOM     69  H   UNL     1       4.626  -7.416  29.212  0.00  0.00    +0.210 HD
ENDBRANCH  67  68
ENDBRANCH  57  67
ENDBRANCH  54  55
ENDBRANCH   7  54
TORSDOF 24
ENDMDL
MODEL 9
REMARK VINA RESULT:      -6.1      2.351      9.719
REMARK  Name = 
REMARK  24 active torsions:
REMARK  status: ('A' for Active; 'I' for Inactive)
REMARK    1  A    between atoms: C_3  and  O_63
REMARK    2  A    between atoms: C_4  and  O_62
REMARK    3  A    between atoms: C_6  and  C_7
REMARK    4  A    between atoms: C_8  and  O_34
REMARK    5  A    between atoms: C_12  and  O_33
REMARK    6  A    between atoms: C_14  and  O_18
REMARK    7  A    between atoms: O_18  and  C_19
REMARK    8  A    between atoms: C_21  and  O_32
REMARK    9  A    between atoms: C_22  and  O_31
REMARK   10  A    between atoms: C_24  and  O_30
REMARK   11  A    between atoms: C_26  and  C_28
REMARK   12  A    between atoms: C_28  and  O_29
REMARK   13  A    between atoms: O_34  and  C_35
REMARK   14  A    between atoms: C_37  and  O_47
REMARK   15  A    between atoms: C_38  and  O_46
REMARK   16  A    between atoms: C_39  and  O_45
REMARK   17  A    between atoms: C_41  and  C_43
REMARK   18  A    between atoms: C_43  and  O_44
REMARK   19  A    between atoms: O_47  and  C_48
REMARK   20  A    between atoms: C_50  and  O_61
REMARK   21  A    between atoms: C_52  and  O_60
REMARK   22  A    between atoms: C_53  and  O_59
REMARK   23  A    between atoms: C_55  and  C_57
REMARK   24  A    between atoms: C_57  and  O_58
REMARK                            x       y       z     vdW  Elec       q    Type
REMARK                         _______ _______ _______ _____ _____    ______ ____
ROOT
ATOM      1  C   UNL     1       5.543   0.716  27.553  0.00  0.00    +0.181 A 
ATOM      2  O   UNL     1       4.860  -0.475  27.240  0.00  0.00    -0.451 OA
ATOM      3  C   UNL     1       5.531  -1.624  26.961  0.00  0.00    +0.147 A 
ATOM      4  C   UNL     1       6.888  -1.678  26.869  0.00  0.00    +0.109 A 
ATOM      5  C   UNL     1       7.533  -2.925  26.758  0.00  0.00    +0.135 A 
ATOM      6  C   UNL     1       6.790  -4.111  26.684  0.00  0.00    +0.092 A 
ATOM      7  C   UNL     1       5.397  -4.050  26.688  0.00  0.00    +0.131 A 
ATOM      8  C   UNL     1       7.560  -0.377  26.782  0.00  0.00    +0.238 A 
ATOM      9  O   UNL     1       8.710  -0.413  26.371  0.00  0.00    -0.283 OA
ATOM     10  C   UNL     1       4.786  -2.786  26.798  0.00  0.00    +0.093 A 
ATOM     11  C   UNL     1       6.847   0.887  27.202  0.00  0.00    +0.214 A 
ENDROOT
BRANCH   1  13
ATOM     12  C   UNL     1       5.129   2.301  29.435  0.00  0.00    +0.015 A 
ATOM     13  C   UNL     1       4.595   1.626  28.293  0.00  0.00    +0.025 A 
ATOM     14  C   UNL     1       3.273   1.921  27.965  0.00  0.00    +0.060 A 
ATOM     15  C   UNL     1       2.562   2.877  28.708  0.00  0.00    +0.159 A 
ATOM     16  C   UNL     1       3.118   3.527  29.810  0.00  0.00    +0.158 A 
ATOM     17  C   UNL     1       4.403   3.224  30.201  0.00  0.00    +0.050 A 
BRANCH  16  18
ATOM     18  O   UNL     1       2.365   4.460  30.471  0.00  0.00    -0.503 OA
ATOM     19  H   UNL     1       2.757   4.596  31.353  0.00  0.00    +0.292 HD
ENDBRANCH  16  18
BRANCH  15  20
ATOM     20  O   UNL     1       1.280   3.209  28.338  0.00  0.00    -0.503 OA
ATOM     21  H   UNL     1       0.764   3.191  29.169  0.00  0.00    +0.292 HD
ENDBRANCH  15  20
ENDBRANCH   1  13
BRANCH   5  22
ATOM     22  O   UNL     1       8.896  -3.058  26.743  0.00  0.00    -0.506 OA
ATOM     23  H   UNL     1       9.127  -3.911  27.171  0.00  0.00    +0.292 HD
ENDBRANCH   5  22
BRANCH  11  24
ATOM     24  O   UNL     1       7.474   2.095  26.914  0.00  0.00    -0.453 OA
BRANCH  24  25
ATOM     25  C   UNL     1       7.860   2.571  25.601  0.00  0.00    +0.340 C 
ATOM     26  O   UNL     1       8.277   3.970  25.689  0.00  0.00    -0.331 OA
ATOM     27  C   UNL     1       7.429   5.071  25.241  0.00  0.00    +0.179 C 
ATOM     28  C   UNL     1       6.011   4.774  24.646  0.00  0.00    +0.177 C 
ATOM     29  C   UNL     1       5.624   3.317  24.887  0.00  0.00    +0.180 C 
ATOM     30  C   UNL     1       6.842   2.469  24.478  0.00  0.00    +0.221 C 
BRANCH  29  31
ATOM     31  O   UNL     1       4.388   3.006  24.271  0.00  0.00    -0.386 OA
ATOM     32  H   UNL     1       3.803   2.611  24.940  0.00  0.00    +0.210 HD
ENDBRANCH  29  31
BRANCH  28  33
ATOM     33  O   UNL     1       5.934   5.012  23.223  0.00  0.00    -0.386 OA
ATOM     34  H   UNL     1       5.273   5.710  23.062  0.00  0.00    +0.210 HD
ENDBRANCH  28  33
BRANCH  27  35
ATOM     35  C   UNL     1       8.223   5.979  24.262  0.00  0.00    +0.190 C 
BRANCH  35  36
ATOM     36  O   UNL     1       8.864   5.265  23.209  0.00  0.00    -0.392 OA
ATOM     37  H   UNL     1       9.802   5.512  23.203  0.00  0.00    +0.210 HD
ENDBRANCH  35  36
ENDBRANCH  27  35
BRANCH  30  38
ATOM     38  O   UNL     1       6.855   1.284  23.741  0.00  0.00    -0.337 OA
BRANCH  38  39
ATOM     39  C   UNL     1       6.928   1.002  22.377  0.00  0.00    +0.282 C 
ATOM     40  O   UNL     1       7.329  -0.398  22.286  0.00  0.00    -0.341 OA
ATOM     41  C   UNL     1       8.437  -0.669  23.175  0.00  0.00    +0.178 C 
ATOM     42  C   UNL     1       9.672   0.172  22.791  0.00  0.00    +0.177 C 
ATOM     43  C   UNL     1       9.322   1.629  22.451  0.00  0.00    +0.179 C 
ATOM     44  C   UNL     1       8.014   1.799  21.663  0.00  0.00    +0.201 C 
BRANCH  44  45
ATOM     45  O   UNL     1       8.217   1.358  20.306  0.00  0.00    -0.384 OA
ATOM     46  H   UNL     1       8.116   2.153  19.741  0.00  0.00    +0.210 HD
ENDBRANCH  44  45
BRANCH  43  47
ATOM     47  O   UNL     1      10.416   2.230  21.736  0.00  0.00    -0.386 OA
ATOM     48  H   UNL     1      10.908   2.751  22.406  0.00  0.00    +0.210 HD
ENDBRANCH  43  47
BRANCH  42  49
ATOM     49  O   UNL     1      10.374  -0.382  21.674  0.00  0.00    -0.386 OA
ATOM     50  H   UNL     1      10.253  -1.350  21.780  0.00  0.00    +0.210 HD
ENDBRANCH  42  49
BRANCH  41  51
ATOM     51  C   UNL     1       8.727  -2.171  23.250  0.00  0.00    +0.190 C 
BRANCH  51  52
ATOM     52  O   UNL     1       9.871  -2.418  24.074  0.00  0.00    -0.392 OA
ATOM     53  H   UNL     1       9.629  -2.192  24.988  0.00  0.00    +0.210 HD
ENDBRANCH  51  52
ENDBRANCH  41  51
ENDBRANCH  38  39
ENDBRANCH  30  38
ENDBRANCH  24  25
ENDBRANCH  11  24
BRANCH   7  54
ATOM     54  O   UNL     1       4.707  -5.257  26.650  0.00  0.00    -0.461 OA
BRANCH  54  55
ATOM     55  C   UNL     1       5.188  -6.135  25.611  0.00  0.00    +0.339 C 
ATOM     56  O   UNL     1       5.750  -5.363  24.545  0.00  0.00    -0.331 OA
ATOM     57  C   UNL     1       4.750  -4.657  23.789  0.00  0.00    +0.179 C 
ATOM     58  C   UNL     1       3.990  -5.711  22.976  0.00  0.00    +0.177 C 
ATOM     59  C   UNL     1       3.249  -6.637  23.958  0.00  0.00    +0.180 C 
ATOM     60  C   UNL     1       4.179  -7.174  25.057  0.00  0.00    +0.214 C 
BRANCH  60  61
ATOM     61  O   UNL     1       3.443  -7.845  26.084  0.00  0.00    -0.383 OA
ATOM     62  H   UNL     1       2.643  -8.221  25.670  0.00  0.00    +0.210 HD
ENDBRANCH  60  61
BRANCH  59  63
ATOM     63  O   UNL     1       2.105  -5.995  24.535  0.00  0.00    -0.386 OA
ATOM     64  H   UNL     1       1.949  -6.356  25.425  0.00  0.00    +0.210 HD
ENDBRANCH  59  63
BRANCH  58  65
ATOM     65  O   UNL     1       4.938  -6.452  22.195  0.00  0.00    -0.386 OA
ATOM     66  H   UNL     1       5.817  -6.044  22.274  0.00  0.00    +0.210 HD
ENDBRANCH  58  65
BRANCH  57  67
ATOM     67  C   UNL     1       5.449  -3.609  22.917  0.00  0.00    +0.190 C 
BRANCH  67  68
ATOM     68  O   UNL     1       5.242  -3.872  21.523  0.00  0.00    -0.392 OA
ATOM     69  H   UNL     1       4.447  -4.424  21.423  0.00  0.00    +0.210 HD
ENDBRANCH  67  68
ENDBRANCH  57  67
ENDBRANCH  54  55
ENDBRANCH   7  54
TORSDOF 24
ENDMDL
