MODEL 1
REMARK VINA RESULT:      -7.5      0.000      0.000
REMARK  Name = 
REMARK  18 active torsions:
REMARK  status: ('A' for Active; 'I' for Inactive)
REMARK    1  A    between atoms: C_3  and  O_53
REMARK    2  A    between atoms: C_4  and  O_52
REMARK    3  A    between atoms: C_6  and  C_7
REMARK    4  A    between atoms: C_8  and  O_20
REMARK    5  A    between atoms: C_12  and  O_19
REMARK    6  A    between atoms: C_14  and  O_18
REMARK    7  A    between atoms: O_20  and  C_21
REMARK    8  A    between atoms: C_23  and  O_51
REMARK    9  A    between atoms: C_25  and  O_50
REMARK   10  A    between atoms: C_27  and  O_49
REMARK   11  A    between atoms: C_29  and  C_32
REMARK   12  A    between atoms: C_32  and  O_33
REMARK   13  A    between atoms: O_33  and  C_34
REMARK   14  A    between atoms: C_36  and  O_48
REMARK   15  A    between atoms: C_38  and  O_47
REMARK   16  A    between atoms: C_39  and  O_46
REMARK   17  A    between atoms: C_41  and  C_44
REMARK   18  A    between atoms: C_44  and  O_45
REMARK                            x       y       z     vdW  Elec       q    Type
REMARK                         _______ _______ _______ _____ _____    ______ ____
ROOT
ATOM      1  C   UNL     1       5.531  -3.244  23.190  0.00  0.00    +0.340 C 
ATOM      2  O   UNL     1       4.529  -4.253  23.406  0.00  0.00    -0.331 OA
ATOM      3  C   UNL     1       4.703  -5.625  22.964  0.00  0.00    +0.179 C 
ATOM      4  C   UNL     1       5.963  -6.059  22.182  0.00  0.00    +0.177 C 
ATOM      5  C   UNL     1       7.050  -5.022  22.310  0.00  0.00    +0.180 C 
ATOM      6  C   UNL     1       6.396  -3.672  22.002  0.00  0.00    +0.214 C 
ENDROOT
BRANCH   6   7
ATOM      7  O   UNL     1       5.617  -3.713  20.780  0.00  0.00    -0.383 OA
ATOM      8  H   UNL     1       4.897  -3.054  20.850  0.00  0.00    +0.210 HD
ENDBRANCH   6   7
BRANCH   5   9
ATOM      9  O   UNL     1       7.671  -5.121  23.597  0.00  0.00    -0.386 OA
ATOM     10  H   UNL     1       7.636  -4.262  24.061  0.00  0.00    +0.210 HD
ENDBRANCH   5   9
BRANCH   4  11
ATOM     11  O   UNL     1       5.624  -6.257  20.796  0.00  0.00    -0.386 OA
ATOM     12  H   UNL     1       5.976  -7.152  20.529  0.00  0.00    +0.210 HD
ENDBRANCH   4  11
BRANCH   3  13
ATOM     13  C   UNL     1       4.495  -6.520  24.194  0.00  0.00    +0.197 C 
BRANCH  13  14
ATOM     14  O   UNL     1       5.250  -6.083  25.331  0.00  0.00    -0.346 OA
BRANCH  14  15
ATOM     15  C   UNL     1       4.532  -5.288  26.276  0.00  0.00    +0.282 C 
ATOM     16  O   UNL     1       5.400  -4.345  26.915  0.00  0.00    -0.341 OA
ATOM     17  C   UNL     1       6.410  -4.890  27.773  0.00  0.00    +0.178 C 
ATOM     18  C   UNL     1       5.839  -5.894  28.792  0.00  0.00    +0.177 C 
ATOM     19  C   UNL     1       4.855  -6.885  28.159  0.00  0.00    +0.179 C 
ATOM     20  C   UNL     1       3.804  -6.146  27.324  0.00  0.00    +0.201 C 
BRANCH  20  21
ATOM     21  O   UNL     1       2.967  -5.349  28.179  0.00  0.00    -0.384 OA
ATOM     22  H   UNL     1       3.513  -5.124  28.965  0.00  0.00    +0.210 HD
ENDBRANCH  20  21
BRANCH  19  23
ATOM     23  O   UNL     1       4.195  -7.625  29.202  0.00  0.00    -0.386 OA
ATOM     24  H   UNL     1       4.319  -8.571  28.976  0.00  0.00    +0.210 HD
ENDBRANCH  19  23
BRANCH  18  25
ATOM     25  O   UNL     1       5.119  -5.162  29.806  0.00  0.00    -0.386 OA
ATOM     26  H   UNL     1       4.579  -4.512  29.312  0.00  0.00    +0.210 HD
ENDBRANCH  18  25
BRANCH  17  27
ATOM     27  C   UNL     1       7.611  -5.415  26.972  0.00  0.00    +0.190 C 
BRANCH  27  28
ATOM     28  O   UNL     1       8.259  -4.355  26.281  0.00  0.00    -0.392 OA
ATOM     29  H   UNL     1       8.372  -3.618  26.907  0.00  0.00    +0.210 HD
ENDBRANCH  27  28
ENDBRANCH  17  27
ENDBRANCH  14  15
ENDBRANCH  13  14
ENDBRANCH   3  13
BRANCH   1  30
ATOM     30  O   UNL     1       6.264  -2.956  24.415  0.00  0.00    -0.453 OA
BRANCH  30  41
ATOM     31  C   UNL     1       6.566  -0.581  25.086  0.00  0.00    +0.181 A 
ATOM     32  O   UNL     1       7.299   0.636  24.924  0.00  0.00    -0.451 OA
ATOM     33  C   UNL     1       8.230   0.734  23.907  0.00  0.00    +0.147 A 
ATOM     34  C   UNL     1       8.651  -0.404  23.248  0.00  0.00    +0.109 A 
ATOM     35  C   UNL     1       9.605  -0.374  22.222  0.00  0.00    +0.135 A 
ATOM     36  C   UNL     1      10.193   0.820  21.886  0.00  0.00    +0.091 A 
ATOM     37  C   UNL     1       9.852   1.961  22.619  0.00  0.00    +0.124 A 
ATOM     38  C   UNL     1       8.292  -1.606  23.922  0.00  0.00    +0.238 A 
ATOM     39  O   UNL     1       9.183  -2.399  24.196  0.00  0.00    -0.283 OA
ATOM     40  C   UNL     1       8.847   1.935  23.603  0.00  0.00    +0.092 A 
ATOM     41  C   UNL     1       6.901  -1.718  24.422  0.00  0.00    +0.214 A 
BRANCH  31  43
ATOM     42  C   UNL     1       5.073   0.823  26.551  0.00  0.00    +0.015 A 
ATOM     43  C   UNL     1       5.526  -0.462  26.163  0.00  0.00    +0.025 A 
ATOM     44  C   UNL     1       5.103  -1.548  26.950  0.00  0.00    +0.060 A 
ATOM     45  C   UNL     1       4.326  -1.338  28.090  0.00  0.00    +0.159 A 
ATOM     46  C   UNL     1       3.951  -0.057  28.482  0.00  0.00    +0.158 A 
ATOM     47  C   UNL     1       4.299   1.030  27.703  0.00  0.00    +0.050 A 
BRANCH  46  48
ATOM     48  O   UNL     1       3.266   0.077  29.658  0.00  0.00    -0.503 OA
ATOM     49  H   UNL     1       3.695  -0.490  30.322  0.00  0.00    +0.292 HD
ENDBRANCH  46  48
BRANCH  45  50
ATOM     50  O   UNL     1       3.967  -2.415  28.859  0.00  0.00    -0.503 OA
ATOM     51  H   UNL     1       3.375  -2.035  29.544  0.00  0.00    +0.292 HD
ENDBRANCH  45  50
ENDBRANCH  31  43
BRANCH  37  52
ATOM     52  O   UNL     1      10.531   3.132  22.429  0.00  0.00    -0.507 OA
ATOM     53  H   UNL     1      10.292   3.478  21.549  0.00  0.00    +0.292 HD
ENDBRANCH  37  52
BRANCH  35  54
ATOM     54  O   UNL     1      10.001  -1.490  21.544  0.00  0.00    -0.506 OA
ATOM     55  H   UNL     1      10.699  -1.949  22.052  0.00  0.00    +0.292 HD
ENDBRANCH  35  54
ENDBRANCH  30  41
ENDBRANCH   1  30
TORSDOF 18
ENDMDL
MODEL 2
REMARK VINA RESULT:      -7.4      2.757      9.033
REMARK  Name = 
REMARK  18 active torsions:
REMARK  status: ('A' for Active; 'I' for Inactive)
REMARK    1  A    between atoms: C_3  and  O_53
REMARK    2  A    between atoms: C_4  and  O_52
REMARK    3  A    between atoms: C_6  and  C_7
REMARK    4  A    between atoms: C_8  and  O_20
REMARK    5  A    between atoms: C_12  and  O_19
REMARK    6  A    between atoms: C_14  and  O_18
REMARK    7  A    between atoms: O_20  and  C_21
REMARK    8  A    between atoms: C_23  and  O_51
REMARK    9  A    between atoms: C_25  and  O_50
REMARK   10  A    between atoms: C_27  and  O_49
REMARK   11  A    between atoms: C_29  and  C_32
REMARK   12  A    between atoms: C_32  and  O_33
REMARK   13  A    between atoms: O_33  and  C_34
REMARK   14  A    between atoms: C_36  and  O_48
REMARK   15  A    between atoms: C_38  and  O_47
REMARK   16  A    between atoms: C_39  and  O_46
REMARK   17  A    between atoms: C_41  and  C_44
REMARK   18  A    between atoms: C_44  and  O_45
REMARK                            x       y       z     vdW  Elec       q    Type
REMARK                         _______ _______ _______ _____ _____    ______ ____
ROOT
ATOM      1  C   UNL     1       6.186  -0.089  26.580  0.00  0.00    +0.340 C 
ATOM      2  O   UNL     1       6.253   1.194  25.931  0.00  0.00    -0.331 OA
ATOM      3  C   UNL     1       6.322   2.437  26.678  0.00  0.00    +0.179 C 
ATOM      4  C   UNL     1       6.273   2.446  28.223  0.00  0.00    +0.177 C 
ATOM      5  C   UNL     1       6.533   1.065  28.770  0.00  0.00    +0.180 C 
ATOM      6  C   UNL     1       5.622   0.114  27.988  0.00  0.00    +0.214 C 
ENDROOT
BRANCH   6   7
ATOM      7  O   UNL     1       4.255   0.592  27.936  0.00  0.00    -0.383 OA
ATOM      8  H   UNL     1       4.121   1.227  28.668  0.00  0.00    +0.210 HD
ENDBRANCH   6   7
BRANCH   5   9
ATOM      9  O   UNL     1       7.932   0.767  28.699  0.00  0.00    -0.386 OA
ATOM     10  H   UNL     1       8.107  -0.137  29.025  0.00  0.00    +0.210 HD
ENDBRANCH   5   9
BRANCH   4  11
ATOM     11  O   UNL     1       4.984   2.920  28.659  0.00  0.00    -0.386 OA
ATOM     12  H   UNL     1       5.136   3.504  29.453  0.00  0.00    +0.210 HD
ENDBRANCH   4  11
BRANCH   3  13
ATOM     13  C   UNL     1       7.560   3.192  26.173  0.00  0.00    +0.197 C 
BRANCH  13  14
ATOM     14  O   UNL     1       7.233   4.238  25.250  0.00  0.00    -0.346 OA
BRANCH  14  15
ATOM     15  C   UNL     1       7.524   3.960  23.879  0.00  0.00    +0.282 C 
ATOM     16  O   UNL     1       8.656   4.716  23.433  0.00  0.00    -0.341 OA
ATOM     17  C   UNL     1       8.483   6.137  23.362  0.00  0.00    +0.178 C 
ATOM     18  C   UNL     1       7.212   6.539  22.592  0.00  0.00    +0.177 C 
ATOM     19  C   UNL     1       5.988   5.709  22.996  0.00  0.00    +0.179 C 
ATOM     20  C   UNL     1       6.314   4.212  22.965  0.00  0.00    +0.201 C 
BRANCH  20  21
ATOM     21  O   UNL     1       6.568   3.791  21.614  0.00  0.00    -0.384 OA
ATOM     22  H   UNL     1       7.085   2.957  21.679  0.00  0.00    +0.210 HD
ENDBRANCH  20  21
BRANCH  19  23
ATOM     23  O   UNL     1       4.913   5.978  22.077  0.00  0.00    -0.386 OA
ATOM     24  H   UNL     1       4.211   5.327  22.292  0.00  0.00    +0.210 HD
ENDBRANCH  19  23
BRANCH  18  25
ATOM     25  O   UNL     1       7.437   6.315  21.184  0.00  0.00    -0.386 OA
ATOM     26  H   UNL     1       7.513   7.210  20.795  0.00  0.00    +0.210 HD
ENDBRANCH  18  25
BRANCH  17  27
ATOM     27  C   UNL     1       8.621   6.794  24.744  0.00  0.00    +0.190 C 
BRANCH  27  28
ATOM     28  O   UNL     1       9.594   6.118  25.530  0.00  0.00    -0.392 OA
ATOM     29  H   UNL     1       9.487   5.163  25.378  0.00  0.00    +0.210 HD
ENDBRANCH  27  28
ENDBRANCH  17  27
ENDBRANCH  14  15
ENDBRANCH  13  14
ENDBRANCH   3  13
BRANCH   1  30
ATOM     30  O   UNL     1       7.469  -0.777  26.522  0.00  0.00    -0.453 OA
BRANCH  30  41
ATOM     31  C   UNL     1       8.172  -1.603  24.285  0.00  0.00    +0.181 A 
ATOM     32  O   UNL     1       8.119  -2.649  23.312  0.00  0.00    -0.451 OA
ATOM     33  C   UNL     1       7.253  -3.709  23.506  0.00  0.00    +0.147 A 
ATOM     34  C   UNL     1       6.667  -3.902  24.742  0.00  0.00    +0.109 A 
ATOM     35  C   UNL     1       5.797  -4.967  25.008  0.00  0.00    +0.135 A 
ATOM     36  C   UNL     1       5.550  -5.894  24.027  0.00  0.00    +0.091 A 
ATOM     37  C   UNL     1       6.221  -5.768  22.807  0.00  0.00    +0.124 A 
ATOM     38  C   UNL     1       7.283  -3.141  25.777  0.00  0.00    +0.238 A 
ATOM     39  O   UNL     1       7.690  -3.739  26.765  0.00  0.00    -0.283 OA
ATOM     40  C   UNL     1       7.042  -4.662  22.525  0.00  0.00    +0.092 A 
ATOM     41  C   UNL     1       7.568  -1.713  25.497  0.00  0.00    +0.214 A 
BRANCH  31  43
ATOM     42  C   UNL     1      10.144  -0.091  24.696  0.00  0.00    +0.015 A 
ATOM     43  C   UNL     1       9.080  -0.488  23.850  0.00  0.00    +0.025 A 
ATOM     44  C   UNL     1       8.825   0.321  22.729  0.00  0.00    +0.060 A 
ATOM     45  C   UNL     1       9.559   1.489  22.514  0.00  0.00    +0.159 A 
ATOM     46  C   UNL     1      10.556   1.886  23.399  0.00  0.00    +0.158 A 
ATOM     47  C   UNL     1      10.874   1.089  24.482  0.00  0.00    +0.050 A 
BRANCH  46  48
ATOM     48  O   UNL     1      11.171   3.087  23.172  0.00  0.00    -0.503 OA
ATOM     49  H   UNL     1      12.085   3.024  23.501  0.00  0.00    +0.292 HD
ENDBRANCH  46  48
BRANCH  45  50
ATOM     50  O   UNL     1       9.256   2.278  21.434  0.00  0.00    -0.503 OA
ATOM     51  H   UNL     1       9.944   2.979  21.448  0.00  0.00    +0.292 HD
ENDBRANCH  45  50
ENDBRANCH  31  43
BRANCH  37  52
ATOM     52  O   UNL     1       6.132  -6.755  21.865  0.00  0.00    -0.507 OA
ATOM     53  H   UNL     1       5.905  -6.338  21.013  0.00  0.00    +0.292 HD
ENDBRANCH  37  52
BRANCH  35  54
ATOM     54  O   UNL     1       5.189  -5.143  26.218  0.00  0.00    -0.506 OA
ATOM     55  H   UNL     1       4.396  -5.703  26.105  0.00  0.00    +0.292 HD
ENDBRANCH  35  54
ENDBRANCH  30  41
ENDBRANCH   1  30
TORSDOF 18
ENDMDL
MODEL 3
REMARK VINA RESULT:      -7.4      2.208      5.822
REMARK  Name = 
REMARK  18 active torsions:
REMARK  status: ('A' for Active; 'I' for Inactive)
REMARK    1  A    between atoms: C_3  and  O_53
REMARK    2  A    between atoms: C_4  and  O_52
REMARK    3  A    between atoms: C_6  and  C_7
REMARK    4  A    between atoms: C_8  and  O_20
REMARK    5  A    between atoms: C_12  and  O_19
REMARK    6  A    between atoms: C_14  and  O_18
REMARK    7  A    between atoms: O_20  and  C_21
REMARK    8  A    between atoms: C_23  and  O_51
REMARK    9  A    between atoms: C_25  and  O_50
REMARK   10  A    between atoms: C_27  and  O_49
REMARK   11  A    between atoms: C_29  and  C_32
REMARK   12  A    between atoms: C_32  and  O_33
REMARK   13  A    between atoms: O_33  and  C_34
REMARK   14  A    between atoms: C_36  and  O_48
REMARK   15  A    between atoms: C_38  and  O_47
REMARK   16  A    between atoms: C_39  and  O_46
REMARK   17  A    between atoms: C_41  and  C_44
REMARK   18  A    between atoms: C_44  and  O_45
REMARK                            x       y       z     vdW  Elec       q    Type
REMARK                         _______ _______ _______ _____ _____    ______ ____
ROOT
ATOM      1  C   UNL     1       6.754   1.892  26.134  0.00  0.00    +0.340 C 
ATOM      2  O   UNL     1       7.586   0.854  26.685  0.00  0.00    -0.331 OA
ATOM      3  C   UNL     1       7.036  -0.386  27.201  0.00  0.00    +0.179 C 
ATOM      4  C   UNL     1       5.511  -0.632  27.234  0.00  0.00    +0.177 C 
ATOM      5  C   UNL     1       4.794   0.357  26.350  0.00  0.00    +0.180 C 
ATOM      6  C   UNL     1       5.346   1.738  26.714  0.00  0.00    +0.214 C 
ENDROOT
BRANCH   6   7
ATOM      7  O   UNL     1       5.347   1.962  28.146  0.00  0.00    -0.383 OA
ATOM      8  H   UNL     1       5.843   1.235  28.572  0.00  0.00    +0.210 HD
ENDBRANCH   6   7
BRANCH   5   9
ATOM      9  O   UNL     1       4.944  -0.019  24.976  0.00  0.00    -0.386 OA
ATOM     10  H   UNL     1       4.907   0.769  24.400  0.00  0.00    +0.210 HD
ENDBRANCH   5   9
BRANCH   4  11
ATOM     11  O   UNL     1       5.037  -0.524  28.590  0.00  0.00    -0.386 OA
ATOM     12  H   UNL     1       5.113  -1.428  29.005  0.00  0.00    +0.210 HD
ENDBRANCH   4  11
BRANCH   3  13
ATOM     13  C   UNL     1       7.752  -1.530  26.469  0.00  0.00    +0.197 C 
BRANCH  13  14
ATOM     14  O   UNL     1       6.842  -2.459  25.869  0.00  0.00    -0.346 OA
BRANCH  14  15
ATOM     15  C   UNL     1       7.324  -3.798  25.746  0.00  0.00    +0.282 C 
ATOM     16  O   UNL     1       6.483  -4.567  24.878  0.00  0.00    -0.341 OA
ATOM     17  C   UNL     1       5.155  -4.830  25.349  0.00  0.00    +0.178 C 
ATOM     18  C   UNL     1       5.137  -5.396  26.780  0.00  0.00    +0.177 C 
ATOM     19  C   UNL     1       6.074  -4.639  27.728  0.00  0.00    +0.179 C 
ATOM     20  C   UNL     1       7.468  -4.493  27.110  0.00  0.00    +0.201 C 
BRANCH  20  21
ATOM     21  O   UNL     1       8.092  -5.783  26.990  0.00  0.00    -0.384 OA
ATOM     22  H   UNL     1       8.585  -5.928  27.828  0.00  0.00    +0.210 HD
ENDBRANCH  20  21
BRANCH  19  23
ATOM     23  O   UNL     1       6.180  -5.365  28.966  0.00  0.00    -0.386 OA
ATOM     24  H   UNL     1       6.157  -6.314  28.720  0.00  0.00    +0.210 HD
ENDBRANCH  19  23
BRANCH  18  25
ATOM     25  O   UNL     1       5.586  -6.767  26.738  0.00  0.00    -0.386 OA
ATOM     26  H   UNL     1       5.127  -7.159  25.967  0.00  0.00    +0.210 HD
ENDBRANCH  18  25
BRANCH  17  27
ATOM     27  C   UNL     1       4.230  -3.622  25.134  0.00  0.00    +0.190 C 
BRANCH  27  28
ATOM     28  O   UNL     1       4.667  -2.840  24.030  0.00  0.00    -0.392 OA
ATOM     29  H   UNL     1       3.936  -2.250  23.776  0.00  0.00    +0.210 HD
ENDBRANCH  27  28
ENDBRANCH  17  27
ENDBRANCH  14  15
ENDBRANCH  13  14
ENDBRANCH   3  13
BRANCH   1  30
ATOM     30  O   UNL     1       6.824   1.908  24.679  0.00  0.00    -0.453 OA
BRANCH  30  41
ATOM     31  C   UNL     1       9.042   1.630  23.591  0.00  0.00    +0.181 A 
ATOM     32  O   UNL     1      10.272   2.234  23.184  0.00  0.00    -0.451 OA
ATOM     33  C   UNL     1      10.556   3.525  23.586  0.00  0.00    +0.147 A 
ATOM     34  C   UNL     1       9.557   4.316  24.120  0.00  0.00    +0.109 A 
ATOM     35  C   UNL     1       9.776   5.638  24.528  0.00  0.00    +0.135 A 
ATOM     36  C   UNL     1      11.014   6.201  24.345  0.00  0.00    +0.091 A 
ATOM     37  C   UNL     1      12.002   5.446  23.708  0.00  0.00    +0.124 A 
ATOM     38  C   UNL     1       8.251   3.789  23.902  0.00  0.00    +0.238 A 
ATOM     39  O   UNL     1       7.427   4.507  23.351  0.00  0.00    -0.283 OA
ATOM     40  C   UNL     1      11.796   4.100  23.360  0.00  0.00    +0.092 A 
ATOM     41  C   UNL     1       8.045   2.346  24.171  0.00  0.00    +0.214 A 
BRANCH  31  43
ATOM     42  C   UNL     1       7.794  -0.266  22.498  0.00  0.00    +0.015 A 
ATOM     43  C   UNL     1       8.961   0.194  23.158  0.00  0.00    +0.025 A 
ATOM     44  C   UNL     1       9.902  -0.780  23.535  0.00  0.00    +0.060 A 
ATOM     45  C   UNL     1       9.648  -2.135  23.316  0.00  0.00    +0.159 A 
ATOM     46  C   UNL     1       8.464  -2.560  22.723  0.00  0.00    +0.158 A 
ATOM     47  C   UNL     1       7.540  -1.630  22.287  0.00  0.00    +0.050 A 
BRANCH  46  48
ATOM     48  O   UNL     1       8.247  -3.907  22.622  0.00  0.00    -0.503 OA
ATOM     49  H   UNL     1       7.611  -4.162  23.313  0.00  0.00    +0.292 HD
ENDBRANCH  46  48
BRANCH  45  50
ATOM     50  O   UNL     1      10.568  -3.062  23.735  0.00  0.00    -0.503 OA
ATOM     51  H   UNL     1      10.031  -3.857  23.943  0.00  0.00    +0.292 HD
ENDBRANCH  45  50
ENDBRANCH  31  43
BRANCH  37  52
ATOM     52  O   UNL     1      13.193   6.021  23.359  0.00  0.00    -0.507 OA
ATOM     53  H   UNL     1      13.233   6.061  22.385  0.00  0.00    +0.292 HD
ENDBRANCH  37  52
BRANCH  35  54
ATOM     54  O   UNL     1       8.800   6.412  25.087  0.00  0.00    -0.506 OA
ATOM     55  H   UNL     1       8.926   6.444  26.056  0.00  0.00    +0.292 HD
ENDBRANCH  35  54
ENDBRANCH  30  41
ENDBRANCH   1  30
TORSDOF 18
ENDMDL
MODEL 4
REMARK VINA RESULT:      -7.0      1.067      1.933
REMARK  Name = 
REMARK  18 active torsions:
REMARK  status: ('A' for Active; 'I' for Inactive)
REMARK    1  A    between atoms: C_3  and  O_53
REMARK    2  A    between atoms: C_4  and  O_52
REMARK    3  A    between atoms: C_6  and  C_7
REMARK    4  A    between atoms: C_8  and  O_20
REMARK    5  A    between atoms: C_12  and  O_19
REMARK    6  A    between atoms: C_14  and  O_18
REMARK    7  A    between atoms: O_20  and  C_21
REMARK    8  A    between atoms: C_23  and  O_51
REMARK    9  A    between atoms: C_25  and  O_50
REMARK   10  A    between atoms: C_27  and  O_49
REMARK   11  A    between atoms: C_29  and  C_32
REMARK   12  A    between atoms: C_32  and  O_33
REMARK   13  A    between atoms: O_33  and  C_34
REMARK   14  A    between atoms: C_36  and  O_48
REMARK   15  A    between atoms: C_38  and  O_47
REMARK   16  A    between atoms: C_39  and  O_46
REMARK   17  A    between atoms: C_41  and  C_44
REMARK   18  A    between atoms: C_44  and  O_45
REMARK                            x       y       z     vdW  Elec       q    Type
REMARK                         _______ _______ _______ _____ _____    ______ ____
ROOT
ATOM      1  C   UNL     1       5.611  -3.361  23.326  0.00  0.00    +0.340 C 
ATOM      2  O   UNL     1       4.669  -4.429  23.534  0.00  0.00    -0.331 OA
ATOM      3  C   UNL     1       4.871  -5.757  22.984  0.00  0.00    +0.179 C 
ATOM      4  C   UNL     1       6.093  -6.077  22.093  0.00  0.00    +0.177 C 
ATOM      5  C   UNL     1       7.141  -5.001  22.225  0.00  0.00    +0.180 C 
ATOM      6  C   UNL     1       6.411  -3.665  22.057  0.00  0.00    +0.214 C 
ENDROOT
BRANCH   6   7
ATOM      7  O   UNL     1       5.553  -3.659  20.889  0.00  0.00    -0.383 OA
ATOM      8  H   UNL     1       5.912  -4.294  20.238  0.00  0.00    +0.210 HD
ENDBRANCH   6   7
BRANCH   5   9
ATOM      9  O   UNL     1       7.851  -5.158  23.459  0.00  0.00    -0.386 OA
ATOM     10  H   UNL     1       8.003  -6.104  23.649  0.00  0.00    +0.210 HD
ENDBRANCH   5   9
BRANCH   4  11
ATOM     11  O   UNL     1       5.669  -6.195  20.722  0.00  0.00    -0.386 OA
ATOM     12  H   UNL     1       6.359  -5.746  20.158  0.00  0.00    +0.210 HD
ENDBRANCH   4  11
BRANCH   3  13
ATOM     13  C   UNL     1       4.786  -6.744  24.157  0.00  0.00    +0.197 C 
BRANCH  13  14
ATOM     14  O   UNL     1       4.788  -6.090  25.432  0.00  0.00    -0.346 OA
BRANCH  14  15
ATOM     15  C   UNL     1       4.365  -6.893  26.535  0.00  0.00    +0.282 C 
ATOM     16  O   UNL     1       2.982  -6.669  26.832  0.00  0.00    -0.341 OA
ATOM     17  C   UNL     1       2.642  -5.370  27.333  0.00  0.00    +0.178 C 
ATOM     18  C   UNL     1       3.536  -4.939  28.509  0.00  0.00    +0.177 C 
ATOM     19  C   UNL     1       5.022  -5.220  28.258  0.00  0.00    +0.179 C 
ATOM     20  C   UNL     1       5.228  -6.663  27.786  0.00  0.00    +0.201 C 
BRANCH  20  21
ATOM     21  O   UNL     1       4.893  -7.578  28.843  0.00  0.00    -0.384 OA
ATOM     22  H   UNL     1       3.936  -7.779  28.739  0.00  0.00    +0.210 HD
ENDBRANCH  20  21
BRANCH  19  23
ATOM     23  O   UNL     1       5.754  -5.011  29.479  0.00  0.00    -0.386 OA
ATOM     24  H   UNL     1       6.299  -4.210  29.329  0.00  0.00    +0.210 HD
ENDBRANCH  19  23
BRANCH  18  25
ATOM     25  O   UNL     1       3.150  -5.689  29.680  0.00  0.00    -0.386 OA
ATOM     26  H   UNL     1       3.271  -6.627  29.430  0.00  0.00    +0.210 HD
ENDBRANCH  18  25
BRANCH  17  27
ATOM     27  C   UNL     1       2.541  -4.336  26.202  0.00  0.00    +0.190 C 
BRANCH  27  28
ATOM     28  O   UNL     1       1.974  -4.917  25.034  0.00  0.00    -0.392 OA
ATOM     29  H   UNL     1       1.604  -5.782  25.284  0.00  0.00    +0.210 HD
ENDBRANCH  27  28
ENDBRANCH  17  27
ENDBRANCH  14  15
ENDBRANCH  13  14
ENDBRANCH   3  13
BRANCH   1  30
ATOM     30  O   UNL     1       6.412  -3.123  24.520  0.00  0.00    -0.453 OA
BRANCH  30  41
ATOM     31  C   UNL     1       6.808  -0.796  25.299  0.00  0.00    +0.181 A 
ATOM     32  O   UNL     1       7.534   0.425  25.137  0.00  0.00    -0.451 OA
ATOM     33  C   UNL     1       8.357   0.581  24.038  0.00  0.00    +0.147 A 
ATOM     34  C   UNL     1       8.696  -0.516  23.271  0.00  0.00    +0.109 A 
ATOM     35  C   UNL     1       9.541  -0.427  22.156  0.00  0.00    +0.135 A 
ATOM     36  C   UNL     1      10.104   0.783  21.835  0.00  0.00    +0.091 A 
ATOM     37  C   UNL     1       9.852   1.877  22.668  0.00  0.00    +0.124 A 
ATOM     38  C   UNL     1       8.394  -1.756  23.904  0.00  0.00    +0.238 A 
ATOM     39  O   UNL     1       9.300  -2.569  24.036  0.00  0.00    -0.283 OA
ATOM     40  C   UNL     1       8.954   1.795  23.746  0.00  0.00    +0.092 A 
ATOM     41  C   UNL     1       7.060  -1.892  24.536  0.00  0.00    +0.214 A 
BRANCH  31  43
ATOM     42  C   UNL     1       4.565  -1.238  26.357  0.00  0.00    +0.015 A 
ATOM     43  C   UNL     1       5.885  -0.739  26.483  0.00  0.00    +0.025 A 
ATOM     44  C   UNL     1       6.191  -0.046  27.667  0.00  0.00    +0.060 A 
ATOM     45  C   UNL     1       5.207   0.183  28.630  0.00  0.00    +0.159 A 
ATOM     46  C   UNL     1       3.902  -0.264  28.448  0.00  0.00    +0.158 A 
ATOM     47  C   UNL     1       3.576  -0.998  27.324  0.00  0.00    +0.050 A 
BRANCH  46  48
ATOM     48  O   UNL     1       2.973   0.075  29.393  0.00  0.00    -0.503 OA
ATOM     49  H   UNL     1       2.171  -0.450  29.228  0.00  0.00    +0.292 HD
ENDBRANCH  46  48
BRANCH  45  50
ATOM     50  O   UNL     1       5.528   0.900  29.754  0.00  0.00    -0.503 OA
ATOM     51  H   UNL     1       6.509   0.936  29.745  0.00  0.00    +0.292 HD
ENDBRANCH  45  50
ENDBRANCH  31  43
BRANCH  37  52
ATOM     52  O   UNL     1      10.521   3.055  22.480  0.00  0.00    -0.507 OA
ATOM     53  H   UNL     1      10.899   3.046  21.581  0.00  0.00    +0.292 HD
ENDBRANCH  37  52
BRANCH  35  54
ATOM     54  O   UNL     1       9.852  -1.502  21.374  0.00  0.00    -0.506 OA
ATOM     55  H   UNL     1      10.809  -1.690  21.447  0.00  0.00    +0.292 HD
ENDBRANCH  35  54
ENDBRANCH  30  41
ENDBRANCH   1  30
TORSDOF 18
ENDMDL
MODEL 5
REMARK VINA RESULT:      -7.0      2.002      5.586
REMARK  Name = 
REMARK  18 active torsions:
REMARK  status: ('A' for Active; 'I' for Inactive)
REMARK    1  A    between atoms: C_3  and  O_53
REMARK    2  A    between atoms: C_4  and  O_52
REMARK    3  A    between atoms: C_6  and  C_7
REMARK    4  A    between atoms: C_8  and  O_20
REMARK    5  A    between atoms: C_12  and  O_19
REMARK    6  A    between atoms: C_14  and  O_18
REMARK    7  A    between atoms: O_20  and  C_21
REMARK    8  A    between atoms: C_23  and  O_51
REMARK    9  A    between atoms: C_25  and  O_50
REMARK   10  A    between atoms: C_27  and  O_49
REMARK   11  A    between atoms: C_29  and  C_32
REMARK   12  A    between atoms: C_32  and  O_33
REMARK   13  A    between atoms: O_33  and  C_34
REMARK   14  A    between atoms: C_36  and  O_48
REMARK   15  A    between atoms: C_38  and  O_47
REMARK   16  A    between atoms: C_39  and  O_46
REMARK   17  A    between atoms: C_41  and  C_44
REMARK   18  A    between atoms: C_44  and  O_45
REMARK                            x       y       z     vdW  Elec       q    Type
REMARK                         _______ _______ _______ _____ _____    ______ ____
ROOT
ATOM      1  C   UNL     1       5.409  -0.887  26.764  0.00  0.00    +0.340 C 
ATOM      2  O   UNL     1       5.843  -2.228  27.056  0.00  0.00    -0.331 OA
ATOM      3  C   UNL     1       4.964  -3.212  27.661  0.00  0.00    +0.179 C 
ATOM      4  C   UNL     1       3.520  -2.848  28.076  0.00  0.00    +0.177 C 
ATOM      5  C   UNL     1       3.094  -1.553  27.430  0.00  0.00    +0.180 C 
ATOM      6  C   UNL     1       4.228  -0.554  27.679  0.00  0.00    +0.214 C 
ENDROOT
BRANCH   6   7
ATOM      7  O   UNL     1       4.639  -0.534  29.069  0.00  0.00    -0.383 OA
ATOM      8  H   UNL     1       5.029  -1.404  29.289  0.00  0.00    +0.210 HD
ENDBRANCH   6   7
BRANCH   5   9
ATOM      9  O   UNL     1       2.768  -1.778  26.054  0.00  0.00    -0.386 OA
ATOM     10  H   UNL     1       3.123  -2.636  25.753  0.00  0.00    +0.210 HD
ENDBRANCH   5   9
BRANCH   4  11
ATOM     11  O   UNL     1       3.446  -2.738  29.510  0.00  0.00    -0.386 OA
ATOM     12  H   UNL     1       2.481  -2.770  29.761  0.00  0.00    +0.210 HD
ENDBRANCH   4  11
BRANCH   3  13
ATOM     13  C   UNL     1       4.968  -4.440  26.740  0.00  0.00    +0.197 C 
BRANCH  13  14
ATOM     14  O   UNL     1       3.863  -4.453  25.828  0.00  0.00    -0.346 OA
BRANCH  14  15
ATOM     15  C   UNL     1       4.114  -5.071  24.566  0.00  0.00    +0.282 C 
ATOM     16  O   UNL     1       3.058  -4.790  23.639  0.00  0.00    -0.341 OA
ATOM     17  C   UNL     1       1.780  -5.364  23.940  0.00  0.00    +0.178 C 
ATOM     18  C   UNL     1       1.866  -6.872  24.240  0.00  0.00    +0.177 C 
ATOM     19  C   UNL     1       3.025  -7.223  25.181  0.00  0.00    +0.179 C 
ATOM     20  C   UNL     1       4.330  -6.587  24.693  0.00  0.00    +0.201 C 
BRANCH  20  21
ATOM     21  O   UNL     1       4.728  -7.177  23.444  0.00  0.00    -0.384 OA
ATOM     22  H   UNL     1       4.815  -6.435  22.805  0.00  0.00    +0.210 HD
ENDBRANCH  20  21
BRANCH  19  23
ATOM     23  O   UNL     1       3.181  -8.653  25.222  0.00  0.00    -0.386 OA
ATOM     24  H   UNL     1       2.553  -8.969  25.906  0.00  0.00    +0.210 HD
ENDBRANCH  19  23
BRANCH  18  25
ATOM     25  O   UNL     1       2.091  -7.576  23.001  0.00  0.00    -0.386 OA
ATOM     26  H   UNL     1       1.211  -7.917  22.741  0.00  0.00    +0.210 HD
ENDBRANCH  18  25
BRANCH  17  27
ATOM     27  C   UNL     1       1.030  -4.549  25.003  0.00  0.00    +0.190 C 
BRANCH  27  28
ATOM     28  O   UNL     1       0.965  -3.176  24.635  0.00  0.00    -0.392 OA
ATOM     29  H   UNL     1       0.031  -2.955  24.478  0.00  0.00    +0.210 HD
ENDBRANCH  27  28
ENDBRANCH  17  27
ENDBRANCH  14  15
ENDBRANCH  13  14
ENDBRANCH   3  13
BRANCH   1  30
ATOM     30  O   UNL     1       5.154  -0.713  25.340  0.00  0.00    -0.453 OA
BRANCH  30  41
ATOM     31  C   UNL     1       7.138  -0.975  23.864  0.00  0.00    +0.181 A 
ATOM     32  O   UNL     1       8.264  -0.361  23.234  0.00  0.00    -0.451 OA
ATOM     33  C   UNL     1       8.602   0.936  23.570  0.00  0.00    +0.147 A 
ATOM     34  C   UNL     1       7.708   1.720  24.275  0.00  0.00    +0.109 A 
ATOM     35  C   UNL     1       7.983   3.047  24.629  0.00  0.00    +0.135 A 
ATOM     36  C   UNL     1       9.159   3.622  24.219  0.00  0.00    +0.091 A 
ATOM     37  C   UNL     1      10.023   2.873  23.415  0.00  0.00    +0.124 A 
ATOM     38  C   UNL     1       6.391   1.177  24.304  0.00  0.00    +0.238 A 
ATOM     39  O   UNL     1       5.471   1.883  23.911  0.00  0.00    -0.283 OA
ATOM     40  C   UNL     1       9.771   1.522  23.117  0.00  0.00    +0.092 A 
ATOM     41  C   UNL     1       6.255  -0.266  24.614  0.00  0.00    +0.214 A 
BRANCH  31  43
ATOM     42  C   UNL     1       7.749  -3.404  24.140  0.00  0.00    +0.015 A 
ATOM     43  C   UNL     1       6.995  -2.416  23.461  0.00  0.00    +0.025 A 
ATOM     44  C   UNL     1       6.292  -2.830  22.316  0.00  0.00    +0.060 A 
ATOM     45  C   UNL     1       6.398  -4.142  21.854  0.00  0.00    +0.159 A 
ATOM     46  C   UNL     1       7.199  -5.074  22.506  0.00  0.00    +0.158 A 
ATOM     47  C   UNL     1       7.860  -4.720  23.667  0.00  0.00    +0.050 A 
BRANCH  46  48
ATOM     48  O   UNL     1       7.324  -6.315  21.945  0.00  0.00    -0.503 OA
ATOM     49  H   UNL     1       8.012  -6.798  22.434  0.00  0.00    +0.292 HD
ENDBRANCH  46  48
BRANCH  45  50
ATOM     50  O   UNL     1       5.734  -4.502  20.709  0.00  0.00    -0.503 OA
ATOM     51  H   UNL     1       5.481  -5.438  20.862  0.00  0.00    +0.292 HD
ENDBRANCH  45  50
ENDBRANCH  31  43
BRANCH  37  52
ATOM     52  O   UNL     1      11.122   3.459  22.850  0.00  0.00    -0.507 OA
ATOM     53  H   UNL     1      11.492   2.836  22.197  0.00  0.00    +0.292 HD
ENDBRANCH  37  52
BRANCH  35  54
ATOM     54  O   UNL     1       7.118   3.815  25.354  0.00  0.00    -0.506 OA
ATOM     55  H   UNL     1       6.282   3.326  25.487  0.00  0.00    +0.292 HD
ENDBRANCH  35  54
ENDBRANCH  30  41
ENDBRANCH   1  30
TORSDOF 18
ENDMDL
MODEL 6
REMARK VINA RESULT:      -6.9      2.147      5.762
REMARK  Name = 
REMARK  18 active torsions:
REMARK  status: ('A' for Active; 'I' for Inactive)
REMARK    1  A    between atoms: C_3  and  O_53
REMARK    2  A    between atoms: C_4  and  O_52
REMARK    3  A    between atoms: C_6  and  C_7
REMARK    4  A    between atoms: C_8  and  O_20
REMARK    5  A    between atoms: C_12  and  O_19
REMARK    6  A    between atoms: C_14  and  O_18
REMARK    7  A    between atoms: O_20  and  C_21
REMARK    8  A    between atoms: C_23  and  O_51
REMARK    9  A    between atoms: C_25  and  O_50
REMARK   10  A    between atoms: C_27  and  O_49
REMARK   11  A    between atoms: C_29  and  C_32
REMARK   12  A    between atoms: C_32  and  O_33
REMARK   13  A    between atoms: O_33  and  C_34
REMARK   14  A    between atoms: C_36  and  O_48
REMARK   15  A    between atoms: C_38  and  O_47
REMARK   16  A    between atoms: C_39  and  O_46
REMARK   17  A    between atoms: C_41  and  C_44
REMARK   18  A    between atoms: C_44  and  O_45
REMARK                            x       y       z     vdW  Elec       q    Type
REMARK                         _______ _______ _______ _____ _____    ______ ____
ROOT
ATOM      1  C   UNL     1       6.989   0.978  26.105  0.00  0.00    +0.340 C 
ATOM      2  O   UNL     1       6.858  -0.433  25.856  0.00  0.00    -0.331 OA
ATOM      3  C   UNL     1       5.665  -1.176  26.220  0.00  0.00    +0.179 C 
ATOM      4  C   UNL     1       4.487  -0.491  26.948  0.00  0.00    +0.177 C 
ATOM      5  C   UNL     1       4.604   1.009  26.852  0.00  0.00    +0.180 C 
ATOM      6  C   UNL     1       6.043   1.355  27.248  0.00  0.00    +0.214 C 
ENDROOT
BRANCH   6   7
ATOM      7  O   UNL     1       6.436   0.706  28.483  0.00  0.00    -0.383 OA
ATOM      8  H   UNL     1       6.883   1.366  29.050  0.00  0.00    +0.210 HD
ENDBRANCH   6   7
BRANCH   5   9
ATOM      9  O   UNL     1       4.207   1.448  25.547  0.00  0.00    -0.386 OA
ATOM     10  H   UNL     1       3.781   2.325  25.596  0.00  0.00    +0.210 HD
ENDBRANCH   5   9
BRANCH   4  11
ATOM     11  O   UNL     1       4.471  -0.902  28.328  0.00  0.00    -0.386 OA
ATOM     12  H   UNL     1       4.728  -1.866  28.354  0.00  0.00    +0.210 HD
ENDBRANCH   4  11
BRANCH   3  13
ATOM     13  C   UNL     1       5.176  -1.884  24.948  0.00  0.00    +0.197 C 
BRANCH  13  14
ATOM     14  O   UNL     1       5.284  -3.310  25.031  0.00  0.00    -0.346 OA
BRANCH  14  15
ATOM     15  C   UNL     1       4.086  -4.035  24.750  0.00  0.00    +0.282 C 
ATOM     16  O   UNL     1       3.873  -5.069  25.718  0.00  0.00    -0.341 OA
ATOM     17  C   UNL     1       4.816  -6.148  25.712  0.00  0.00    +0.178 C 
ATOM     18  C   UNL     1       5.026  -6.741  24.306  0.00  0.00    +0.177 C 
ATOM     19  C   UNL     1       5.195  -5.663  23.228  0.00  0.00    +0.179 C 
ATOM     20  C   UNL     1       4.079  -4.618  23.328  0.00  0.00    +0.201 C 
BRANCH  20  21
ATOM     21  O   UNL     1       2.814  -5.217  23.001  0.00  0.00    -0.384 OA
ATOM     22  H   UNL     1       2.399  -4.631  22.328  0.00  0.00    +0.210 HD
ENDBRANCH  20  21
BRANCH  19  23
ATOM     23  O   UNL     1       5.149  -6.284  21.931  0.00  0.00    -0.386 OA
ATOM     24  H   UNL     1       4.424  -5.834  21.447  0.00  0.00    +0.210 HD
ENDBRANCH  19  23
BRANCH  18  25
ATOM     25  O   UNL     1       3.862  -7.519  23.956  0.00  0.00    -0.386 OA
ATOM     26  H   UNL     1       3.154  -6.860  23.806  0.00  0.00    +0.210 HD
ENDBRANCH  18  25
BRANCH  17  27
ATOM     27  C   UNL     1       6.115  -5.769  26.439  0.00  0.00    +0.190 C 
BRANCH  27  28
ATOM     28  O   UNL     1       7.146  -5.467  25.508  0.00  0.00    -0.392 OA
ATOM     29  H   UNL     1       6.744  -4.976  24.770  0.00  0.00    +0.210 HD
ENDBRANCH  27  28
ENDBRANCH  17  27
ENDBRANCH  14  15
ENDBRANCH  13  14
ENDBRANCH   3  13
BRANCH   1  30
ATOM     30  O   UNL     1       6.815   1.748  24.880  0.00  0.00    -0.453 OA
BRANCH  30  41
ATOM     31  C   UNL     1       8.978   1.431  23.696  0.00  0.00    +0.181 A 
ATOM     32  O   UNL     1      10.184   2.021  23.206  0.00  0.00    -0.451 OA
ATOM     33  C   UNL     1      10.482   3.328  23.540  0.00  0.00    +0.147 A 
ATOM     34  C   UNL     1       9.507   4.137  24.091  0.00  0.00    +0.109 A 
ATOM     35  C   UNL     1       9.740   5.475  24.434  0.00  0.00    +0.135 A 
ATOM     36  C   UNL     1      10.966   6.033  24.168  0.00  0.00    +0.091 A 
ATOM     37  C   UNL     1      11.925   5.255  23.514  0.00  0.00    +0.124 A 
ATOM     38  C   UNL     1       8.194   3.599  23.959  0.00  0.00    +0.238 A 
ATOM     39  O   UNL     1       7.341   4.293  23.421  0.00  0.00    -0.283 OA
ATOM     40  C   UNL     1      11.706   3.895  23.231  0.00  0.00    +0.092 A 
ATOM     41  C   UNL     1       8.007   2.168  24.296  0.00  0.00    +0.214 A 
BRANCH  31  43
ATOM     42  C   UNL     1       7.772  -0.471  22.567  0.00  0.00    +0.015 A 
ATOM     43  C   UNL     1       8.881  -0.022  23.326  0.00  0.00    +0.025 A 
ATOM     44  C   UNL     1       9.734  -1.009  23.848  0.00  0.00    +0.060 A 
ATOM     45  C   UNL     1       9.448  -2.363  23.668  0.00  0.00    +0.159 A 
ATOM     46  C   UNL     1       8.315  -2.774  22.972  0.00  0.00    +0.158 A 
ATOM     47  C   UNL     1       7.483  -1.834  22.396  0.00  0.00    +0.050 A 
BRANCH  46  48
ATOM     48  O   UNL     1       8.052  -4.115  22.913  0.00  0.00    -0.503 OA
ATOM     49  H   UNL     1       8.282  -4.505  23.774  0.00  0.00    +0.292 HD
ENDBRANCH  46  48
BRANCH  45  50
ATOM     50  O   UNL     1      10.277  -3.301  24.228  0.00  0.00    -0.503 OA
ATOM     51  H   UNL     1       9.681  -4.049  24.448  0.00  0.00    +0.292 HD
ENDBRANCH  45  50
ENDBRANCH  31  43
BRANCH  37  52
ATOM     52  O   UNL     1      13.094   5.818  23.084  0.00  0.00    -0.507 OA
ATOM     53  H   UNL     1      12.870   6.585  22.524  0.00  0.00    +0.292 HD
ENDBRANCH  37  52
BRANCH  35  54
ATOM     54  O   UNL     1       8.791   6.269  25.009  0.00  0.00    -0.506 OA
ATOM     55  H   UNL     1       7.905   5.891  24.842  0.00  0.00    +0.292 HD
ENDBRANCH  35  54
ENDBRANCH  30  41
ENDBRANCH   1  30
TORSDOF 18
ENDMDL
MODEL 7
REMARK VINA RESULT:      -6.8      2.234      7.708
REMARK  Name = 
REMARK  18 active torsions:
REMARK  status: ('A' for Active; 'I' for Inactive)
REMARK    1  A    between atoms: C_3  and  O_53
REMARK    2  A    between atoms: C_4  and  O_52
REMARK    3  A    between atoms: C_6  and  C_7
REMARK    4  A    between atoms: C_8  and  O_20
REMARK    5  A    between atoms: C_12  and  O_19
REMARK    6  A    between atoms: C_14  and  O_18
REMARK    7  A    between atoms: O_20  and  C_21
REMARK    8  A    between atoms: C_23  and  O_51
REMARK    9  A    between atoms: C_25  and  O_50
REMARK   10  A    between atoms: C_27  and  O_49
REMARK   11  A    between atoms: C_29  and  C_32
REMARK   12  A    between atoms: C_32  and  O_33
REMARK   13  A    between atoms: O_33  and  C_34
REMARK   14  A    between atoms: C_36  and  O_48
REMARK   15  A    between atoms: C_38  and  O_47
REMARK   16  A    between atoms: C_39  and  O_46
REMARK   17  A    between atoms: C_41  and  C_44
REMARK   18  A    between atoms: C_44  and  O_45
REMARK                            x       y       z     vdW  Elec       q    Type
REMARK                         _______ _______ _______ _____ _____    ______ ____
ROOT
ATOM      1  C   UNL     1       8.764  -1.409  25.012  0.00  0.00    +0.340 C 
ATOM      2  O   UNL     1       9.741  -0.365  24.843  0.00  0.00    -0.331 OA
ATOM      3  C   UNL     1      10.297  -0.028  23.546  0.00  0.00    +0.179 C 
ATOM      4  C   UNL     1       9.904  -0.817  22.276  0.00  0.00    +0.177 C 
ATOM      5  C   UNL     1       8.663  -1.637  22.525  0.00  0.00    +0.180 C 
ATOM      6  C   UNL     1       8.898  -2.386  23.840  0.00  0.00    +0.214 C 
ENDROOT
BRANCH   6   7
ATOM      7  O   UNL     1      10.185  -3.051  23.864  0.00  0.00    -0.383 OA
ATOM      8  H   UNL     1      10.242  -3.586  24.681  0.00  0.00    +0.210 HD
ENDBRANCH   6   7
BRANCH   5   9
ATOM      9  O   UNL     1       7.507  -0.792  22.501  0.00  0.00    -0.386 OA
ATOM     10  H   UNL     1       7.709   0.053  22.057  0.00  0.00    +0.210 HD
ENDBRANCH   5   9
BRANCH   4  11
ATOM     11  O   UNL     1      10.996  -1.671  21.886  0.00  0.00    -0.386 OA
ATOM     12  H   UNL     1      10.619  -2.389  21.304  0.00  0.00    +0.210 HD
ENDBRANCH   4  11
BRANCH   3  13
ATOM     13  C   UNL     1      10.066   1.476  23.339  0.00  0.00    +0.197 C 
BRANCH  13  14
ATOM     14  O   UNL     1       8.722   1.876  23.637  0.00  0.00    -0.346 OA
BRANCH  14  15
ATOM     15  C   UNL     1       8.589   2.881  24.643  0.00  0.00    +0.282 C 
ATOM     16  O   UNL     1       7.236   2.966  25.105  0.00  0.00    -0.341 OA
ATOM     17  C   UNL     1       6.270   3.441  24.159  0.00  0.00    +0.178 C 
ATOM     18  C   UNL     1       6.705   4.751  23.478  0.00  0.00    +0.177 C 
ATOM     19  C   UNL     1       8.169   4.725  23.023  0.00  0.00    +0.179 C 
ATOM     20  C   UNL     1       9.081   4.255  24.162  0.00  0.00    +0.201 C 
BRANCH  20  21
ATOM     21  O   UNL     1       9.082   5.225  25.223  0.00  0.00    -0.384 OA
ATOM     22  H   UNL     1       9.901   5.758  25.108  0.00  0.00    +0.210 HD
ENDBRANCH  20  21
BRANCH  19  23
ATOM     23  O   UNL     1       8.561   6.049  22.619  0.00  0.00    -0.386 OA
ATOM     24  H   UNL     1       9.540   6.033  22.567  0.00  0.00    +0.210 HD
ENDBRANCH  19  23
BRANCH  18  25
ATOM     25  O   UNL     1       6.570   5.830  24.427  0.00  0.00    -0.386 OA
ATOM     26  H   UNL     1       7.404   6.338  24.353  0.00  0.00    +0.210 HD
ENDBRANCH  18  25
BRANCH  17  27
ATOM     27  C   UNL     1       5.841   2.333  23.184  0.00  0.00    +0.190 C 
BRANCH  27  28
ATOM     28  O   UNL     1       5.735   1.084  23.855  0.00  0.00    -0.392 OA
ATOM     29  H   UNL     1       5.986   0.387  23.224  0.00  0.00    +0.210 HD
ENDBRANCH  27  28
ENDBRANCH  17  27
ENDBRANCH  14  15
ENDBRANCH  13  14
ENDBRANCH   3  13
BRANCH   1  30
ATOM     30  O   UNL     1       7.430  -0.858  25.207  0.00  0.00    -0.453 OA
BRANCH  30  41
ATOM     31  C   UNL     1       5.895  -1.568  27.029  0.00  0.00    +0.181 A 
ATOM     32  O   UNL     1       5.065  -2.595  27.577  0.00  0.00    -0.451 OA
ATOM     33  C   UNL     1       5.092  -3.858  27.017  0.00  0.00    +0.147 A 
ATOM     34  C   UNL     1       5.682  -4.050  25.782  0.00  0.00    +0.109 A 
ATOM     35  C   UNL     1       5.726  -5.301  25.152  0.00  0.00    +0.135 A 
ATOM     36  C   UNL     1       5.114  -6.375  25.748  0.00  0.00    +0.091 A 
ATOM     37  C   UNL     1       4.422  -6.169  26.945  0.00  0.00    +0.124 A 
ATOM     38  C   UNL     1       5.926  -2.833  25.084  0.00  0.00    +0.238 A 
ATOM     39  O   UNL     1       5.465  -2.716  23.956  0.00  0.00    -0.283 OA
ATOM     40  C   UNL     1       4.437  -4.927  27.604  0.00  0.00    +0.092 A 
ATOM     41  C   UNL     1       6.544  -1.721  25.846  0.00  0.00    +0.214 A 
BRANCH  31  43
ATOM     42  C   UNL     1       4.642  -0.024  28.575  0.00  0.00    +0.015 A 
ATOM     43  C   UNL     1       5.817  -0.303  27.835  0.00  0.00    +0.025 A 
ATOM     44  C   UNL     1       6.774   0.723  27.754  0.00  0.00    +0.060 A 
ATOM     45  C   UNL     1       6.529   1.970  28.330  0.00  0.00    +0.159 A 
ATOM     46  C   UNL     1       5.336   2.235  28.996  0.00  0.00    +0.158 A 
ATOM     47  C   UNL     1       4.395   1.235  29.145  0.00  0.00    +0.050 A 
BRANCH  46  48
ATOM     48  O   UNL     1       5.130   3.506  29.456  0.00  0.00    -0.503 OA
ATOM     49  H   UNL     1       5.030   4.092  28.686  0.00  0.00    +0.292 HD
ENDBRANCH  46  48
BRANCH  45  50
ATOM     50  O   UNL     1       7.465   2.963  28.195  0.00  0.00    -0.503 OA
ATOM     51  H   UNL     1       7.485   3.397  29.075  0.00  0.00    +0.292 HD
ENDBRANCH  45  50
ENDBRANCH  31  43
BRANCH  37  52
ATOM     52  O   UNL     1       3.663  -7.170  27.484  0.00  0.00    -0.507 OA
ATOM     53  H   UNL     1       3.455  -7.805  26.774  0.00  0.00    +0.292 HD
ENDBRANCH  37  52
BRANCH  35  54
ATOM     54  O   UNL     1       6.337  -5.503  23.948  0.00  0.00    -0.506 OA
ATOM     55  H   UNL     1       5.933  -6.275  23.505  0.00  0.00    +0.292 HD
ENDBRANCH  35  54
ENDBRANCH  30  41
ENDBRANCH   1  30
TORSDOF 18
ENDMDL
MODEL 8
REMARK VINA RESULT:      -6.8      2.211      7.190
REMARK  Name = 
REMARK  18 active torsions:
REMARK  status: ('A' for Active; 'I' for Inactive)
REMARK    1  A    between atoms: C_3  and  O_53
REMARK    2  A    between atoms: C_4  and  O_52
REMARK    3  A    between atoms: C_6  and  C_7
REMARK    4  A    between atoms: C_8  and  O_20
REMARK    5  A    between atoms: C_12  and  O_19
REMARK    6  A    between atoms: C_14  and  O_18
REMARK    7  A    between atoms: O_20  and  C_21
REMARK    8  A    between atoms: C_23  and  O_51
REMARK    9  A    between atoms: C_25  and  O_50
REMARK   10  A    between atoms: C_27  and  O_49
REMARK   11  A    between atoms: C_29  and  C_32
REMARK   12  A    between atoms: C_32  and  O_33
REMARK   13  A    between atoms: O_33  and  C_34
REMARK   14  A    between atoms: C_36  and  O_48
REMARK   15  A    between atoms: C_38  and  O_47
REMARK   16  A    between atoms: C_39  and  O_46
REMARK   17  A    between atoms: C_41  and  C_44
REMARK   18  A    between atoms: C_44  and  O_45
REMARK                            x       y       z     vdW  Elec       q    Type
REMARK                         _______ _______ _______ _____ _____    ______ ____
ROOT
ATOM      1  C   UNL     1       8.028  -1.085  24.650  0.00  0.00    +0.340 C 
ATOM      2  O   UNL     1       8.572   0.064  23.976  0.00  0.00    -0.331 OA
ATOM      3  C   UNL     1       9.078  -0.003  22.617  0.00  0.00    +0.179 C 
ATOM      4  C   UNL     1       9.106  -1.337  21.838  0.00  0.00    +0.177 C 
ATOM      5  C   UNL     1       8.228  -2.362  22.511  0.00  0.00    +0.180 C 
ATOM      6  C   UNL     1       8.604  -2.343  23.996  0.00  0.00    +0.214 C 
ENDROOT
BRANCH   6   7
ATOM      7  O   UNL     1      10.037  -2.421  24.193  0.00  0.00    -0.383 OA
ATOM      8  H   UNL     1      10.281  -3.360  24.325  0.00  0.00    +0.210 HD
ENDBRANCH   6   7
BRANCH   5   9
ATOM      9  O   UNL     1       6.851  -2.089  22.226  0.00  0.00    -0.386 OA
ATOM     10  H   UNL     1       6.270  -2.677  22.745  0.00  0.00    +0.210 HD
ENDBRANCH   5   9
BRANCH   4  11
ATOM     11  O   UNL     1      10.461  -1.818  21.758  0.00  0.00    -0.386 OA
ATOM     12  H   UNL     1      10.750  -2.049  22.685  0.00  0.00    +0.210 HD
ENDBRANCH   4  11
BRANCH   3  13
ATOM     13  C   UNL     1       8.338   1.076  21.813  0.00  0.00    +0.197 C 
BRANCH  13  14
ATOM     14  O   UNL     1       8.272   2.332  22.500  0.00  0.00    -0.346 OA
BRANCH  14  15
ATOM     15  C   UNL     1       7.082   3.091  22.281  0.00  0.00    +0.282 C 
ATOM     16  O   UNL     1       7.146   4.350  22.960  0.00  0.00    -0.341 OA
ATOM     17  C   UNL     1       7.142   4.300  24.393  0.00  0.00    +0.178 C 
ATOM     18  C   UNL     1       6.001   3.429  24.950  0.00  0.00    +0.177 C 
ATOM     19  C   UNL     1       5.859   2.095  24.207  0.00  0.00    +0.179 C 
ATOM     20  C   UNL     1       5.817   2.320  22.692  0.00  0.00    +0.201 C 
BRANCH  20  21
ATOM     21  O   UNL     1       4.619   3.029  22.332  0.00  0.00    -0.384 OA
ATOM     22  H   UNL     1       4.876   3.973  22.237  0.00  0.00    +0.210 HD
ENDBRANCH  20  21
BRANCH  19  23
ATOM     23  O   UNL     1       4.641   1.452  24.623  0.00  0.00    -0.386 OA
ATOM     24  H   UNL     1       4.652   0.565  24.206  0.00  0.00    +0.210 HD
ENDBRANCH  19  23
BRANCH  18  25
ATOM     25  O   UNL     1       4.757   4.143  24.792  0.00  0.00    -0.386 OA
ATOM     26  H   UNL     1       4.840   4.926  25.374  0.00  0.00    +0.210 HD
ENDBRANCH  18  25
BRANCH  17  27
ATOM     27  C   UNL     1       8.531   3.958  24.951  0.00  0.00    +0.190 C 
BRANCH  27  28
ATOM     28  O   UNL     1       8.581   2.605  25.386  0.00  0.00    -0.392 OA
ATOM     29  H   UNL     1       8.883   2.063  24.636  0.00  0.00    +0.210 HD
ENDBRANCH  27  28
ENDBRANCH  17  27
ENDBRANCH  14  15
ENDBRANCH  13  14
ENDBRANCH   3  13
BRANCH   1  30
ATOM     30  O   UNL     1       6.573  -1.027  24.702  0.00  0.00    -0.453 OA
BRANCH  30  41
ATOM     31  C   UNL     1       5.628  -1.660  26.913  0.00  0.00    +0.181 A 
ATOM     32  O   UNL     1       5.113  -2.694  27.754  0.00  0.00    -0.451 OA
ATOM     33  C   UNL     1       5.199  -4.009  27.339  0.00  0.00    +0.147 A 
ATOM     34  C   UNL     1       5.508  -4.297  26.023  0.00  0.00    +0.109 A 
ATOM     35  C   UNL     1       5.592  -5.608  25.536  0.00  0.00    +0.135 A 
ATOM     36  C   UNL     1       5.304  -6.656  26.374  0.00  0.00    +0.091 A 
ATOM     37  C   UNL     1       4.887  -6.372  27.677  0.00  0.00    +0.124 A 
ATOM     38  C   UNL     1       5.397  -3.167  25.163  0.00  0.00    +0.238 A 
ATOM     39  O   UNL     1       4.674  -3.263  24.180  0.00  0.00    -0.283 OA
ATOM     40  C   UNL     1       4.867  -5.059  28.179  0.00  0.00    +0.092 A 
ATOM     41  C   UNL     1       6.000  -1.894  25.627  0.00  0.00    +0.214 A 
BRANCH  31  43
ATOM     42  C   UNL     1       4.282   0.220  27.914  0.00  0.00    +0.015 A 
ATOM     43  C   UNL     1       5.550  -0.315  27.577  0.00  0.00    +0.025 A 
ATOM     44  C   UNL     1       6.656   0.540  27.718  0.00  0.00    +0.060 A 
ATOM     45  C   UNL     1       6.482   1.867  28.114  0.00  0.00    +0.159 A 
ATOM     46  C   UNL     1       5.217   2.382  28.376  0.00  0.00    +0.158 A 
ATOM     47  C   UNL     1       4.110   1.557  28.303  0.00  0.00    +0.050 A 
BRANCH  46  48
ATOM     48  O   UNL     1       5.116   3.713  28.672  0.00  0.00    -0.503 OA
ATOM     49  H   UNL     1       5.995   4.028  28.943  0.00  0.00    +0.292 HD
ENDBRANCH  46  48
BRANCH  45  50
ATOM     50  O   UNL     1       7.579   2.687  28.200  0.00  0.00    -0.503 OA
ATOM     51  H   UNL     1       8.220   2.299  27.566  0.00  0.00    +0.292 HD
ENDBRANCH  45  50
ENDBRANCH  31  43
BRANCH  37  52
ATOM     52  O   UNL     1       4.434  -7.374  28.490  0.00  0.00    -0.507 OA
ATOM     53  H   UNL     1       4.115  -8.100  27.923  0.00  0.00    +0.292 HD
ENDBRANCH  37  52
BRANCH  35  54
ATOM     54  O   UNL     1       5.930  -5.899  24.246  0.00  0.00    -0.506 OA
ATOM     55  H   UNL     1       6.903  -5.939  24.166  0.00  0.00    +0.292 HD
ENDBRANCH  35  54
ENDBRANCH  30  41
ENDBRANCH   1  30
TORSDOF 18
ENDMDL
MODEL 9
REMARK VINA RESULT:      -6.7      1.070      4.800
REMARK  Name = 
REMARK  18 active torsions:
REMARK  status: ('A' for Active; 'I' for Inactive)
REMARK    1  A    between atoms: C_3  and  O_53
REMARK    2  A    between atoms: C_4  and  O_52
REMARK    3  A    between atoms: C_6  and  C_7
REMARK    4  A    between atoms: C_8  and  O_20
REMARK    5  A    between atoms: C_12  and  O_19
REMARK    6  A    between atoms: C_14  and  O_18
REMARK    7  A    between atoms: O_20  and  C_21
REMARK    8  A    between atoms: C_23  and  O_51
REMARK    9  A    between atoms: C_25  and  O_50
REMARK   10  A    between atoms: C_27  and  O_49
REMARK   11  A    between atoms: C_29  and  C_32
REMARK   12  A    between atoms: C_32  and  O_33
REMARK   13  A    between atoms: O_33  and  C_34
REMARK   14  A    between atoms: C_36  and  O_48
REMARK   15  A    between atoms: C_38  and  O_47
REMARK   16  A    between atoms: C_39  and  O_46
REMARK   17  A    between atoms: C_41  and  C_44
REMARK   18  A    between atoms: C_44  and  O_45
REMARK                            x       y       z     vdW  Elec       q    Type
REMARK                         _______ _______ _______ _____ _____    ______ ____
ROOT
ATOM      1  C   UNL     1       5.724  -3.000  23.359  0.00  0.00    +0.340 C 
ATOM      2  O   UNL     1       4.643  -3.921  23.592  0.00  0.00    -0.331 OA
ATOM      3  C   UNL     1       4.694  -5.302  23.147  0.00  0.00    +0.179 C 
ATOM      4  C   UNL     1       5.901  -5.841  22.347  0.00  0.00    +0.177 C 
ATOM      5  C   UNL     1       7.073  -4.900  22.457  0.00  0.00    +0.180 C 
ATOM      6  C   UNL     1       6.531  -3.499  22.158  0.00  0.00    +0.214 C 
ENDROOT
BRANCH   6   7
ATOM      7  O   UNL     1       5.732  -3.473  20.949  0.00  0.00    -0.383 OA
ATOM      8  H   UNL     1       6.320  -3.272  20.194  0.00  0.00    +0.210 HD
ENDBRANCH   6   7
BRANCH   5   9
ATOM      9  O   UNL     1       7.703  -5.051  23.734  0.00  0.00    -0.386 OA
ATOM     10  H   UNL     1       7.033  -5.128  24.440  0.00  0.00    +0.210 HD
ENDBRANCH   5   9
BRANCH   4  11
ATOM     11  O   UNL     1       5.524  -6.009  20.966  0.00  0.00    -0.386 OA
ATOM     12  H   UNL     1       5.910  -6.875  20.656  0.00  0.00    +0.210 HD
ENDBRANCH   4  11
BRANCH   3  13
ATOM     13  C   UNL     1       4.431  -6.178  24.381  0.00  0.00    +0.197 C 
BRANCH  13  14
ATOM     14  O   UNL     1       5.214  -5.786  25.516  0.00  0.00    -0.346 OA
BRANCH  14  15
ATOM     15  C   UNL     1       4.508  -5.073  26.532  0.00  0.00    +0.282 C 
ATOM     16  O   UNL     1       5.405  -4.274  27.313  0.00  0.00    -0.341 OA
ATOM     17  C   UNL     1       6.347  -4.986  28.126  0.00  0.00    +0.178 C 
ATOM     18  C   UNL     1       5.679  -6.072  28.989  0.00  0.00    +0.177 C 
ATOM     19  C   UNL     1       4.663  -6.911  28.204  0.00  0.00    +0.179 C 
ATOM     20  C   UNL     1       3.691  -6.007  27.439  0.00  0.00    +0.201 C 
BRANCH  20  21
ATOM     21  O   UNL     1       2.870  -5.273  28.363  0.00  0.00    -0.384 OA
ATOM     22  H   UNL     1       2.789  -4.364  27.995  0.00  0.00    +0.210 HD
ENDBRANCH  20  21
BRANCH  19  23
ATOM     23  O   UNL     1       3.921  -7.732  29.123  0.00  0.00    -0.386 OA
ATOM     24  H   UNL     1       3.742  -7.165  29.903  0.00  0.00    +0.210 HD
ENDBRANCH  19  23
BRANCH  18  25
ATOM     25  O   UNL     1       4.965  -5.429  30.065  0.00  0.00    -0.386 OA
ATOM     26  H   UNL     1       4.022  -5.634  29.901  0.00  0.00    +0.210 HD
ENDBRANCH  18  25
BRANCH  17  27
ATOM     27  C   UNL     1       7.545  -5.481  27.301  0.00  0.00    +0.190 C 
BRANCH  27  28
ATOM     28  O   UNL     1       7.960  -4.491  26.368  0.00  0.00    -0.392 OA
ATOM     29  H   UNL     1       8.718  -4.020  26.754  0.00  0.00    +0.210 HD
ENDBRANCH  27  28
ENDBRANCH  17  27
ENDBRANCH  14  15
ENDBRANCH  13  14
ENDBRANCH   3  13
BRANCH   1  30
ATOM     30  O   UNL     1       6.497  -2.775  24.573  0.00  0.00    -0.453 OA
BRANCH  30  41
ATOM     31  C   UNL     1       6.715  -0.365  25.140  0.00  0.00    +0.181 A 
ATOM     32  O   UNL     1       6.301   0.723  25.971  0.00  0.00    -0.451 OA
ATOM     33  C   UNL     1       5.492   0.470  27.062  0.00  0.00    +0.147 A 
ATOM     34  C   UNL     1       4.862  -0.753  27.183  0.00  0.00    +0.109 A 
ATOM     35  C   UNL     1       4.015  -1.065  28.255  0.00  0.00    +0.135 A 
ATOM     36  C   UNL     1       3.749  -0.107  29.201  0.00  0.00    +0.091 A 
ATOM     37  C   UNL     1       4.297   1.168  29.031  0.00  0.00    +0.124 A 
ATOM     38  C   UNL     1       4.882  -1.514  25.978  0.00  0.00    +0.238 A 
ATOM     39  O   UNL     1       3.812  -1.904  25.528  0.00  0.00    -0.283 OA
ATOM     40  C   UNL     1       5.196   1.454  27.989  0.00  0.00    +0.092 A 
ATOM     41  C   UNL     1       6.170  -1.604  25.250  0.00  0.00    +0.214 A 
BRANCH  31  43
ATOM     42  C   UNL     1       9.068   0.050  24.343  0.00  0.00    +0.015 A 
ATOM     43  C   UNL     1       7.677   0.084  24.077  0.00  0.00    +0.025 A 
ATOM     44  C   UNL     1       7.273   0.719  22.890  0.00  0.00    +0.060 A 
ATOM     45  C   UNL     1       8.211   1.334  22.059  0.00  0.00    +0.159 A 
ATOM     46  C   UNL     1       9.565   1.339  22.379  0.00  0.00    +0.158 A 
ATOM     47  C   UNL     1      10.007   0.677  23.509  0.00  0.00    +0.050 A 
BRANCH  46  48
ATOM     48  O   UNL     1      10.412   2.038  21.564  0.00  0.00    -0.503 OA
ATOM     49  H   UNL     1       9.877   2.644  21.023  0.00  0.00    +0.292 HD
ENDBRANCH  46  48
BRANCH  45  50
ATOM     50  O   UNL     1       7.779   1.982  20.930  0.00  0.00    -0.503 OA
ATOM     51  H   UNL     1       7.739   1.276  20.248  0.00  0.00    +0.292 HD
ENDBRANCH  45  50
ENDBRANCH  31  43
BRANCH  37  52
ATOM     52  O   UNL     1       3.926   2.194  29.856  0.00  0.00    -0.507 OA
ATOM     53  H   UNL     1       4.430   2.107  30.687  0.00  0.00    +0.292 HD
ENDBRANCH  37  52
BRANCH  35  54
ATOM     54  O   UNL     1       3.416  -2.283  28.397  0.00  0.00    -0.506 OA
ATOM     55  H   UNL     1       2.468  -2.207  28.172  0.00  0.00    +0.292 HD
ENDBRANCH  35  54
ENDBRANCH  30  41
ENDBRANCH   1  30
TORSDOF 18
ENDMDL
