MODEL 1
REMARK VINA RESULT:      -7.3      0.000      0.000
REMARK  Name = 
REMARK  17 active torsions:
REMARK  status: ('A' for Active; 'I' for Inactive)
REMARK    1  A    between atoms: C_1  and  C_2
REMARK    2  A    between atoms: C_4  and  O_53
REMARK    3  A    between atoms: C_6  and  O_52
REMARK    4  A    between atoms: C_8  and  O_51
REMARK    5  A    between atoms: C_10  and  O_13
REMARK    6  A    between atoms: O_13  and  C_14
REMARK    7  A    between atoms: C_15  and  C_27
REMARK    8  A    between atoms: C_19  and  O_26
REMARK    9  A    between atoms: C_21  and  O_25
REMARK   10  A    between atoms: C_29  and  O_34
REMARK   11  A    between atoms: C_30  and  O_33
REMARK   12  A    between atoms: O_34  and  C_35
REMARK   13  A    between atoms: C_37  and  O_50
REMARK   14  A    between atoms: C_39  and  O_49
REMARK   15  A    between atoms: C_41  and  O_48
REMARK   16  A    between atoms: C_43  and  C_46
REMARK   17  A    between atoms: C_46  and  O_47
REMARK                            x       y       z     vdW  Elec       q    Type
REMARK                         _______ _______ _______ _____ _____    ______ ____
ROOT
ATOM      1  C   UNL     1       8.704   3.109  24.300  0.00  0.00    +0.237 C 
ATOM      2  C   UNL     1       9.171   4.556  24.484  0.00  0.00    +0.203 C 
ATOM      3  O   UNL     1       8.393   5.452  24.818  0.00  0.00    -0.289 OA
ATOM      4  C   UNL     1      10.567   4.882  24.124  0.00  0.00    +0.103 A 
ATOM      5  C   UNL     1      11.262   3.960  23.346  0.00  0.00    +0.139 A 
ATOM      6  C   UNL     1      12.474   4.328  22.757  0.00  0.00    +0.092 A 
ATOM      7  C   UNL     1      13.000   5.593  23.001  0.00  0.00    +0.124 A 
ATOM      8  C   UNL     1      12.363   6.482  23.858  0.00  0.00    +0.091 A 
ATOM      9  O   UNL     1      10.800   2.706  23.061  0.00  0.00    -0.480 OA
ATOM     10  C   UNL     1      11.144   6.122  24.425  0.00  0.00    +0.134 A 
ATOM     11  C   UNL     1       9.904   2.180  24.060  0.00  0.00    +0.240 C 
ENDROOT
BRANCH  11  12
ATOM     12  C   UNL     1       9.429   0.800  23.583  0.00  0.00    -0.001 A 
ATOM     13  C   UNL     1       9.012   0.594  22.254  0.00  0.00    +0.011 A 
ATOM     14  C   UNL     1       8.608  -0.668  21.823  0.00  0.00    +0.049 A 
ATOM     15  C   UNL     1       8.632  -1.731  22.714  0.00  0.00    +0.159 A 
ATOM     16  C   UNL     1       8.994  -1.559  24.054  0.00  0.00    +0.166 A 
ATOM     17  C   UNL     1       9.373  -0.285  24.487  0.00  0.00    +0.057 A 
BRANCH  15  18
ATOM     18  O   UNL     1       8.297  -2.970  22.237  0.00  0.00    -0.503 OA
ATOM     19  H   UNL     1       8.948  -3.590  22.621  0.00  0.00    +0.292 HD
ENDBRANCH  15  18
BRANCH  16  20
ATOM     20  O   UNL     1       8.936  -2.706  24.800  0.00  0.00    -0.457 OA
BRANCH  20  21
ATOM     21  C   UNL     1       8.323  -2.682  26.089  0.00  0.00    +0.339 C 
ATOM     22  O   UNL     1       8.758  -3.802  26.880  0.00  0.00    -0.331 OA
ATOM     23  C   UNL     1       8.305  -5.106  26.477  0.00  0.00    +0.179 C 
ATOM     24  C   UNL     1       6.777  -5.160  26.295  0.00  0.00    +0.177 C 
ATOM     25  C   UNL     1       6.265  -4.005  25.421  0.00  0.00    +0.180 C 
ATOM     26  C   UNL     1       6.785  -2.656  25.952  0.00  0.00    +0.214 C 
BRANCH  26  27
ATOM     27  O   UNL     1       6.178  -2.364  27.220  0.00  0.00    -0.383 OA
ATOM     28  H   UNL     1       6.163  -1.386  27.307  0.00  0.00    +0.210 HD
ENDBRANCH  26  27
BRANCH  25  29
ATOM     29  O   UNL     1       6.589  -4.249  24.052  0.00  0.00    -0.386 OA
ATOM     30  H   UNL     1       7.157  -3.529  23.714  0.00  0.00    +0.210 HD
ENDBRANCH  25  29
BRANCH  24  31
ATOM     31  O   UNL     1       6.174  -5.062  27.600  0.00  0.00    -0.386 OA
ATOM     32  H   UNL     1       6.897  -4.956  28.246  0.00  0.00    +0.210 HD
ENDBRANCH  24  31
BRANCH  23  33
ATOM     33  C   UNL     1       9.080  -5.668  25.271  0.00  0.00    +0.190 C 
BRANCH  33  34
ATOM     34  O   UNL     1      10.454  -5.283  25.290  0.00  0.00    -0.392 OA
ATOM     35  H   UNL     1      10.544  -4.520  25.889  0.00  0.00    +0.210 HD
ENDBRANCH  33  34
ENDBRANCH  23  33
ENDBRANCH  20  21
ENDBRANCH  16  20
ENDBRANCH  11  12
BRANCH  10  36
ATOM     36  O   UNL     1      10.530   6.988  25.281  0.00  0.00    -0.506 OA
ATOM     37  H   UNL     1       9.966   6.501  25.902  0.00  0.00    +0.292 HD
ENDBRANCH  10  36
BRANCH   7  38
ATOM     38  O   UNL     1      14.153   6.014  22.409  0.00  0.00    -0.507 OA
ATOM     39  H   UNL     1      13.938   6.686  21.739  0.00  0.00    +0.292 HD
ENDBRANCH   7  38
BRANCH   1  40
ATOM     40  O   UNL     1       7.950   2.604  25.405  0.00  0.00    -0.333 OA
BRANCH  40  44
ATOM     41  C   UNL     1       4.363   4.953  25.740  0.00  0.00    +0.041 C 
ATOM     42  C   UNL     1       4.813   3.860  26.705  0.00  0.00    +0.149 C 
ATOM     43  O   UNL     1       6.200   3.519  26.560  0.00  0.00    -0.343 OA
ATOM     44  C   UNL     1       6.533   2.802  25.360  0.00  0.00    +0.283 C 
ATOM     45  C   UNL     1       5.735   1.469  25.267  0.00  0.00    +0.201 C 
ATOM     46  C   UNL     1       4.233   1.721  25.445  0.00  0.00    +0.179 C 
ATOM     47  C   UNL     1       3.969   2.576  26.688  0.00  0.00    +0.174 C 
BRANCH  47  48
ATOM     48  O   UNL     1       4.314   1.805  27.855  0.00  0.00    -0.387 OA
ATOM     49  H   UNL     1       3.483   1.555  28.298  0.00  0.00    +0.210 HD
ENDBRANCH  47  48
BRANCH  46  50
ATOM     50  O   UNL     1       3.641   2.301  24.271  0.00  0.00    -0.386 OA
ATOM     51  H   UNL     1       3.926   1.830  23.470  0.00  0.00    +0.210 HD
ENDBRANCH  46  50
BRANCH  45  52
ATOM     52  O   UNL     1       5.930   0.738  24.047  0.00  0.00    -0.384 OA
ATOM     53  H   UNL     1       5.124   0.213  23.874  0.00  0.00    +0.210 HD
ENDBRANCH  45  52
ENDBRANCH  40  44
ENDBRANCH   1  40
TORSDOF 16
ENDMDL
MODEL 2
REMARK VINA RESULT:      -7.2      2.367      8.224
REMARK  Name = 
REMARK  17 active torsions:
REMARK  status: ('A' for Active; 'I' for Inactive)
REMARK    1  A    between atoms: C_1  and  C_2
REMARK    2  A    between atoms: C_4  and  O_53
REMARK    3  A    between atoms: C_6  and  O_52
REMARK    4  A    between atoms: C_8  and  O_51
REMARK    5  A    between atoms: C_10  and  O_13
REMARK    6  A    between atoms: O_13  and  C_14
REMARK    7  A    between atoms: C_15  and  C_27
REMARK    8  A    between atoms: C_19  and  O_26
REMARK    9  A    between atoms: C_21  and  O_25
REMARK   10  A    between atoms: C_29  and  O_34
REMARK   11  A    between atoms: C_30  and  O_33
REMARK   12  A    between atoms: O_34  and  C_35
REMARK   13  A    between atoms: C_37  and  O_50
REMARK   14  A    between atoms: C_39  and  O_49
REMARK   15  A    between atoms: C_41  and  O_48
REMARK   16  A    between atoms: C_43  and  C_46
REMARK   17  A    between atoms: C_46  and  O_47
REMARK                            x       y       z     vdW  Elec       q    Type
REMARK                         _______ _______ _______ _____ _____    ______ ____
ROOT
ATOM      1  C   UNL     1       8.131  -2.186  25.457  0.00  0.00    +0.237 C 
ATOM      2  C   UNL     1       7.533  -3.596  25.408  0.00  0.00    +0.203 C 
ATOM      3  O   UNL     1       7.630  -4.376  26.357  0.00  0.00    -0.289 OA
ATOM      4  C   UNL     1       6.939  -4.050  24.133  0.00  0.00    +0.103 A 
ATOM      5  C   UNL     1       7.246  -3.321  22.986  0.00  0.00    +0.139 A 
ATOM      6  C   UNL     1       6.938  -3.849  21.730  0.00  0.00    +0.092 A 
ATOM      7  C   UNL     1       6.278  -5.072  21.641  0.00  0.00    +0.124 A 
ATOM      8  C   UNL     1       5.878  -5.756  22.783  0.00  0.00    +0.091 A 
ATOM      9  O   UNL     1       7.898  -2.121  23.001  0.00  0.00    -0.480 OA
ATOM     10  C   UNL     1       6.207  -5.239  24.033  0.00  0.00    +0.134 A 
ATOM     11  C   UNL     1       7.710  -1.377  24.221  0.00  0.00    +0.240 C 
ENDROOT
BRANCH  11  12
ATOM     12  C   UNL     1       8.537  -0.087  24.116  0.00  0.00    -0.001 A 
ATOM     13  C   UNL     1       9.937  -0.109  24.257  0.00  0.00    +0.011 A 
ATOM     14  C   UNL     1      10.682   1.063  24.132  0.00  0.00    +0.049 A 
ATOM     15  C   UNL     1      10.032   2.256  23.855  0.00  0.00    +0.159 A 
ATOM     16  C   UNL     1       8.639   2.328  23.754  0.00  0.00    +0.166 A 
ATOM     17  C   UNL     1       7.895   1.154  23.905  0.00  0.00    +0.057 A 
BRANCH  15  18
ATOM     18  O   UNL     1      10.802   3.374  23.669  0.00  0.00    -0.503 OA
ATOM     19  H   UNL     1      11.624   3.064  23.240  0.00  0.00    +0.292 HD
ENDBRANCH  15  18
BRANCH  16  20
ATOM     20  O   UNL     1       8.161   3.587  23.503  0.00  0.00    -0.457 OA
BRANCH  20  21
ATOM     21  C   UNL     1       7.223   3.792  22.447  0.00  0.00    +0.339 C 
ATOM     22  O   UNL     1       7.560   4.966  21.689  0.00  0.00    -0.331 OA
ATOM     23  C   UNL     1       7.395   6.238  22.339  0.00  0.00    +0.179 C 
ATOM     24  C   UNL     1       5.991   6.400  22.952  0.00  0.00    +0.177 C 
ATOM     25  C   UNL     1       5.599   5.186  23.808  0.00  0.00    +0.180 C 
ATOM     26  C   UNL     1       5.789   3.881  23.011  0.00  0.00    +0.214 C 
BRANCH  26  27
ATOM     27  O   UNL     1       4.830   3.818  21.944  0.00  0.00    -0.383 OA
ATOM     28  H   UNL     1       4.943   2.942  21.514  0.00  0.00    +0.210 HD
ENDBRANCH  26  27
BRANCH  25  29
ATOM     29  O   UNL     1       6.310   5.212  25.046  0.00  0.00    -0.386 OA
ATOM     30  H   UNL     1       5.872   5.827  25.666  0.00  0.00    +0.210 HD
ENDBRANCH  25  29
BRANCH  24  31
ATOM     31  O   UNL     1       5.051   6.532  21.869  0.00  0.00    -0.386 OA
ATOM     32  H   UNL     1       4.371   5.843  21.989  0.00  0.00    +0.210 HD
ENDBRANCH  24  31
BRANCH  23  33
ATOM     33  C   UNL     1       8.530   6.562  23.329  0.00  0.00    +0.190 C 
BRANCH  33  34
ATOM     34  O   UNL     1       9.784   6.035  22.897  0.00  0.00    -0.392 OA
ATOM     35  H   UNL     1       9.982   6.411  22.021  0.00  0.00    +0.210 HD
ENDBRANCH  33  34
ENDBRANCH  23  33
ENDBRANCH  20  21
ENDBRANCH  16  20
ENDBRANCH  11  12
BRANCH  10  36
ATOM     36  O   UNL     1       5.796  -5.901  25.152  0.00  0.00    -0.506 OA
ATOM     37  H   UNL     1       5.918  -6.857  25.038  0.00  0.00    +0.292 HD
ENDBRANCH  10  36
BRANCH   7  38
ATOM     38  O   UNL     1       6.003  -5.650  20.438  0.00  0.00    -0.507 OA
ATOM     39  H   UNL     1       6.489  -5.177  19.741  0.00  0.00    +0.292 HD
ENDBRANCH   7  38
BRANCH   1  40
ATOM     40  O   UNL     1       7.772  -1.451  26.630  0.00  0.00    -0.333 OA
BRANCH  40  44
ATOM     41  C   UNL     1       4.893   1.623  25.757  0.00  0.00    +0.041 C 
ATOM     42  C   UNL     1       5.447   1.277  27.136  0.00  0.00    +0.149 C 
ATOM     43  O   UNL     1       6.645   0.488  27.079  0.00  0.00    -0.343 OA
ATOM     44  C   UNL     1       6.464  -0.871  26.649  0.00  0.00    +0.283 C 
ATOM     45  C   UNL     1       5.478  -1.626  27.587  0.00  0.00    +0.201 C 
ATOM     46  C   UNL     1       4.169  -0.843  27.743  0.00  0.00    +0.179 C 
ATOM     47  C   UNL     1       4.450   0.619  28.101  0.00  0.00    +0.174 C 
BRANCH  47  48
ATOM     48  O   UNL     1       5.019   0.664  29.424  0.00  0.00    -0.387 OA
ATOM     49  H   UNL     1       4.877  -0.207  29.836  0.00  0.00    +0.210 HD
ENDBRANCH  47  48
BRANCH  46  50
ATOM     50  O   UNL     1       3.335  -0.949  26.577  0.00  0.00    -0.386 OA
ATOM     51  H   UNL     1       3.709  -1.579  25.939  0.00  0.00    +0.210 HD
ENDBRANCH  46  50
BRANCH  45  52
ATOM     52  O   UNL     1       5.159  -2.962  27.170  0.00  0.00    -0.384 OA
ATOM     53  H   UNL     1       5.698  -3.173  26.382  0.00  0.00    +0.210 HD
ENDBRANCH  45  52
ENDBRANCH  40  44
ENDBRANCH   1  40
TORSDOF 16
ENDMDL
MODEL 3
REMARK VINA RESULT:      -7.2      1.253      1.957
REMARK  Name = 
REMARK  17 active torsions:
REMARK  status: ('A' for Active; 'I' for Inactive)
REMARK    1  A    between atoms: C_1  and  C_2
REMARK    2  A    between atoms: C_4  and  O_53
REMARK    3  A    between atoms: C_6  and  O_52
REMARK    4  A    between atoms: C_8  and  O_51
REMARK    5  A    between atoms: C_10  and  O_13
REMARK    6  A    between atoms: O_13  and  C_14
REMARK    7  A    between atoms: C_15  and  C_27
REMARK    8  A    between atoms: C_19  and  O_26
REMARK    9  A    between atoms: C_21  and  O_25
REMARK   10  A    between atoms: C_29  and  O_34
REMARK   11  A    between atoms: C_30  and  O_33
REMARK   12  A    between atoms: O_34  and  C_35
REMARK   13  A    between atoms: C_37  and  O_50
REMARK   14  A    between atoms: C_39  and  O_49
REMARK   15  A    between atoms: C_41  and  O_48
REMARK   16  A    between atoms: C_43  and  C_46
REMARK   17  A    between atoms: C_46  and  O_47
REMARK                            x       y       z     vdW  Elec       q    Type
REMARK                         _______ _______ _______ _____ _____    ______ ____
ROOT
ATOM      1  C   UNL     1       7.736   2.824  23.455  0.00  0.00    +0.237 C 
ATOM      2  C   UNL     1       8.125   4.302  23.564  0.00  0.00    +0.203 C 
ATOM      3  O   UNL     1       7.305   5.204  23.389  0.00  0.00    -0.289 OA
ATOM      4  C   UNL     1       9.554   4.627  23.759  0.00  0.00    +0.103 A 
ATOM      5  C   UNL     1      10.483   3.620  23.506  0.00  0.00    +0.139 A 
ATOM      6  C   UNL     1      11.840   3.939  23.414  0.00  0.00    +0.092 A 
ATOM      7  C   UNL     1      12.253   5.250  23.632  0.00  0.00    +0.124 A 
ATOM      8  C   UNL     1      11.344   6.240  23.985  0.00  0.00    +0.091 A 
ATOM      9  O   UNL     1      10.145   2.316  23.276  0.00  0.00    -0.480 OA
ATOM     10  C   UNL     1       9.990   5.924  24.052  0.00  0.00    +0.134 A 
ATOM     11  C   UNL     1       8.902   1.925  23.893  0.00  0.00    +0.240 C 
ENDROOT
BRANCH  11  12
ATOM     12  C   UNL     1       8.628   0.463  23.507  0.00  0.00    -0.001 A 
ATOM     13  C   UNL     1       8.275   0.114  22.191  0.00  0.00    +0.011 A 
ATOM     14  C   UNL     1       8.054  -1.218  21.844  0.00  0.00    +0.049 A 
ATOM     15  C   UNL     1       8.198  -2.205  22.807  0.00  0.00    +0.159 A 
ATOM     16  C   UNL     1       8.502  -1.895  24.138  0.00  0.00    +0.166 A 
ATOM     17  C   UNL     1       8.696  -0.555  24.485  0.00  0.00    +0.057 A 
BRANCH  15  18
ATOM     18  O   UNL     1       8.044  -3.508  22.415  0.00  0.00    -0.503 OA
ATOM     19  H   UNL     1       7.247  -3.835  22.877  0.00  0.00    +0.292 HD
ENDBRANCH  15  18
BRANCH  16  20
ATOM     20  O   UNL     1       8.579  -2.986  24.962  0.00  0.00    -0.457 OA
BRANCH  20  21
ATOM     21  C   UNL     1       7.923  -2.964  26.229  0.00  0.00    +0.339 C 
ATOM     22  O   UNL     1       8.433  -4.002  27.084  0.00  0.00    -0.331 OA
ATOM     23  C   UNL     1       8.117  -5.359  26.728  0.00  0.00    +0.179 C 
ATOM     24  C   UNL     1       6.607  -5.565  26.505  0.00  0.00    +0.177 C 
ATOM     25  C   UNL     1       6.020  -4.503  25.562  0.00  0.00    +0.180 C 
ATOM     26  C   UNL     1       6.396  -3.089  26.046  0.00  0.00    +0.214 C 
BRANCH  26  27
ATOM     27  O   UNL     1       5.721  -2.800  27.281  0.00  0.00    -0.383 OA
ATOM     28  H   UNL     1       6.265  -2.130  27.750  0.00  0.00    +0.210 HD
ENDBRANCH  26  27
BRANCH  25  29
ATOM     29  O   UNL     1       6.412  -4.773  24.217  0.00  0.00    -0.386 OA
ATOM     30  H   UNL     1       7.320  -4.446  24.065  0.00  0.00    +0.210 HD
ENDBRANCH  25  29
BRANCH  24  31
ATOM     31  O   UNL     1       5.955  -5.468  27.784  0.00  0.00    -0.386 OA
ATOM     32  H   UNL     1       4.993  -5.517  27.625  0.00  0.00    +0.210 HD
ENDBRANCH  24  31
BRANCH  23  33
ATOM     33  C   UNL     1       8.981  -5.898  25.573  0.00  0.00    +0.190 C 
BRANCH  33  34
ATOM     34  O   UNL     1      10.327  -5.432  25.649  0.00  0.00    -0.392 OA
ATOM     35  H   UNL     1      10.314  -4.461  25.574  0.00  0.00    +0.210 HD
ENDBRANCH  33  34
ENDBRANCH  23  33
ENDBRANCH  20  21
ENDBRANCH  16  20
ENDBRANCH  11  12
BRANCH  10  36
ATOM     36  O   UNL     1       9.102   6.893  24.419  0.00  0.00    -0.506 OA
ATOM     37  H   UNL     1       8.925   6.841  25.371  0.00  0.00    +0.292 HD
ENDBRANCH  10  36
BRANCH   7  38
ATOM     38  O   UNL     1      13.559   5.618  23.504  0.00  0.00    -0.507 OA
ATOM     39  H   UNL     1      13.667   6.525  23.839  0.00  0.00    +0.292 HD
ENDBRANCH   7  38
BRANCH   1  40
ATOM     40  O   UNL     1       6.579   2.478  24.221  0.00  0.00    -0.333 OA
BRANCH  40  44
ATOM     41  C   UNL     1       7.669   0.328  27.783  0.00  0.00    +0.041 C 
ATOM     42  C   UNL     1       6.253   0.720  27.368  0.00  0.00    +0.149 C 
ATOM     43  O   UNL     1       6.154   1.083  25.984  0.00  0.00    -0.343 OA
ATOM     44  C   UNL     1       6.762   2.337  25.634  0.00  0.00    +0.283 C 
ATOM     45  C   UNL     1       6.135   3.507  26.446  0.00  0.00    +0.201 C 
ATOM     46  C   UNL     1       6.162   3.201  27.948  0.00  0.00    +0.179 C 
ATOM     47  C   UNL     1       5.591   1.807  28.229  0.00  0.00    +0.174 C 
BRANCH  47  48
ATOM     48  O   UNL     1       4.184   1.819  27.921  0.00  0.00    -0.387 OA
ATOM     49  H   UNL     1       3.938   0.921  27.632  0.00  0.00    +0.210 HD
ENDBRANCH  47  48
BRANCH  46  50
ATOM     50  O   UNL     1       7.477   3.353  28.507  0.00  0.00    -0.386 OA
ATOM     51  H   UNL     1       8.111   2.763  28.066  0.00  0.00    +0.210 HD
ENDBRANCH  46  50
BRANCH  45  52
ATOM     52  O   UNL     1       6.756   4.784  26.234  0.00  0.00    -0.384 OA
ATOM     53  H   UNL     1       7.681   4.632  25.958  0.00  0.00    +0.210 HD
ENDBRANCH  45  52
ENDBRANCH  40  44
ENDBRANCH   1  40
TORSDOF 16
ENDMDL
MODEL 4
REMARK VINA RESULT:      -6.9      2.573      6.343
REMARK  Name = 
REMARK  17 active torsions:
REMARK  status: ('A' for Active; 'I' for Inactive)
REMARK    1  A    between atoms: C_1  and  C_2
REMARK    2  A    between atoms: C_4  and  O_53
REMARK    3  A    between atoms: C_6  and  O_52
REMARK    4  A    between atoms: C_8  and  O_51
REMARK    5  A    between atoms: C_10  and  O_13
REMARK    6  A    between atoms: O_13  and  C_14
REMARK    7  A    between atoms: C_15  and  C_27
REMARK    8  A    between atoms: C_19  and  O_26
REMARK    9  A    between atoms: C_21  and  O_25
REMARK   10  A    between atoms: C_29  and  O_34
REMARK   11  A    between atoms: C_30  and  O_33
REMARK   12  A    between atoms: O_34  and  C_35
REMARK   13  A    between atoms: C_37  and  O_50
REMARK   14  A    between atoms: C_39  and  O_49
REMARK   15  A    between atoms: C_41  and  O_48
REMARK   16  A    between atoms: C_43  and  C_46
REMARK   17  A    between atoms: C_46  and  O_47
REMARK                            x       y       z     vdW  Elec       q    Type
REMARK                         _______ _______ _______ _____ _____    ______ ____
ROOT
ATOM      1  C   UNL     1       6.949  -1.000  24.132  0.00  0.00    +0.237 C 
ATOM      2  C   UNL     1       8.044  -0.492  23.189  0.00  0.00    +0.203 C 
ATOM      3  O   UNL     1       8.652  -1.250  22.431  0.00  0.00    -0.289 OA
ATOM      4  C   UNL     1       8.449   0.925  23.301  0.00  0.00    +0.103 A 
ATOM      5  C   UNL     1       8.063   1.615  24.447  0.00  0.00    +0.139 A 
ATOM      6  C   UNL     1       8.634   2.858  24.731  0.00  0.00    +0.092 A 
ATOM      7  C   UNL     1       9.541   3.417  23.835  0.00  0.00    +0.124 A 
ATOM      8  C   UNL     1       9.854   2.782  22.640  0.00  0.00    +0.091 A 
ATOM      9  O   UNL     1       7.185   1.121  25.371  0.00  0.00    -0.480 OA
ATOM     10  C   UNL     1       9.301   1.533  22.371  0.00  0.00    +0.134 A 
ATOM     11  C   UNL     1       6.244   0.176  24.824  0.00  0.00    +0.240 C 
ENDROOT
BRANCH  11  12
ATOM     12  C   UNL     1       5.364  -0.329  25.978  0.00  0.00    -0.001 A 
ATOM     13  C   UNL     1       4.369   0.489  26.544  0.00  0.00    +0.011 A 
ATOM     14  C   UNL     1       3.557   0.013  27.573  0.00  0.00    +0.049 A 
ATOM     15  C   UNL     1       3.728  -1.285  28.029  0.00  0.00    +0.159 A 
ATOM     16  C   UNL     1       4.736  -2.114  27.525  0.00  0.00    +0.166 A 
ATOM     17  C   UNL     1       5.565  -1.622  26.513  0.00  0.00    +0.057 A 
BRANCH  15  18
ATOM     18  O   UNL     1       2.867  -1.742  28.990  0.00  0.00    -0.503 OA
ATOM     19  H   UNL     1       3.171  -2.643  29.216  0.00  0.00    +0.292 HD
ENDBRANCH  15  18
BRANCH  16  20
ATOM     20  O   UNL     1       4.783  -3.353  28.107  0.00  0.00    -0.457 OA
BRANCH  20  21
ATOM     21  C   UNL     1       5.244  -4.473  27.351  0.00  0.00    +0.339 C 
ATOM     22  O   UNL     1       4.176  -5.408  27.125  0.00  0.00    -0.331 OA
ATOM     23  C   UNL     1       3.687  -6.136  28.265  0.00  0.00    +0.179 C 
ATOM     24  C   UNL     1       4.822  -6.823  29.047  0.00  0.00    +0.177 C 
ATOM     25  C   UNL     1       5.973  -5.852  29.351  0.00  0.00    +0.180 C 
ATOM     26  C   UNL     1       6.437  -5.147  28.062  0.00  0.00    +0.214 C 
BRANCH  26  27
ATOM     27  O   UNL     1       7.068  -6.095  27.187  0.00  0.00    -0.383 OA
ATOM     28  H   UNL     1       7.100  -6.948  27.671  0.00  0.00    +0.210 HD
ENDBRANCH  26  27
BRANCH  25  29
ATOM     29  O   UNL     1       5.592  -4.954  30.393  0.00  0.00    -0.386 OA
ATOM     30  H   UNL     1       5.479  -4.054  30.030  0.00  0.00    +0.210 HD
ENDBRANCH  25  29
BRANCH  24  31
ATOM     31  O   UNL     1       5.322  -7.904  28.238  0.00  0.00    -0.386 OA
ATOM     32  H   UNL     1       5.624  -8.606  28.845  0.00  0.00    +0.210 HD
ENDBRANCH  24  31
BRANCH  23  33
ATOM     33  C   UNL     1       2.753  -5.299  29.159  0.00  0.00    +0.190 C 
BRANCH  33  34
ATOM     34  O   UNL     1       1.953  -4.394  28.400  0.00  0.00    -0.392 OA
ATOM     35  H   UNL     1       1.849  -4.763  27.505  0.00  0.00    +0.210 HD
ENDBRANCH  33  34
ENDBRANCH  23  33
ENDBRANCH  20  21
ENDBRANCH  16  20
ENDBRANCH  11  12
BRANCH  10  36
ATOM     36  O   UNL     1       9.594   0.920  21.188  0.00  0.00    -0.506 OA
ATOM     37  H   UNL     1       8.846   0.999  20.576  0.00  0.00    +0.292 HD
ENDBRANCH  10  36
BRANCH   7  38
ATOM     38  O   UNL     1      10.162   4.603  24.093  0.00  0.00    -0.507 OA
ATOM     39  H   UNL     1       9.741   5.302  23.565  0.00  0.00    +0.292 HD
ENDBRANCH   7  38
BRANCH   1  40
ATOM     40  O   UNL     1       5.963  -1.808  23.485  0.00  0.00    -0.333 OA
BRANCH  40  44
ATOM     41  C   UNL     1       8.225  -5.445  23.869  0.00  0.00    +0.041 C 
ATOM     42  C   UNL     1       7.436  -5.004  22.639  0.00  0.00    +0.149 C 
ATOM     43  O   UNL     1       7.105  -3.608  22.655  0.00  0.00    -0.343 OA
ATOM     44  C   UNL     1       6.106  -3.226  23.615  0.00  0.00    +0.283 C 
ATOM     45  C   UNL     1       4.776  -3.996  23.372  0.00  0.00    +0.201 C 
ATOM     46  C   UNL     1       5.027  -5.507  23.304  0.00  0.00    +0.179 C 
ATOM     47  C   UNL     1       6.173  -5.824  22.338  0.00  0.00    +0.174 C 
BRANCH  47  48
ATOM     48  O   UNL     1       5.745  -5.501  21.000  0.00  0.00    -0.387 OA
ATOM     49  H   UNL     1       4.792  -5.302  21.036  0.00  0.00    +0.210 HD
ENDBRANCH  47  48
BRANCH  46  50
ATOM     50  O   UNL     1       5.262  -6.074  24.603  0.00  0.00    -0.386 OA
ATOM     51  H   UNL     1       5.705  -6.935  24.530  0.00  0.00    +0.210 HD
ENDBRANCH  46  50
BRANCH  45  52
ATOM     52  O   UNL     1       3.754  -3.750  24.351  0.00  0.00    -0.384 OA
ATOM     53  H   UNL     1       2.885  -3.854  23.916  0.00  0.00    +0.210 HD
ENDBRANCH  45  52
ENDBRANCH  40  44
ENDBRANCH   1  40
TORSDOF 16
ENDMDL
MODEL 5
REMARK VINA RESULT:      -6.9      2.469      5.858
REMARK  Name = 
REMARK  17 active torsions:
REMARK  status: ('A' for Active; 'I' for Inactive)
REMARK    1  A    between atoms: C_1  and  C_2
REMARK    2  A    between atoms: C_4  and  O_53
REMARK    3  A    between atoms: C_6  and  O_52
REMARK    4  A    between atoms: C_8  and  O_51
REMARK    5  A    between atoms: C_10  and  O_13
REMARK    6  A    between atoms: O_13  and  C_14
REMARK    7  A    between atoms: C_15  and  C_27
REMARK    8  A    between atoms: C_19  and  O_26
REMARK    9  A    between atoms: C_21  and  O_25
REMARK   10  A    between atoms: C_29  and  O_34
REMARK   11  A    between atoms: C_30  and  O_33
REMARK   12  A    between atoms: O_34  and  C_35
REMARK   13  A    between atoms: C_37  and  O_50
REMARK   14  A    between atoms: C_39  and  O_49
REMARK   15  A    between atoms: C_41  and  O_48
REMARK   16  A    between atoms: C_43  and  C_46
REMARK   17  A    between atoms: C_46  and  O_47
REMARK                            x       y       z     vdW  Elec       q    Type
REMARK                         _______ _______ _______ _____ _____    ______ ____
ROOT
ATOM      1  C   UNL     1       6.279   2.904  25.409  0.00  0.00    +0.237 C 
ATOM      2  C   UNL     1       6.081   4.296  24.803  0.00  0.00    +0.203 C 
ATOM      3  O   UNL     1       6.684   5.283  25.230  0.00  0.00    -0.289 OA
ATOM      4  C   UNL     1       5.041   4.456  23.764  0.00  0.00    +0.103 A 
ATOM      5  C   UNL     1       4.100   3.438  23.636  0.00  0.00    +0.139 A 
ATOM      6  C   UNL     1       2.952   3.650  22.868  0.00  0.00    +0.092 A 
ATOM      7  C   UNL     1       2.791   4.858  22.194  0.00  0.00    +0.124 A 
ATOM      8  C   UNL     1       3.774   5.839  22.235  0.00  0.00    +0.091 A 
ATOM      9  O   UNL     1       4.192   2.233  24.274  0.00  0.00    -0.480 OA
ATOM     10  C   UNL     1       4.905   5.634  23.020  0.00  0.00    +0.134 A 
ATOM     11  C   UNL     1       5.547   1.842  24.574  0.00  0.00    +0.240 C 
ENDROOT
BRANCH  11  12
ATOM     12  C   UNL     1       5.491   0.507  25.332  0.00  0.00    -0.001 A 
ATOM     13  C   UNL     1       5.272   0.469  26.721  0.00  0.00    +0.011 A 
ATOM     14  C   UNL     1       5.197  -0.749  27.396  0.00  0.00    +0.049 A 
ATOM     15  C   UNL     1       5.327  -1.931  26.683  0.00  0.00    +0.159 A 
ATOM     16  C   UNL     1       5.592  -1.936  25.309  0.00  0.00    +0.166 A 
ATOM     17  C   UNL     1       5.693  -0.711  24.643  0.00  0.00    +0.057 A 
BRANCH  15  18
ATOM     18  O   UNL     1       5.176  -3.108  27.367  0.00  0.00    -0.503 OA
ATOM     19  H   UNL     1       4.761  -3.731  26.738  0.00  0.00    +0.292 HD
ENDBRANCH  15  18
BRANCH  16  20
ATOM     20  O   UNL     1       5.719  -3.187  24.769  0.00  0.00    -0.457 OA
BRANCH  20  21
ATOM     21  C   UNL     1       5.151  -3.467  23.490  0.00  0.00    +0.339 C 
ATOM     22  O   UNL     1       4.326  -4.643  23.546  0.00  0.00    -0.331 OA
ATOM     23  C   UNL     1       4.991  -5.904  23.739  0.00  0.00    +0.179 C 
ATOM     24  C   UNL     1       6.134  -6.119  22.730  0.00  0.00    +0.177 C 
ATOM     25  C   UNL     1       7.071  -4.903  22.662  0.00  0.00    +0.180 C 
ATOM     26  C   UNL     1       6.262  -3.613  22.428  0.00  0.00    +0.214 C 
BRANCH  26  27
ATOM     27  O   UNL     1       5.693  -3.626  21.110  0.00  0.00    -0.383 OA
ATOM     28  H   UNL     1       5.453  -4.558  20.916  0.00  0.00    +0.210 HD
ENDBRANCH  26  27
BRANCH  25  29
ATOM     29  O   UNL     1       7.900  -4.860  23.824  0.00  0.00    -0.386 OA
ATOM     30  H   UNL     1       8.475  -4.071  23.791  0.00  0.00    +0.210 HD
ENDBRANCH  25  29
BRANCH  24  31
ATOM     31  O   UNL     1       5.543  -6.327  21.434  0.00  0.00    -0.386 OA
ATOM     32  H   UNL     1       5.843  -7.200  21.115  0.00  0.00    +0.210 HD
ENDBRANCH  24  31
BRANCH  23  33
ATOM     33  C   UNL     1       5.417  -6.144  25.200  0.00  0.00    +0.190 C 
BRANCH  33  34
ATOM     34  O   UNL     1       4.478  -5.603  26.128  0.00  0.00    -0.392 OA
ATOM     35  H   UNL     1       4.179  -4.742  25.785  0.00  0.00    +0.210 HD
ENDBRANCH  33  34
ENDBRANCH  23  33
ENDBRANCH  20  21
ENDBRANCH  16  20
ENDBRANCH  11  12
BRANCH  10  36
ATOM     36  O   UNL     1       5.878   6.590  23.043  0.00  0.00    -0.506 OA
ATOM     37  H   UNL     1       5.504   7.440  23.322  0.00  0.00    +0.292 HD
ENDBRANCH  10  36
BRANCH   7  38
ATOM     38  O   UNL     1       1.666   5.130  21.474  0.00  0.00    -0.507 OA
ATOM     39  H   UNL     1       1.119   5.763  21.970  0.00  0.00    +0.292 HD
ENDBRANCH   7  38
BRANCH   1  40
ATOM     40  O   UNL     1       7.651   2.522  25.532  0.00  0.00    -0.333 OA
BRANCH  40  44
ATOM     41  C   UNL     1       8.442  -0.487  22.563  0.00  0.00    +0.041 C 
ATOM     42  C   UNL     1       9.411  -0.016  23.643  0.00  0.00    +0.149 C 
ATOM     43  O   UNL     1       8.764   0.702  24.704  0.00  0.00    -0.343 OA
ATOM     44  C   UNL     1       8.285   2.011  24.355  0.00  0.00    +0.283 C 
ATOM     45  C   UNL     1       9.448   2.915  23.851  0.00  0.00    +0.201 C 
ATOM     46  C   UNL     1      10.231   2.219  22.731  0.00  0.00    +0.179 C 
ATOM     47  C   UNL     1      10.615   0.794  23.141  0.00  0.00    +0.174 C 
BRANCH  47  48
ATOM     48  O   UNL     1      11.575   0.871  24.213  0.00  0.00    -0.387 OA
ATOM     49  H   UNL     1      12.429   0.555  23.867  0.00  0.00    +0.210 HD
ENDBRANCH  47  48
BRANCH  46  50
ATOM     50  O   UNL     1       9.516   2.233  21.485  0.00  0.00    -0.386 OA
ATOM     51  H   UNL     1       9.307   3.143  21.215  0.00  0.00    +0.210 HD
ENDBRANCH  46  50
BRANCH  45  52
ATOM     52  O   UNL     1       9.042   4.210  23.383  0.00  0.00    -0.384 OA
ATOM     53  H   UNL     1       8.973   4.805  24.155  0.00  0.00    +0.210 HD
ENDBRANCH  45  52
ENDBRANCH  40  44
ENDBRANCH   1  40
TORSDOF 16
ENDMDL
MODEL 6
REMARK VINA RESULT:      -6.8      2.116      5.717
REMARK  Name = 
REMARK  17 active torsions:
REMARK  status: ('A' for Active; 'I' for Inactive)
REMARK    1  A    between atoms: C_1  and  C_2
REMARK    2  A    between atoms: C_4  and  O_53
REMARK    3  A    between atoms: C_6  and  O_52
REMARK    4  A    between atoms: C_8  and  O_51
REMARK    5  A    between atoms: C_10  and  O_13
REMARK    6  A    between atoms: O_13  and  C_14
REMARK    7  A    between atoms: C_15  and  C_27
REMARK    8  A    between atoms: C_19  and  O_26
REMARK    9  A    between atoms: C_21  and  O_25
REMARK   10  A    between atoms: C_29  and  O_34
REMARK   11  A    between atoms: C_30  and  O_33
REMARK   12  A    between atoms: O_34  and  C_35
REMARK   13  A    between atoms: C_37  and  O_50
REMARK   14  A    between atoms: C_39  and  O_49
REMARK   15  A    between atoms: C_41  and  O_48
REMARK   16  A    between atoms: C_43  and  C_46
REMARK   17  A    between atoms: C_46  and  O_47
REMARK                            x       y       z     vdW  Elec       q    Type
REMARK                         _______ _______ _______ _____ _____    ______ ____
ROOT
ATOM      1  C   UNL     1       6.116   3.016  25.606  0.00  0.00    +0.237 C 
ATOM      2  C   UNL     1       5.960   4.330  24.835  0.00  0.00    +0.203 C 
ATOM      3  O   UNL     1       6.619   5.332  25.119  0.00  0.00    -0.289 OA
ATOM      4  C   UNL     1       4.894   4.409  23.814  0.00  0.00    +0.103 A 
ATOM      5  C   UNL     1       3.905   3.429  23.840  0.00  0.00    +0.139 A 
ATOM      6  C   UNL     1       2.743   3.600  23.083  0.00  0.00    +0.092 A 
ATOM      7  C   UNL     1       2.614   4.721  22.268  0.00  0.00    +0.124 A 
ATOM      8  C   UNL     1       3.640   5.651  22.158  0.00  0.00    +0.091 A 
ATOM      9  O   UNL     1       3.965   2.310  24.623  0.00  0.00    -0.480 OA
ATOM     10  C   UNL     1       4.786   5.490  22.932  0.00  0.00    +0.134 A 
ATOM     11  C   UNL     1       5.310   1.895  24.932  0.00  0.00    +0.240 C 
ENDROOT
BRANCH  11  12
ATOM     12  C   UNL     1       5.221   0.669  25.853  0.00  0.00    -0.001 A 
ATOM     13  C   UNL     1       4.546   0.734  27.086  0.00  0.00    +0.011 A 
ATOM     14  C   UNL     1       4.447  -0.392  27.903  0.00  0.00    +0.049 A 
ATOM     15  C   UNL     1       5.010  -1.588  27.484  0.00  0.00    +0.159 A 
ATOM     16  C   UNL     1       5.729  -1.683  26.288  0.00  0.00    +0.166 A 
ATOM     17  C   UNL     1       5.848  -0.544  25.486  0.00  0.00    +0.057 A 
BRANCH  15  18
ATOM     18  O   UNL     1       4.832  -2.689  28.278  0.00  0.00    -0.503 OA
ATOM     19  H   UNL     1       5.694  -3.150  28.295  0.00  0.00    +0.292 HD
ENDBRANCH  15  18
BRANCH  16  20
ATOM     20  O   UNL     1       6.241  -2.929  26.040  0.00  0.00    -0.457 OA
BRANCH  20  21
ATOM     21  C   UNL     1       7.631  -3.178  26.249  0.00  0.00    +0.339 C 
ATOM     22  O   UNL     1       8.383  -2.889  25.058  0.00  0.00    -0.331 OA
ATOM     23  C   UNL     1       8.199  -3.769  23.936  0.00  0.00    +0.179 C 
ATOM     24  C   UNL     1       8.381  -5.249  24.321  0.00  0.00    +0.177 C 
ATOM     25  C   UNL     1       7.562  -5.619  25.567  0.00  0.00    +0.180 C 
ATOM     26  C   UNL     1       7.852  -4.633  26.714  0.00  0.00    +0.214 C 
BRANCH  26  27
ATOM     27  O   UNL     1       9.200  -4.807  27.179  0.00  0.00    -0.383 OA
ATOM     28  H   UNL     1       9.782  -4.739  26.390  0.00  0.00    +0.210 HD
ENDBRANCH  26  27
BRANCH  25  29
ATOM     29  O   UNL     1       6.178  -5.719  25.230  0.00  0.00    -0.386 OA
ATOM     30  H   UNL     1       6.082  -5.878  24.271  0.00  0.00    +0.210 HD
ENDBRANCH  25  29
BRANCH  24  31
ATOM     31  O   UNL     1       9.778  -5.464  24.598  0.00  0.00    -0.386 OA
ATOM     32  H   UNL     1      10.284  -5.051  23.873  0.00  0.00    +0.210 HD
ENDBRANCH  24  31
BRANCH  23  33
ATOM     33  C   UNL     1       6.893  -3.499  23.165  0.00  0.00    +0.190 C 
BRANCH  33  34
ATOM     34  O   UNL     1       6.481  -4.628  22.396  0.00  0.00    -0.392 OA
ATOM     35  H   UNL     1       6.514  -4.379  21.456  0.00  0.00    +0.210 HD
ENDBRANCH  33  34
ENDBRANCH  23  33
ENDBRANCH  20  21
ENDBRANCH  16  20
ENDBRANCH  11  12
BRANCH  10  36
ATOM     36  O   UNL     1       5.800   6.394  22.807  0.00  0.00    -0.506 OA
ATOM     37  H   UNL     1       6.010   6.782  23.671  0.00  0.00    +0.292 HD
ENDBRANCH  10  36
BRANCH   7  38
ATOM     38  O   UNL     1       1.478   4.955  21.551  0.00  0.00    -0.507 OA
ATOM     39  H   UNL     1       0.710   4.879  22.141  0.00  0.00    +0.292 HD
ENDBRANCH   7  38
BRANCH   1  40
ATOM     40  O   UNL     1       7.473   2.587  25.740  0.00  0.00    -0.333 OA
BRANCH  40  44
ATOM     41  C   UNL     1       8.235  -0.141  22.502  0.00  0.00    +0.041 C 
ATOM     42  C   UNL     1       9.175   0.154  23.668  0.00  0.00    +0.149 C 
ATOM     43  O   UNL     1       8.518   0.797  24.770  0.00  0.00    -0.343 OA
ATOM     44  C   UNL     1       8.134   2.163  24.543  0.00  0.00    +0.283 C 
ATOM     45  C   UNL     1       9.370   3.039  24.189  0.00  0.00    +0.201 C 
ATOM     46  C   UNL     1      10.166   2.416  23.035  0.00  0.00    +0.179 C 
ATOM     47  C   UNL     1      10.447   0.935  23.307  0.00  0.00    +0.174 C 
BRANCH  47  48
ATOM     48  O   UNL     1      11.355   0.840  24.422  0.00  0.00    -0.387 OA
ATOM     49  H   UNL     1      11.503   1.742  24.759  0.00  0.00    +0.210 HD
ENDBRANCH  47  48
BRANCH  46  50
ATOM     50  O   UNL     1       9.515   2.604  21.768  0.00  0.00    -0.386 OA
ATOM     51  H   UNL     1      10.154   2.875  21.087  0.00  0.00    +0.210 HD
ENDBRANCH  46  50
BRANCH  45  52
ATOM     52  O   UNL     1       9.063   4.398  23.844  0.00  0.00    -0.384 OA
ATOM     53  H   UNL     1       9.696   4.981  24.309  0.00  0.00    +0.210 HD
ENDBRANCH  45  52
ENDBRANCH  40  44
ENDBRANCH   1  40
TORSDOF 16
ENDMDL
MODEL 7
REMARK VINA RESULT:      -6.8      2.413      6.069
REMARK  Name = 
REMARK  17 active torsions:
REMARK  status: ('A' for Active; 'I' for Inactive)
REMARK    1  A    between atoms: C_1  and  C_2
REMARK    2  A    between atoms: C_4  and  O_53
REMARK    3  A    between atoms: C_6  and  O_52
REMARK    4  A    between atoms: C_8  and  O_51
REMARK    5  A    between atoms: C_10  and  O_13
REMARK    6  A    between atoms: O_13  and  C_14
REMARK    7  A    between atoms: C_15  and  C_27
REMARK    8  A    between atoms: C_19  and  O_26
REMARK    9  A    between atoms: C_21  and  O_25
REMARK   10  A    between atoms: C_29  and  O_34
REMARK   11  A    between atoms: C_30  and  O_33
REMARK   12  A    between atoms: O_34  and  C_35
REMARK   13  A    between atoms: C_37  and  O_50
REMARK   14  A    between atoms: C_39  and  O_49
REMARK   15  A    between atoms: C_41  and  O_48
REMARK   16  A    between atoms: C_43  and  C_46
REMARK   17  A    between atoms: C_46  and  O_47
REMARK                            x       y       z     vdW  Elec       q    Type
REMARK                         _______ _______ _______ _____ _____    ______ ____
ROOT
ATOM      1  C   UNL     1       6.301   2.349  24.721  0.00  0.00    +0.237 C 
ATOM      2  C   UNL     1       5.823   3.802  24.806  0.00  0.00    +0.203 C 
ATOM      3  O   UNL     1       6.363   4.703  24.161  0.00  0.00    -0.289 OA
ATOM      4  C   UNL     1       4.768   4.126  25.790  0.00  0.00    +0.103 A 
ATOM      5  C   UNL     1       4.511   3.188  26.788  0.00  0.00    +0.139 A 
ATOM      6  C   UNL     1       3.727   3.547  27.887  0.00  0.00    +0.092 A 
ATOM      7  C   UNL     1       3.165   4.820  27.943  0.00  0.00    +0.124 A 
ATOM      8  C   UNL     1       3.334   5.726  26.904  0.00  0.00    +0.091 A 
ATOM      9  O   UNL     1       5.035   1.926  26.797  0.00  0.00    -0.480 OA
ATOM     10  C   UNL     1       4.136   5.374  25.821  0.00  0.00    +0.134 A 
ATOM     11  C   UNL     1       5.344   1.420  25.484  0.00  0.00    +0.240 C 
ENDROOT
BRANCH  11  12
ATOM     12  C   UNL     1       5.969   0.027  25.654  0.00  0.00    -0.001 A 
ATOM     13  C   UNL     1       7.133  -0.157  26.422  0.00  0.00    +0.011 A 
ATOM     14  C   UNL     1       7.678  -1.429  26.593  0.00  0.00    +0.049 A 
ATOM     15  C   UNL     1       7.054  -2.521  26.008  0.00  0.00    +0.159 A 
ATOM     16  C   UNL     1       5.922  -2.374  25.198  0.00  0.00    +0.166 A 
ATOM     17  C   UNL     1       5.396  -1.093  25.009  0.00  0.00    +0.057 A 
BRANCH  15  18
ATOM     18  O   UNL     1       7.575  -3.762  26.256  0.00  0.00    -0.503 OA
ATOM     19  H   UNL     1       7.012  -4.156  26.951  0.00  0.00    +0.292 HD
ENDBRANCH  15  18
BRANCH  16  20
ATOM     20  O   UNL     1       5.451  -3.550  24.678  0.00  0.00    -0.457 OA
BRANCH  20  21
ATOM     21  C   UNL     1       5.007  -3.597  23.323  0.00  0.00    +0.339 C 
ATOM     22  O   UNL     1       4.144  -4.727  23.110  0.00  0.00    -0.331 OA
ATOM     23  C   UNL     1       4.746  -6.032  23.158  0.00  0.00    +0.179 C 
ATOM     24  C   UNL     1       5.978  -6.138  22.240  0.00  0.00    +0.177 C 
ATOM     25  C   UNL     1       6.955  -4.973  22.460  0.00  0.00    +0.180 C 
ATOM     26  C   UNL     1       6.215  -3.625  22.362  0.00  0.00    +0.214 C 
BRANCH  26  27
ATOM     27  O   UNL     1       5.781  -3.403  21.011  0.00  0.00    -0.383 OA
ATOM     28  H   UNL     1       5.325  -4.223  20.722  0.00  0.00    +0.210 HD
ENDBRANCH  26  27
BRANCH  25  29
ATOM     29  O   UNL     1       7.663  -5.153  23.686  0.00  0.00    -0.386 OA
ATOM     30  H   UNL     1       8.264  -4.397  23.835  0.00  0.00    +0.210 HD
ENDBRANCH  25  29
BRANCH  24  31
ATOM     31  O   UNL     1       5.516  -6.111  20.877  0.00  0.00    -0.386 OA
ATOM     32  H   UNL     1       4.760  -6.726  20.815  0.00  0.00    +0.210 HD
ENDBRANCH  24  31
BRANCH  23  33
ATOM     33  C   UNL     1       5.015  -6.520  24.594  0.00  0.00    +0.190 C 
BRANCH  33  34
ATOM     34  O   UNL     1       4.135  -7.576  24.975  0.00  0.00    -0.392 OA
ATOM     35  H   UNL     1       3.480  -7.212  25.597  0.00  0.00    +0.210 HD
ENDBRANCH  33  34
ENDBRANCH  23  33
ENDBRANCH  20  21
ENDBRANCH  16  20
ENDBRANCH  11  12
BRANCH  10  36
ATOM     36  O   UNL     1       4.283   6.257  24.792  0.00  0.00    -0.506 OA
ATOM     37  H   UNL     1       4.192   7.166  25.116  0.00  0.00    +0.292 HD
ENDBRANCH  10  36
BRANCH   7  38
ATOM     38  O   UNL     1       2.436   5.232  29.019  0.00  0.00    -0.507 OA
ATOM     39  H   UNL     1       1.956   4.470  29.386  0.00  0.00    +0.292 HD
ENDBRANCH   7  38
BRANCH   1  40
ATOM     40  O   UNL     1       6.436   1.867  23.382  0.00  0.00    -0.333 OA
BRANCH  40  44
ATOM     41  C   UNL     1       9.520  -0.596  21.672  0.00  0.00    +0.041 C 
ATOM     42  C   UNL     1       9.433  -0.147  23.128  0.00  0.00    +0.149 C 
ATOM     43  O   UNL     1       8.131   0.334  23.491  0.00  0.00    -0.343 OA
ATOM     44  C   UNL     1       7.767   1.604  22.925  0.00  0.00    +0.283 C 
ATOM     45  C   UNL     1       8.781   2.710  23.337  0.00  0.00    +0.201 C 
ATOM     46  C   UNL     1      10.217   2.277  23.020  0.00  0.00    +0.179 C 
ATOM     47  C   UNL     1      10.494   0.873  23.568  0.00  0.00    +0.174 C 
BRANCH  47  48
ATOM     48  O   UNL     1      10.480   0.934  25.007  0.00  0.00    -0.387 OA
ATOM     49  H   UNL     1      10.987   0.171  25.339  0.00  0.00    +0.210 HD
ENDBRANCH  47  48
BRANCH  46  50
ATOM     50  O   UNL     1      10.508   2.360  21.615  0.00  0.00    -0.386 OA
ATOM     51  H   UNL     1      11.064   1.615  21.331  0.00  0.00    +0.210 HD
ENDBRANCH  46  50
BRANCH  45  52
ATOM     52  O   UNL     1       8.550   3.991  22.730  0.00  0.00    -0.384 OA
ATOM     53  H   UNL     1       7.752   4.381  23.136  0.00  0.00    +0.210 HD
ENDBRANCH  45  52
ENDBRANCH  40  44
ENDBRANCH   1  40
TORSDOF 16
ENDMDL
MODEL 8
REMARK VINA RESULT:      -6.7      2.075      8.366
REMARK  Name = 
REMARK  17 active torsions:
REMARK  status: ('A' for Active; 'I' for Inactive)
REMARK    1  A    between atoms: C_1  and  C_2
REMARK    2  A    between atoms: C_4  and  O_53
REMARK    3  A    between atoms: C_6  and  O_52
REMARK    4  A    between atoms: C_8  and  O_51
REMARK    5  A    between atoms: C_10  and  O_13
REMARK    6  A    between atoms: O_13  and  C_14
REMARK    7  A    between atoms: C_15  and  C_27
REMARK    8  A    between atoms: C_19  and  O_26
REMARK    9  A    between atoms: C_21  and  O_25
REMARK   10  A    between atoms: C_29  and  O_34
REMARK   11  A    between atoms: C_30  and  O_33
REMARK   12  A    between atoms: O_34  and  C_35
REMARK   13  A    between atoms: C_37  and  O_50
REMARK   14  A    between atoms: C_39  and  O_49
REMARK   15  A    between atoms: C_41  and  O_48
REMARK   16  A    between atoms: C_43  and  C_46
REMARK   17  A    between atoms: C_46  and  O_47
REMARK                            x       y       z     vdW  Elec       q    Type
REMARK                         _______ _______ _______ _____ _____    ______ ____
ROOT
ATOM      1  C   UNL     1       8.660  -0.737  25.237  0.00  0.00    +0.237 C 
ATOM      2  C   UNL     1       9.082  -2.168  24.887  0.00  0.00    +0.203 C 
ATOM      3  O   UNL     1       9.795  -2.415  23.912  0.00  0.00    -0.289 OA
ATOM      4  C   UNL     1       8.503  -3.272  25.681  0.00  0.00    +0.103 A 
ATOM      5  C   UNL     1       7.384  -2.986  26.459  0.00  0.00    +0.139 A 
ATOM      6  C   UNL     1       6.641  -4.032  27.012  0.00  0.00    +0.092 A 
ATOM      7  C   UNL     1       7.062  -5.347  26.825  0.00  0.00    +0.124 A 
ATOM      8  C   UNL     1       8.233  -5.634  26.136  0.00  0.00    +0.091 A 
ATOM      9  O   UNL     1       6.913  -1.722  26.676  0.00  0.00    -0.480 OA
ATOM     10  C   UNL     1       8.958  -4.591  25.566  0.00  0.00    +0.134 A 
ATOM     11  C   UNL     1       7.931  -0.705  26.589  0.00  0.00    +0.240 C 
ENDROOT
BRANCH  11  12
ATOM     12  C   UNL     1       7.251   0.656  26.800  0.00  0.00    -0.001 A 
ATOM     13  C   UNL     1       7.467   1.401  27.974  0.00  0.00    +0.011 A 
ATOM     14  C   UNL     1       6.867   2.648  28.145  0.00  0.00    +0.049 A 
ATOM     15  C   UNL     1       6.062   3.159  27.139  0.00  0.00    +0.159 A 
ATOM     16  C   UNL     1       5.785   2.431  25.978  0.00  0.00    +0.166 A 
ATOM     17  C   UNL     1       6.368   1.170  25.824  0.00  0.00    +0.057 A 
BRANCH  15  18
ATOM     18  O   UNL     1       5.547   4.417  27.311  0.00  0.00    -0.503 OA
ATOM     19  H   UNL     1       5.123   4.415  28.192  0.00  0.00    +0.292 HD
ENDBRANCH  15  18
BRANCH  16  20
ATOM     20  O   UNL     1       4.949   3.072  25.102  0.00  0.00    -0.457 OA
BRANCH  20  21
ATOM     21  C   UNL     1       3.703   2.475  24.746  0.00  0.00    +0.339 C 
ATOM     22  O   UNL     1       3.324   2.848  23.410  0.00  0.00    -0.331 OA
ATOM     23  C   UNL     1       2.948   4.218  23.192  0.00  0.00    +0.179 C 
ATOM     24  C   UNL     1       1.873   4.691  24.189  0.00  0.00    +0.177 C 
ATOM     25  C   UNL     1       2.251   4.352  25.639  0.00  0.00    +0.180 C 
ATOM     26  C   UNL     1       2.611   2.860  25.766  0.00  0.00    +0.214 C 
BRANCH  26  27
ATOM     27  O   UNL     1       1.438   2.056  25.567  0.00  0.00    -0.383 OA
ATOM     28  H   UNL     1       0.912   2.114  26.395  0.00  0.00    +0.210 HD
ENDBRANCH  26  27
BRANCH  25  29
ATOM     29  O   UNL     1       3.279   5.233  26.094  0.00  0.00    -0.386 OA
ATOM     30  H   UNL     1       4.130   4.989  25.681  0.00  0.00    +0.210 HD
ENDBRANCH  25  29
BRANCH  24  31
ATOM     31  O   UNL     1       0.641   4.023  23.858  0.00  0.00    -0.386 OA
ATOM     32  H   UNL     1       0.579   3.994  22.885  0.00  0.00    +0.210 HD
ENDBRANCH  24  31
BRANCH  23  33
ATOM     33  C   UNL     1       4.156   5.170  23.105  0.00  0.00    +0.190 C 
BRANCH  33  34
ATOM     34  O   UNL     1       5.206   4.630  22.304  0.00  0.00    -0.392 OA
ATOM     35  H   UNL     1       5.900   5.308  22.223  0.00  0.00    +0.210 HD
ENDBRANCH  33  34
ENDBRANCH  23  33
ENDBRANCH  20  21
ENDBRANCH  16  20
ENDBRANCH  11  12
BRANCH  10  36
ATOM     36  O   UNL     1      10.118  -4.874  24.907  0.00  0.00    -0.506 OA
ATOM     37  H   UNL     1      10.669  -5.469  25.439  0.00  0.00    +0.292 HD
ENDBRANCH  10  36
BRANCH   7  38
ATOM     38  O   UNL     1       6.343  -6.401  27.303  0.00  0.00    -0.507 OA
ATOM     39  H   UNL     1       5.844  -6.802  26.570  0.00  0.00    +0.292 HD
ENDBRANCH   7  38
BRANCH   1  40
ATOM     40  O   UNL     1       9.750   0.187  25.283  0.00  0.00    -0.333 OA
BRANCH  40  44
ATOM     41  C   UNL     1      10.165   4.234  23.887  0.00  0.00    +0.041 C 
ATOM     42  C   UNL     1       8.868   3.431  23.939  0.00  0.00    +0.149 C 
ATOM     43  O   UNL     1       8.957   2.275  24.784  0.00  0.00    -0.343 OA
ATOM     44  C   UNL     1       9.772   1.205  24.277  0.00  0.00    +0.283 C 
ATOM     45  C   UNL     1       9.246   0.709  22.899  0.00  0.00    +0.201 C 
ATOM     46  C   UNL     1       9.082   1.882  21.925  0.00  0.00    +0.179 C 
ATOM     47  C   UNL     1       8.291   3.021  22.576  0.00  0.00    +0.174 C 
BRANCH  47  48
ATOM     48  O   UNL     1       6.937   2.576  22.785  0.00  0.00    -0.387 OA
ATOM     49  H   UNL     1       6.891   1.639  22.523  0.00  0.00    +0.210 HD
ENDBRANCH  47  48
BRANCH  46  50
ATOM     50  O   UNL     1      10.345   2.341  21.417  0.00  0.00    -0.386 OA
ATOM     51  H   UNL     1      10.992   2.442  22.135  0.00  0.00    +0.210 HD
ENDBRANCH  46  50
BRANCH  45  52
ATOM     52  O   UNL     1      10.062  -0.291  22.270  0.00  0.00    -0.384 OA
ATOM     53  H   UNL     1      10.789  -0.520  22.882  0.00  0.00    +0.210 HD
ENDBRANCH  45  52
ENDBRANCH  40  44
ENDBRANCH   1  40
TORSDOF 16
ENDMDL
MODEL 9
REMARK VINA RESULT:      -6.7      2.999      5.945
REMARK  Name = 
REMARK  17 active torsions:
REMARK  status: ('A' for Active; 'I' for Inactive)
REMARK    1  A    between atoms: C_1  and  C_2
REMARK    2  A    between atoms: C_4  and  O_53
REMARK    3  A    between atoms: C_6  and  O_52
REMARK    4  A    between atoms: C_8  and  O_51
REMARK    5  A    between atoms: C_10  and  O_13
REMARK    6  A    between atoms: O_13  and  C_14
REMARK    7  A    between atoms: C_15  and  C_27
REMARK    8  A    between atoms: C_19  and  O_26
REMARK    9  A    between atoms: C_21  and  O_25
REMARK   10  A    between atoms: C_29  and  O_34
REMARK   11  A    between atoms: C_30  and  O_33
REMARK   12  A    between atoms: O_34  and  C_35
REMARK   13  A    between atoms: C_37  and  O_50
REMARK   14  A    between atoms: C_39  and  O_49
REMARK   15  A    between atoms: C_41  and  O_48
REMARK   16  A    between atoms: C_43  and  C_46
REMARK   17  A    between atoms: C_46  and  O_47
REMARK                            x       y       z     vdW  Elec       q    Type
REMARK                         _______ _______ _______ _____ _____    ______ ____
ROOT
ATOM      1  C   UNL     1       7.159   1.320  25.655  0.00  0.00    +0.237 C 
ATOM      2  C   UNL     1       7.626   2.507  24.807  0.00  0.00    +0.203 C 
ATOM      3  O   UNL     1       8.745   3.005  24.947  0.00  0.00    -0.289 OA
ATOM      4  C   UNL     1       6.645   3.132  23.895  0.00  0.00    +0.103 A 
ATOM      5  C   UNL     1       5.300   2.833  24.094  0.00  0.00    +0.139 A 
ATOM      6  C   UNL     1       4.320   3.590  23.447  0.00  0.00    +0.092 A 
ATOM      7  C   UNL     1       4.702   4.599  22.567  0.00  0.00    +0.124 A 
ATOM      8  C   UNL     1       6.041   4.837  22.285  0.00  0.00    +0.091 A 
ATOM      9  O   UNL     1       4.857   1.862  24.948  0.00  0.00    -0.480 OA
ATOM     10  C   UNL     1       7.015   4.096  22.950  0.00  0.00    +0.134 A 
ATOM     11  C   UNL     1       5.805   0.796  25.151  0.00  0.00    +0.240 C 
ENDROOT
BRANCH  11  12
ATOM     12  C   UNL     1       5.197  -0.185  26.165  0.00  0.00    -0.001 A 
ATOM     13  C   UNL     1       4.777   0.252  27.435  0.00  0.00    +0.011 A 
ATOM     14  C   UNL     1       4.201  -0.640  28.339  0.00  0.00    +0.049 A 
ATOM     15  C   UNL     1       4.032  -1.966  27.972  0.00  0.00    +0.159 A 
ATOM     16  C   UNL     1       4.479  -2.450  26.737  0.00  0.00    +0.166 A 
ATOM     17  C   UNL     1       5.079  -1.556  25.846  0.00  0.00    +0.057 A 
BRANCH  15  18
ATOM     18  O   UNL     1       3.399  -2.798  28.857  0.00  0.00    -0.503 OA
ATOM     19  H   UNL     1       2.451  -2.770  28.619  0.00  0.00    +0.292 HD
ENDBRANCH  15  18
BRANCH  16  20
ATOM     20  O   UNL     1       4.258  -3.788  26.548  0.00  0.00    -0.457 OA
BRANCH  20  21
ATOM     21  C   UNL     1       3.594  -4.237  25.367  0.00  0.00    +0.339 C 
ATOM     22  O   UNL     1       2.760  -5.373  25.653  0.00  0.00    -0.331 OA
ATOM     23  C   UNL     1       3.421  -6.607  25.980  0.00  0.00    +0.179 C 
ATOM     24  C   UNL     1       4.484  -6.992  24.935  0.00  0.00    +0.177 C 
ATOM     25  C   UNL     1       5.430  -5.822  24.625  0.00  0.00    +0.180 C 
ATOM     26  C   UNL     1       4.622  -4.560  24.262  0.00  0.00    +0.214 C 
BRANCH  26  27
ATOM     27  O   UNL     1       3.958  -4.751  23.004  0.00  0.00    -0.383 OA
ATOM     28  H   UNL     1       3.317  -5.485  23.131  0.00  0.00    +0.210 HD
ENDBRANCH  26  27
BRANCH  25  29
ATOM     29  O   UNL     1       6.342  -5.630  25.706  0.00  0.00    -0.386 OA
ATOM     30  H   UNL     1       6.034  -6.125  26.490  0.00  0.00    +0.210 HD
ENDBRANCH  25  29
BRANCH  24  31
ATOM     31  O   UNL     1       3.798  -7.373  23.728  0.00  0.00    -0.386 OA
ATOM     32  H   UNL     1       3.622  -6.556  23.224  0.00  0.00    +0.210 HD
ENDBRANCH  24  31
BRANCH  23  33
ATOM     33  C   UNL     1       3.950  -6.643  27.426  0.00  0.00    +0.190 C 
BRANCH  33  34
ATOM     34  O   UNL     1       5.120  -7.451  27.548  0.00  0.00    -0.392 OA
ATOM     35  H   UNL     1       5.894  -6.861  27.554  0.00  0.00    +0.210 HD
ENDBRANCH  33  34
ENDBRANCH  23  33
ENDBRANCH  20  21
ENDBRANCH  16  20
ENDBRANCH  11  12
BRANCH  10  36
ATOM     36  O   UNL     1       8.329   4.318  22.657  0.00  0.00    -0.506 OA
ATOM     37  H   UNL     1       8.561   3.890  21.818  0.00  0.00    +0.292 HD
ENDBRANCH  10  36
BRANCH   7  38
ATOM     38  O   UNL     1       3.783   5.396  21.952  0.00  0.00    -0.507 OA
ATOM     39  H   UNL     1       3.374   4.902  21.222  0.00  0.00    +0.292 HD
ENDBRANCH   7  38
BRANCH   1  40
ATOM     40  O   UNL     1       8.088   0.234  25.682  0.00  0.00    -0.333 OA
BRANCH  40  44
ATOM     41  C   UNL     1       6.994  -2.318  22.397  0.00  0.00    +0.041 C 
ATOM     42  C   UNL     1       8.000  -2.650  23.496  0.00  0.00    +0.149 C 
ATOM     43  O   UNL     1       7.884  -1.793  24.641  0.00  0.00    -0.343 OA
ATOM     44  C   UNL     1       8.326  -0.441  24.442  0.00  0.00    +0.283 C 
ATOM     45  C   UNL     1       9.819  -0.399  24.006  0.00  0.00    +0.201 C 
ATOM     46  C   UNL     1      10.058  -1.315  22.800  0.00  0.00    +0.179 C 
ATOM     47  C   UNL     1       9.469  -2.707  23.050  0.00  0.00    +0.174 C 
BRANCH  47  48
ATOM     48  O   UNL     1      10.225  -3.342  24.099  0.00  0.00    -0.387 OA
ATOM     49  H   UNL     1      10.711  -2.644  24.575  0.00  0.00    +0.210 HD
ENDBRANCH  47  48
BRANCH  46  50
ATOM     50  O   UNL     1       9.557  -0.743  21.580  0.00  0.00    -0.386 OA
ATOM     51  H   UNL     1       9.079  -1.408  21.057  0.00  0.00    +0.210 HD
ENDBRANCH  46  50
BRANCH  45  52
ATOM     52  O   UNL     1      10.314   0.909  23.685  0.00  0.00    -0.384 OA
ATOM     53  H   UNL     1      10.151   1.494  24.452  0.00  0.00    +0.210 HD
ENDBRANCH  45  52
ENDBRANCH  40  44
ENDBRANCH   1  40
TORSDOF 16
ENDMDL
