MODEL 1
REMARK VINA RESULT:      -7.4      0.000      0.000
REMARK  Name = 
REMARK  19 active torsions:
REMARK  status: ('A' for Active; 'I' for Inactive)
REMARK    1  A    between atoms: C_1  and  C_2
REMARK    2  A    between atoms: C_3  and  O_50
REMARK    3  A    between atoms: C_5  and  O_49
REMARK    4  A    between atoms: C_6  and  O_48
REMARK    5  A    between atoms: C_8  and  O_11
REMARK    6  A    between atoms: O_11  and  C_12
REMARK    7  A    between atoms: C_13  and  O_24
REMARK    8  A    between atoms: C_16  and  C_22
REMARK    9  A    between atoms: C_17  and  O_21
REMARK   10  A    between atoms: C_19  and  O_20
REMARK   11  A    between atoms: C_22  and  O_23
REMARK   12  A    between atoms: O_24  and  C_25
REMARK   13  A    between atoms: C_26  and  C_38
REMARK   14  A    between atoms: C_30  and  O_37
REMARK   15  A    between atoms: C_32  and  O_36
REMARK   16  A    between atoms: C_40  and  O_46
REMARK   17  A    between atoms: C_41  and  O_44
REMARK   18  A    between atoms: O_44  and  C_45
REMARK   19  A    between atoms: O_46  and  C_47
REMARK                            x       y       z     vdW  Elec       q    Type
REMARK                         _______ _______ _______ _____ _____    ______ ____
ROOT
ATOM      1  C   UNL     1       4.920  -2.269  25.940  0.00  0.00    +0.221 C 
ATOM      2  C   UNL     1       4.079  -2.427  27.230  0.00  0.00    +0.180 C 
ATOM      3  C   UNL     1       2.987  -1.354  27.361  0.00  0.00    +0.177 C 
ATOM      4  C   UNL     1       3.574   0.042  27.193  0.00  0.00    +0.179 C 
ATOM      5  O   UNL     1       4.215   0.105  25.924  0.00  0.00    -0.331 OA
ATOM      6  C   UNL     1       5.288  -0.785  25.647  0.00  0.00    +0.340 C 
ENDROOT
BRANCH   3   7
ATOM      7  O   UNL     1       1.978  -1.553  26.357  0.00  0.00    -0.386 OA
ATOM      8  H   UNL     1       2.356  -1.281  25.497  0.00  0.00    +0.210 HD
ENDBRANCH   3   7
BRANCH   2   9
ATOM      9  O   UNL     1       4.888  -2.424  28.414  0.00  0.00    -0.386 OA
ATOM     10  H   UNL     1       5.236  -3.316  28.589  0.00  0.00    +0.210 HD
ENDBRANCH   2   9
BRANCH   6  11
ATOM     11  O   UNL     1       6.539  -0.423  26.264  0.00  0.00    -0.453 OA
BRANCH  11  12
ATOM     12  C   UNL     1       7.333   0.506  25.566  0.00  0.00    +0.214 A 
ATOM     13  C   UNL     1       7.416   1.949  25.955  0.00  0.00    +0.238 A 
ATOM     14  O   UNL     1       6.824   2.407  26.917  0.00  0.00    -0.283 OA
ATOM     15  C   UNL     1       8.259   2.844  25.152  0.00  0.00    +0.109 A 
ATOM     16  C   UNL     1       9.048   2.272  24.160  0.00  0.00    +0.147 A 
ATOM     17  C   UNL     1       9.957   3.074  23.463  0.00  0.00    +0.092 A 
ATOM     18  C   UNL     1      10.038   4.438  23.749  0.00  0.00    +0.124 A 
ATOM     19  C   UNL     1       9.217   5.025  24.702  0.00  0.00    +0.091 A 
ATOM     20  O   UNL     1       8.970   0.946  23.817  0.00  0.00    -0.451 OA
ATOM     21  C   UNL     1       8.318   4.226  25.400  0.00  0.00    +0.135 A 
ATOM     22  C   UNL     1       8.083   0.122  24.507  0.00  0.00    +0.181 A 
BRANCH  22  23
ATOM     23  C   UNL     1       8.003  -1.251  23.968  0.00  0.00    +0.025 A 
ATOM     24  C   UNL     1       7.122  -1.538  22.912  0.00  0.00    +0.015 A 
ATOM     25  C   UNL     1       6.903  -2.858  22.495  0.00  0.00    +0.050 A 
ATOM     26  C   UNL     1       7.582  -3.906  23.116  0.00  0.00    +0.162 A 
ATOM     27  C   UNL     1       8.542  -3.620  24.108  0.00  0.00    +0.162 A 
ATOM     28  C   UNL     1       8.740  -2.299  24.539  0.00  0.00    +0.061 A 
BRANCH  27  29
ATOM     29  O   UNL     1       9.201  -4.711  24.614  0.00  0.00    -0.491 OA
ATOM     30  C   UNL     1       9.206  -4.881  26.023  0.00  0.00    +0.277 C 
ENDBRANCH  27  29
BRANCH  26  31
ATOM     31  O   UNL     1       7.367  -5.238  22.874  0.00  0.00    -0.491 OA
ATOM     32  C   UNL     1       7.236  -5.671  21.531  0.00  0.00    +0.277 C 
ENDBRANCH  26  31
ENDBRANCH  22  23
BRANCH  21  33
ATOM     33  O   UNL     1       7.485   4.825  26.302  0.00  0.00    -0.506 OA
ATOM     34  H   UNL     1       6.699   4.281  26.465  0.00  0.00    +0.292 HD
ENDBRANCH  21  33
BRANCH  18  35
ATOM     35  O   UNL     1      10.910   5.263  23.115  0.00  0.00    -0.507 OA
ATOM     36  H   UNL     1      10.423   5.810  22.472  0.00  0.00    +0.292 HD
ENDBRANCH  18  35
ENDBRANCH  11  12
ENDBRANCH   6  11
BRANCH   4  37
ATOM     37  C   UNL     1       4.482   0.530  28.333  0.00  0.00    +0.190 C 
BRANCH  37  38
ATOM     38  O   UNL     1       4.480   1.958  28.398  0.00  0.00    -0.392 OA
ATOM     39  H   UNL     1       4.745   2.192  29.310  0.00  0.00    +0.210 HD
ENDBRANCH  37  38
ENDBRANCH   4  37
BRANCH   1  40
ATOM     40  O   UNL     1       4.167  -2.856  24.853  0.00  0.00    -0.337 OA
BRANCH  40  44
ATOM     41  C   UNL     1       4.071  -6.547  26.990  0.00  0.00    +0.041 C 
ATOM     42  C   UNL     1       4.809  -6.364  25.663  0.00  0.00    +0.149 C 
ATOM     43  O   UNL     1       5.017  -4.969  25.373  0.00  0.00    -0.343 OA
ATOM     44  C   UNL     1       3.840  -4.249  24.984  0.00  0.00    +0.282 C 
ATOM     45  C   UNL     1       3.240  -4.866  23.702  0.00  0.00    +0.201 C 
ATOM     46  C   UNL     1       2.902  -6.331  23.975  0.00  0.00    +0.179 C 
ATOM     47  C   UNL     1       4.127  -7.096  24.491  0.00  0.00    +0.174 C 
BRANCH  47  48
ATOM     48  O   UNL     1       5.046  -7.232  23.392  0.00  0.00    -0.387 OA
ATOM     49  H   UNL     1       5.205  -6.322  23.051  0.00  0.00    +0.210 HD
ENDBRANCH  47  48
BRANCH  46  50
ATOM     50  O   UNL     1       2.423  -6.925  22.759  0.00  0.00    -0.386 OA
ATOM     51  H   UNL     1       1.676  -7.500  23.032  0.00  0.00    +0.210 HD
ENDBRANCH  46  50
BRANCH  45  52
ATOM     52  O   UNL     1       4.172  -4.767  22.608  0.00  0.00    -0.384 OA
ATOM     53  H   UNL     1       3.733  -5.156  21.830  0.00  0.00    +0.210 HD
ENDBRANCH  45  52
ENDBRANCH  40  44
ENDBRANCH   1  40
TORSDOF 16
ENDMDL
MODEL 2
REMARK VINA RESULT:      -7.0      2.272      9.242
REMARK  Name = 
REMARK  19 active torsions:
REMARK  status: ('A' for Active; 'I' for Inactive)
REMARK    1  A    between atoms: C_1  and  C_2
REMARK    2  A    between atoms: C_3  and  O_50
REMARK    3  A    between atoms: C_5  and  O_49
REMARK    4  A    between atoms: C_6  and  O_48
REMARK    5  A    between atoms: C_8  and  O_11
REMARK    6  A    between atoms: O_11  and  C_12
REMARK    7  A    between atoms: C_13  and  O_24
REMARK    8  A    between atoms: C_16  and  C_22
REMARK    9  A    between atoms: C_17  and  O_21
REMARK   10  A    between atoms: C_19  and  O_20
REMARK   11  A    between atoms: C_22  and  O_23
REMARK   12  A    between atoms: O_24  and  C_25
REMARK   13  A    between atoms: C_26  and  C_38
REMARK   14  A    between atoms: C_30  and  O_37
REMARK   15  A    between atoms: C_32  and  O_36
REMARK   16  A    between atoms: C_40  and  O_46
REMARK   17  A    between atoms: C_41  and  O_44
REMARK   18  A    between atoms: O_44  and  C_45
REMARK   19  A    between atoms: O_46  and  C_47
REMARK                            x       y       z     vdW  Elec       q    Type
REMARK                         _______ _______ _______ _____ _____    ______ ____
ROOT
ATOM      1  C   UNL     1       7.899   1.340  23.804  0.00  0.00    +0.221 C 
ATOM      2  C   UNL     1       9.421   1.619  23.834  0.00  0.00    +0.180 C 
ATOM      3  C   UNL     1      10.145   1.096  22.584  0.00  0.00    +0.177 C 
ATOM      4  C   UNL     1       9.807  -0.369  22.335  0.00  0.00    +0.179 C 
ATOM      5  O   UNL     1       8.395  -0.483  22.204  0.00  0.00    -0.331 OA
ATOM      6  C   UNL     1       7.566  -0.091  23.290  0.00  0.00    +0.340 C 
ENDROOT
BRANCH   3   7
ATOM      7  O   UNL     1       9.755   1.860  21.432  0.00  0.00    -0.386 OA
ATOM      8  H   UNL     1      10.010   2.791  21.592  0.00  0.00    +0.210 HD
ENDBRANCH   3   7
BRANCH   2   9
ATOM      9  O   UNL     1      10.052   1.084  25.004  0.00  0.00    -0.386 OA
ATOM     10  H   UNL     1      10.358   0.176  24.840  0.00  0.00    +0.210 HD
ENDBRANCH   2   9
BRANCH   6  11
ATOM     11  O   UNL     1       7.513  -1.039  24.374  0.00  0.00    -0.453 OA
BRANCH  11  12
ATOM     12  C   UNL     1       6.310  -1.756  24.517  0.00  0.00    +0.214 A 
ATOM     13  C   UNL     1       6.001  -2.980  23.713  0.00  0.00    +0.238 A 
ATOM     14  O   UNL     1       6.781  -3.451  22.904  0.00  0.00    -0.283 OA
ATOM     15  C   UNL     1       4.710  -3.648  23.923  0.00  0.00    +0.109 A 
ATOM     16  C   UNL     1       3.905  -3.191  24.960  0.00  0.00    +0.147 A 
ATOM     17  C   UNL     1       2.731  -3.882  25.271  0.00  0.00    +0.092 A 
ATOM     18  C   UNL     1       2.367  -5.001  24.518  0.00  0.00    +0.124 A 
ATOM     19  C   UNL     1       3.139  -5.432  23.449  0.00  0.00    +0.091 A 
ATOM     20  O   UNL     1       4.203  -2.071  25.697  0.00  0.00    -0.451 OA
ATOM     21  C   UNL     1       4.311  -4.748  23.144  0.00  0.00    +0.135 A 
ATOM     22  C   UNL     1       5.375  -1.373  25.418  0.00  0.00    +0.181 A 
BRANCH  22  23
ATOM     23  C   UNL     1       5.524  -0.123  26.192  0.00  0.00    +0.025 A 
ATOM     24  C   UNL     1       6.250  -0.127  27.395  0.00  0.00    +0.015 A 
ATOM     25  C   UNL     1       6.266   0.998  28.231  0.00  0.00    +0.050 A 
ATOM     26  C   UNL     1       5.573   2.150  27.859  0.00  0.00    +0.162 A 
ATOM     27  C   UNL     1       4.924   2.198  26.609  0.00  0.00    +0.162 A 
ATOM     28  C   UNL     1       4.892   1.061  25.787  0.00  0.00    +0.061 A 
BRANCH  27  29
ATOM     29  O   UNL     1       4.325   3.395  26.308  0.00  0.00    -0.491 OA
ATOM     30  C   UNL     1       3.636   3.491  25.071  0.00  0.00    +0.277 C 
ENDBRANCH  27  29
BRANCH  26  31
ATOM     31  O   UNL     1       5.421   3.266  28.642  0.00  0.00    -0.491 OA
ATOM     32  C   UNL     1       6.575   4.007  28.996  0.00  0.00    +0.277 C 
ENDBRANCH  26  31
ENDBRANCH  22  23
BRANCH  21  33
ATOM     33  O   UNL     1       5.036  -5.157  22.061  0.00  0.00    -0.506 OA
ATOM     34  H   UNL     1       4.480  -5.208  21.269  0.00  0.00    +0.292 HD
ENDBRANCH  21  33
BRANCH  18  35
ATOM     35  O   UNL     1       1.246  -5.720  24.781  0.00  0.00    -0.507 OA
ATOM     36  H   UNL     1       1.342  -6.613  24.401  0.00  0.00    +0.292 HD
ENDBRANCH  18  35
ENDBRANCH  11  12
ENDBRANCH   6  11
BRANCH   4  37
ATOM     37  C   UNL     1      10.385  -1.372  23.346  0.00  0.00    +0.190 C 
BRANCH  37  38
ATOM     38  O   UNL     1       9.763  -2.651  23.194  0.00  0.00    -0.392 OA
ATOM     39  H   UNL     1       8.877  -2.482  22.817  0.00  0.00    +0.210 HD
ENDBRANCH  37  38
ENDBRANCH   4  37
BRANCH   1  40
ATOM     40  O   UNL     1       7.284   2.359  22.980  0.00  0.00    -0.337 OA
BRANCH  40  44
ATOM     41  C   UNL     1       8.827   5.400  25.544  0.00  0.00    +0.041 C 
ATOM     42  C   UNL     1       7.390   5.393  25.020  0.00  0.00    +0.149 C 
ATOM     43  O   UNL     1       7.024   4.090  24.528  0.00  0.00    -0.343 OA
ATOM     44  C   UNL     1       7.633   3.720  23.284  0.00  0.00    +0.282 C 
ATOM     45  C   UNL     1       7.232   4.721  22.179  0.00  0.00    +0.201 C 
ATOM     46  C   UNL     1       7.685   6.120  22.597  0.00  0.00    +0.179 C 
ATOM     47  C   UNL     1       7.126   6.494  23.976  0.00  0.00    +0.174 C 
BRANCH  47  48
ATOM     48  O   UNL     1       5.710   6.702  23.825  0.00  0.00    -0.387 OA
ATOM     49  H   UNL     1       5.347   5.869  23.449  0.00  0.00    +0.210 HD
ENDBRANCH  47  48
BRANCH  46  50
ATOM     50  O   UNL     1       7.239   7.060  21.609  0.00  0.00    -0.386 OA
ATOM     51  H   UNL     1       7.723   7.890  21.810  0.00  0.00    +0.210 HD
ENDBRANCH  46  50
BRANCH  45  52
ATOM     52  O   UNL     1       5.807   4.702  21.969  0.00  0.00    -0.384 OA
ATOM     53  H   UNL     1       5.667   4.512  21.024  0.00  0.00    +0.210 HD
ENDBRANCH  45  52
ENDBRANCH  40  44
ENDBRANCH   1  40
TORSDOF 16
ENDMDL
MODEL 3
REMARK VINA RESULT:      -7.0      2.372      7.638
REMARK  Name = 
REMARK  19 active torsions:
REMARK  status: ('A' for Active; 'I' for Inactive)
REMARK    1  A    between atoms: C_1  and  C_2
REMARK    2  A    between atoms: C_3  and  O_50
REMARK    3  A    between atoms: C_5  and  O_49
REMARK    4  A    between atoms: C_6  and  O_48
REMARK    5  A    between atoms: C_8  and  O_11
REMARK    6  A    between atoms: O_11  and  C_12
REMARK    7  A    between atoms: C_13  and  O_24
REMARK    8  A    between atoms: C_16  and  C_22
REMARK    9  A    between atoms: C_17  and  O_21
REMARK   10  A    between atoms: C_19  and  O_20
REMARK   11  A    between atoms: C_22  and  O_23
REMARK   12  A    between atoms: O_24  and  C_25
REMARK   13  A    between atoms: C_26  and  C_38
REMARK   14  A    between atoms: C_30  and  O_37
REMARK   15  A    between atoms: C_32  and  O_36
REMARK   16  A    between atoms: C_40  and  O_46
REMARK   17  A    between atoms: C_41  and  O_44
REMARK   18  A    between atoms: O_44  and  C_45
REMARK   19  A    between atoms: O_46  and  C_47
REMARK                            x       y       z     vdW  Elec       q    Type
REMARK                         _______ _______ _______ _____ _____    ______ ____
ROOT
ATOM      1  C   UNL     1       9.338   1.922  24.540  0.00  0.00    +0.221 C 
ATOM      2  C   UNL     1      10.517   1.519  23.621  0.00  0.00    +0.180 C 
ATOM      3  C   UNL     1      10.075   1.244  22.176  0.00  0.00    +0.177 C 
ATOM      4  C   UNL     1       8.919   0.252  22.140  0.00  0.00    +0.179 C 
ATOM      5  O   UNL     1       7.853   0.785  22.917  0.00  0.00    -0.331 OA
ATOM      6  C   UNL     1       8.069   1.054  24.296  0.00  0.00    +0.340 C 
ENDROOT
BRANCH   3   7
ATOM      7  O   UNL     1       9.652   2.466  21.548  0.00  0.00    -0.386 OA
ATOM      8  H   UNL     1       9.961   3.209  22.105  0.00  0.00    +0.210 HD
ENDBRANCH   3   7
BRANCH   2   9
ATOM      9  O   UNL     1      11.235   0.384  24.120  0.00  0.00    -0.386 OA
ATOM     10  H   UNL     1      11.033   0.240  25.061  0.00  0.00    +0.210 HD
ENDBRANCH   2   9
BRANCH   6  11
ATOM     11  O   UNL     1       8.062  -0.113  25.141  0.00  0.00    -0.453 OA
BRANCH  11  12
ATOM     12  C   UNL     1       6.869  -0.369  25.841  0.00  0.00    +0.214 A 
ATOM     13  C   UNL     1       6.401   0.486  26.978  0.00  0.00    +0.238 A 
ATOM     14  O   UNL     1       7.009   1.474  27.351  0.00  0.00    -0.283 OA
ATOM     15  C   UNL     1       5.151   0.125  27.657  0.00  0.00    +0.109 A 
ATOM     16  C   UNL     1       4.393  -0.907  27.115  0.00  0.00    +0.147 A 
ATOM     17  C   UNL     1       3.137  -1.192  27.659  0.00  0.00    +0.092 A 
ATOM     18  C   UNL     1       2.675  -0.459  28.754  0.00  0.00    +0.124 A 
ATOM     19  C   UNL     1       3.447   0.538  29.332  0.00  0.00    +0.091 A 
ATOM     20  O   UNL     1       4.828  -1.679  26.067  0.00  0.00    -0.451 OA
ATOM     21  C   UNL     1       4.694   0.826  28.787  0.00  0.00    +0.135 A 
ATOM     22  C   UNL     1       6.070  -1.406  25.497  0.00  0.00    +0.181 A 
BRANCH  22  23
ATOM     23  C   UNL     1       6.478  -2.378  24.462  0.00  0.00    +0.025 A 
ATOM     24  C   UNL     1       5.860  -2.358  23.201  0.00  0.00    +0.015 A 
ATOM     25  C   UNL     1       6.107  -3.369  22.262  0.00  0.00    +0.050 A 
ATOM     26  C   UNL     1       6.995  -4.400  22.567  0.00  0.00    +0.162 A 
ATOM     27  C   UNL     1       7.695  -4.375  23.790  0.00  0.00    +0.162 A 
ATOM     28  C   UNL     1       7.426  -3.374  24.736  0.00  0.00    +0.061 A 
BRANCH  27  29
ATOM     29  O   UNL     1       8.591  -5.398  23.971  0.00  0.00    -0.491 OA
ATOM     30  C   UNL     1       9.291  -5.447  25.204  0.00  0.00    +0.277 C 
ENDBRANCH  27  29
BRANCH  26  31
ATOM     31  O   UNL     1       7.229  -5.499  21.780  0.00  0.00    -0.491 OA
ATOM     32  C   UNL     1       6.225  -5.902  20.865  0.00  0.00    +0.277 C 
ENDBRANCH  26  31
ENDBRANCH  22  23
BRANCH  21  33
ATOM     33  O   UNL     1       5.462   1.778  29.395  0.00  0.00    -0.506 OA
ATOM     34  H   UNL     1       5.693   2.487  28.775  0.00  0.00    +0.292 HD
ENDBRANCH  21  33
BRANCH  18  35
ATOM     35  O   UNL     1       1.459  -0.682  29.315  0.00  0.00    -0.507 OA
ATOM     36  H   UNL     1       0.799  -0.106  28.886  0.00  0.00    +0.292 HD
ENDBRANCH  18  35
ENDBRANCH  11  12
ENDBRANCH   6  11
BRANCH   4  37
ATOM     37  C   UNL     1       9.264  -1.193  22.531  0.00  0.00    +0.190 C 
BRANCH  37  38
ATOM     38  O   UNL     1      10.463  -1.617  21.877  0.00  0.00    -0.392 OA
ATOM     39  H   UNL     1      11.159  -0.984  22.144  0.00  0.00    +0.210 HD
ENDBRANCH  37  38
ENDBRANCH   4  37
BRANCH   1  40
ATOM     40  O   UNL     1       9.072   3.328  24.318  0.00  0.00    -0.337 OA
BRANCH  40  44
ATOM     41  C   UNL     1       5.188   3.160  22.563  0.00  0.00    +0.041 C 
ATOM     42  C   UNL     1       6.022   4.440  22.635  0.00  0.00    +0.149 C 
ATOM     43  O   UNL     1       7.406   4.143  22.898  0.00  0.00    -0.343 OA
ATOM     44  C   UNL     1       7.690   3.710  24.235  0.00  0.00    +0.282 C 
ATOM     45  C   UNL     1       7.291   4.810  25.243  0.00  0.00    +0.201 C 
ATOM     46  C   UNL     1       5.800   5.103  25.084  0.00  0.00    +0.179 C 
ATOM     47  C   UNL     1       5.458   5.469  23.634  0.00  0.00    +0.174 C 
BRANCH  47  48
ATOM     48  O   UNL     1       6.019   6.768  23.373  0.00  0.00    -0.387 OA
ATOM     49  H   UNL     1       6.947   6.739  23.698  0.00  0.00    +0.210 HD
ENDBRANCH  47  48
BRANCH  46  50
ATOM     50  O   UNL     1       5.449   6.182  25.963  0.00  0.00    -0.386 OA
ATOM     51  H   UNL     1       4.953   6.817  25.402  0.00  0.00    +0.210 HD
ENDBRANCH  46  50
BRANCH  45  52
ATOM     52  O   UNL     1       8.060   6.007  25.019  0.00  0.00    -0.384 OA
ATOM     53  H   UNL     1       7.833   6.322  24.125  0.00  0.00    +0.210 HD
ENDBRANCH  45  52
ENDBRANCH  40  44
ENDBRANCH   1  40
TORSDOF 16
ENDMDL
MODEL 4
REMARK VINA RESULT:      -7.0      1.677      5.352
REMARK  Name = 
REMARK  19 active torsions:
REMARK  status: ('A' for Active; 'I' for Inactive)
REMARK    1  A    between atoms: C_1  and  C_2
REMARK    2  A    between atoms: C_3  and  O_50
REMARK    3  A    between atoms: C_5  and  O_49
REMARK    4  A    between atoms: C_6  and  O_48
REMARK    5  A    between atoms: C_8  and  O_11
REMARK    6  A    between atoms: O_11  and  C_12
REMARK    7  A    between atoms: C_13  and  O_24
REMARK    8  A    between atoms: C_16  and  C_22
REMARK    9  A    between atoms: C_17  and  O_21
REMARK   10  A    between atoms: C_19  and  O_20
REMARK   11  A    between atoms: C_22  and  O_23
REMARK   12  A    between atoms: O_24  and  C_25
REMARK   13  A    between atoms: C_26  and  C_38
REMARK   14  A    between atoms: C_30  and  O_37
REMARK   15  A    between atoms: C_32  and  O_36
REMARK   16  A    between atoms: C_40  and  O_46
REMARK   17  A    between atoms: C_41  and  O_44
REMARK   18  A    between atoms: O_44  and  C_45
REMARK   19  A    between atoms: O_46  and  C_47
REMARK                            x       y       z     vdW  Elec       q    Type
REMARK                         _______ _______ _______ _____ _____    ______ ____
ROOT
ATOM      1  C   UNL     1       4.861  -0.494  27.478  0.00  0.00    +0.221 C 
ATOM      2  C   UNL     1       3.596  -1.387  27.489  0.00  0.00    +0.180 C 
ATOM      3  C   UNL     1       3.930  -2.887  27.530  0.00  0.00    +0.177 C 
ATOM      4  C   UNL     1       4.915  -3.254  26.427  0.00  0.00    +0.179 C 
ATOM      5  O   UNL     1       6.083  -2.457  26.591  0.00  0.00    -0.331 OA
ATOM      6  C   UNL     1       5.967  -1.042  26.530  0.00  0.00    +0.340 C 
ENDROOT
BRANCH   3   7
ATOM      7  O   UNL     1       4.511  -3.229  28.799  0.00  0.00    -0.386 OA
ATOM      8  H   UNL     1       3.779  -3.426  29.418  0.00  0.00    +0.210 HD
ENDBRANCH   3   7
BRANCH   2   9
ATOM      9  O   UNL     1       2.732  -1.126  26.377  0.00  0.00    -0.386 OA
ATOM     10  H   UNL     1       2.318  -1.950  26.067  0.00  0.00    +0.210 HD
ENDBRANCH   2   9
BRANCH   6  11
ATOM     11  O   UNL     1       5.828  -0.511  25.198  0.00  0.00    -0.453 OA
BRANCH  11  12
ATOM     12  C   UNL     1       6.912   0.242  24.710  0.00  0.00    +0.214 A 
ATOM     13  C   UNL     1       7.100   1.691  25.035  0.00  0.00    +0.238 A 
ATOM     14  O   UNL     1       6.341   2.306  25.765  0.00  0.00    -0.283 OA
ATOM     15  C   UNL     1       8.254   2.394  24.462  0.00  0.00    +0.109 A 
ATOM     16  C   UNL     1       9.191   1.639  23.765  0.00  0.00    +0.147 A 
ATOM     17  C   UNL     1      10.366   2.251  23.316  0.00  0.00    +0.092 A 
ATOM     18  C   UNL     1      10.567   3.614  23.546  0.00  0.00    +0.124 A 
ATOM     19  C   UNL     1       9.613   4.384  24.196  0.00  0.00    +0.091 A 
ATOM     20  O   UNL     1       9.014   0.309  23.480  0.00  0.00    -0.451 OA
ATOM     21  C   UNL     1       8.448   3.774  24.648  0.00  0.00    +0.135 A 
ATOM     22  C   UNL     1       7.859  -0.329  23.929  0.00  0.00    +0.181 A 
BRANCH  22  23
ATOM     23  C   UNL     1       7.726  -1.722  23.457  0.00  0.00    +0.025 A 
ATOM     24  C   UNL     1       6.808  -2.033  22.440  0.00  0.00    +0.015 A 
ATOM     25  C   UNL     1       6.541  -3.364  22.092  0.00  0.00    +0.050 A 
ATOM     26  C   UNL     1       7.209  -4.401  22.743  0.00  0.00    +0.162 A 
ATOM     27  C   UNL     1       8.204  -4.097  23.694  0.00  0.00    +0.162 A 
ATOM     28  C   UNL     1       8.450  -2.763  24.056  0.00  0.00    +0.061 A 
BRANCH  27  29
ATOM     29  O   UNL     1       8.848  -5.182  24.233  0.00  0.00    -0.491 OA
ATOM     30  C   UNL     1       9.595  -4.978  25.422  0.00  0.00    +0.277 C 
ENDBRANCH  27  29
BRANCH  26  31
ATOM     31  O   UNL     1       6.952  -5.736  22.570  0.00  0.00    -0.491 OA
ATOM     32  C   UNL     1       6.267  -6.148  21.400  0.00  0.00    +0.277 C 
ENDBRANCH  26  31
ENDBRANCH  22  23
BRANCH  21  33
ATOM     33  O   UNL     1       7.498   4.554  25.245  0.00  0.00    -0.506 OA
ATOM     34  H   UNL     1       7.759   5.487  25.237  0.00  0.00    +0.292 HD
ENDBRANCH  21  33
BRANCH  18  35
ATOM     35  O   UNL     1      11.693   4.259  23.147  0.00  0.00    -0.507 OA
ATOM     36  H   UNL     1      11.628   4.456  22.194  0.00  0.00    +0.292 HD
ENDBRANCH  18  35
ENDBRANCH  11  12
ENDBRANCH   6  11
BRANCH   4  37
ATOM     37  C   UNL     1       4.367  -3.202  24.993  0.00  0.00    +0.190 C 
BRANCH  37  38
ATOM     38  O   UNL     1       3.031  -3.711  24.948  0.00  0.00    -0.392 OA
ATOM     39  H   UNL     1       2.454  -2.997  25.284  0.00  0.00    +0.210 HD
ENDBRANCH  37  38
ENDBRANCH   4  37
BRANCH   1  40
ATOM     40  O   UNL     1       5.332  -0.387  28.842  0.00  0.00    -0.337 OA
BRANCH  40  44
ATOM     41  C   UNL     1       3.924   3.489  29.935  0.00  0.00    +0.041 C 
ATOM     42  C   UNL     1       4.975   3.253  28.848  0.00  0.00    +0.149 C 
ATOM     43  O   UNL     1       4.969   1.881  28.412  0.00  0.00    -0.343 OA
ATOM     44  C   UNL     1       5.518   0.945  29.349  0.00  0.00    +0.282 C 
ATOM     45  C   UNL     1       6.994   1.293  29.643  0.00  0.00    +0.201 C 
ATOM     46  C   UNL     1       7.059   2.711  30.208  0.00  0.00    +0.179 C 
ATOM     47  C   UNL     1       6.384   3.715  29.265  0.00  0.00    +0.174 C 
BRANCH  47  48
ATOM     48  O   UNL     1       7.223   3.848  28.103  0.00  0.00    -0.387 OA
ATOM     49  H   UNL     1       7.835   4.596  28.288  0.00  0.00    +0.210 HD
ENDBRANCH  47  48
BRANCH  46  50
ATOM     50  O   UNL     1       8.437   3.064  30.402  0.00  0.00    -0.386 OA
ATOM     51  H   UNL     1       8.432   3.718  31.134  0.00  0.00    +0.210 HD
ENDBRANCH  46  50
BRANCH  45  52
ATOM     52  O   UNL     1       7.786   1.198  28.444  0.00  0.00    -0.384 OA
ATOM     53  H   UNL     1       7.330   0.568  27.857  0.00  0.00    +0.210 HD
ENDBRANCH  45  52
ENDBRANCH  40  44
ENDBRANCH   1  40
TORSDOF 16
ENDMDL
MODEL 5
REMARK VINA RESULT:      -7.0      2.341      6.953
REMARK  Name = 
REMARK  19 active torsions:
REMARK  status: ('A' for Active; 'I' for Inactive)
REMARK    1  A    between atoms: C_1  and  C_2
REMARK    2  A    between atoms: C_3  and  O_50
REMARK    3  A    between atoms: C_5  and  O_49
REMARK    4  A    between atoms: C_6  and  O_48
REMARK    5  A    between atoms: C_8  and  O_11
REMARK    6  A    between atoms: O_11  and  C_12
REMARK    7  A    between atoms: C_13  and  O_24
REMARK    8  A    between atoms: C_16  and  C_22
REMARK    9  A    between atoms: C_17  and  O_21
REMARK   10  A    between atoms: C_19  and  O_20
REMARK   11  A    between atoms: C_22  and  O_23
REMARK   12  A    between atoms: O_24  and  C_25
REMARK   13  A    between atoms: C_26  and  C_38
REMARK   14  A    between atoms: C_30  and  O_37
REMARK   15  A    between atoms: C_32  and  O_36
REMARK   16  A    between atoms: C_40  and  O_46
REMARK   17  A    between atoms: C_41  and  O_44
REMARK   18  A    between atoms: O_44  and  C_45
REMARK   19  A    between atoms: O_46  and  C_47
REMARK                            x       y       z     vdW  Elec       q    Type
REMARK                         _______ _______ _______ _____ _____    ______ ____
ROOT
ATOM      1  C   UNL     1       7.693  -0.737  23.028  0.00  0.00    +0.221 C 
ATOM      2  C   UNL     1       8.580   0.215  22.189  0.00  0.00    +0.180 C 
ATOM      3  C   UNL     1      10.073  -0.140  22.271  0.00  0.00    +0.177 C 
ATOM      4  C   UNL     1      10.524  -0.260  23.722  0.00  0.00    +0.179 C 
ATOM      5  O   UNL     1       9.719  -1.247  24.356  0.00  0.00    -0.331 OA
ATOM      6  C   UNL     1       8.312  -1.056  24.419  0.00  0.00    +0.340 C 
ENDROOT
BRANCH   3   7
ATOM      7  O   UNL     1      10.320  -1.390  21.607  0.00  0.00    -0.386 OA
ATOM      8  H   UNL     1      10.264  -2.100  22.279  0.00  0.00    +0.210 HD
ENDBRANCH   3   7
BRANCH   2   9
ATOM      9  O   UNL     1       8.401   1.590  22.551  0.00  0.00    -0.386 OA
ATOM     10  H   UNL     1       8.275   1.675  23.512  0.00  0.00    +0.210 HD
ENDBRANCH   2   9
BRANCH   6  11
ATOM     11  O   UNL     1       7.882  -0.108  25.415  0.00  0.00    -0.453 OA
BRANCH  11  12
ATOM     12  C   UNL     1       6.588  -0.293  25.935  0.00  0.00    +0.214 A 
ATOM     13  C   UNL     1       6.190  -1.523  26.690  0.00  0.00    +0.238 A 
ATOM     14  O   UNL     1       6.969  -2.431  26.926  0.00  0.00    -0.283 OA
ATOM     15  C   UNL     1       4.809  -1.630  27.178  0.00  0.00    +0.109 A 
ATOM     16  C   UNL     1       3.985  -0.519  27.038  0.00  0.00    +0.147 A 
ATOM     17  C   UNL     1       2.707  -0.540  27.604  0.00  0.00    +0.092 A 
ATOM     18  C   UNL     1       2.266  -1.684  28.274  0.00  0.00    +0.124 A 
ATOM     19  C   UNL     1       3.063  -2.814  28.373  0.00  0.00    +0.091 A 
ATOM     20  O   UNL     1       4.363   0.607  26.351  0.00  0.00    -0.451 OA
ATOM     21  C   UNL     1       4.338  -2.791  27.815  0.00  0.00    +0.135 A 
ATOM     22  C   UNL     1       5.637   0.660  25.790  0.00  0.00    +0.181 A 
BRANCH  22  23
ATOM     23  C   UNL     1       5.881   1.868  24.976  0.00  0.00    +0.025 A 
ATOM     24  C   UNL     1       6.830   2.815  25.396  0.00  0.00    +0.015 A 
ATOM     25  C   UNL     1       6.962   4.045  24.736  0.00  0.00    +0.050 A 
ATOM     26  C   UNL     1       6.160   4.331  23.632  0.00  0.00    +0.162 A 
ATOM     27  C   UNL     1       5.275   3.349  23.143  0.00  0.00    +0.162 A 
ATOM     28  C   UNL     1       5.130   2.129  23.821  0.00  0.00    +0.061 A 
BRANCH  27  29
ATOM     29  O   UNL     1       4.576   3.703  22.017  0.00  0.00    -0.491 OA
ATOM     30  C   UNL     1       3.179   3.456  22.007  0.00  0.00    +0.277 C 
ENDBRANCH  27  29
BRANCH  26  31
ATOM     31  O   UNL     1       6.118   5.536  22.980  0.00  0.00    -0.491 OA
ATOM     32  C   UNL     1       7.222   5.910  22.174  0.00  0.00    +0.277 C 
ENDBRANCH  26  31
ENDBRANCH  22  23
BRANCH  21  33
ATOM     33  O   UNL     1       5.094  -3.927  27.881  0.00  0.00    -0.506 OA
ATOM     34  H   UNL     1       5.121  -4.377  27.023  0.00  0.00    +0.292 HD
ENDBRANCH  21  33
BRANCH  18  35
ATOM     35  O   UNL     1       1.041  -1.757  28.855  0.00  0.00    -0.507 OA
ATOM     36  H   UNL     1       0.454  -1.093  28.449  0.00  0.00    +0.292 HD
ENDBRANCH  18  35
ENDBRANCH  11  12
ENDBRANCH   6  11
BRANCH   4  37
ATOM     37  C   UNL     1      10.578   1.053  24.518  0.00  0.00    +0.190 C 
BRANCH  37  38
ATOM     38  O   UNL     1      10.987   2.134  23.676  0.00  0.00    -0.392 OA
ATOM     39  H   UNL     1      10.174   2.472  23.250  0.00  0.00    +0.210 HD
ENDBRANCH  37  38
ENDBRANCH   4  37
BRANCH   1  40
ATOM     40  O   UNL     1       7.485  -1.938  22.248  0.00  0.00    -0.337 OA
BRANCH  40  44
ATOM     41  C   UNL     1       7.567  -5.138  25.069  0.00  0.00    +0.041 C 
ATOM     42  C   UNL     1       7.343  -5.345  23.570  0.00  0.00    +0.149 C 
ATOM     43  O   UNL     1       7.754  -4.188  22.819  0.00  0.00    -0.343 OA
ATOM     44  C   UNL     1       6.890  -3.050  22.938  0.00  0.00    +0.282 C 
ATOM     45  C   UNL     1       5.475  -3.405  22.433  0.00  0.00    +0.201 C 
ATOM     46  C   UNL     1       4.936  -4.571  23.261  0.00  0.00    +0.179 C 
ATOM     47  C   UNL     1       5.900  -5.764  23.230  0.00  0.00    +0.174 C 
BRANCH  47  48
ATOM     48  O   UNL     1       5.848  -6.327  21.907  0.00  0.00    -0.387 OA
ATOM     49  H   UNL     1       5.333  -7.163  21.982  0.00  0.00    +0.210 HD
ENDBRANCH  47  48
BRANCH  46  50
ATOM     50  O   UNL     1       3.657  -4.953  22.736  0.00  0.00    -0.386 OA
ATOM     51  H   UNL     1       3.049  -4.225  22.988  0.00  0.00    +0.210 HD
ENDBRANCH  46  50
BRANCH  45  52
ATOM     52  O   UNL     1       5.508  -3.761  21.037  0.00  0.00    -0.384 OA
ATOM     53  H   UNL     1       5.012  -3.071  20.561  0.00  0.00    +0.210 HD
ENDBRANCH  45  52
ENDBRANCH  40  44
ENDBRANCH   1  40
TORSDOF 16
ENDMDL
MODEL 6
REMARK VINA RESULT:      -7.0      2.181      7.415
REMARK  Name = 
REMARK  19 active torsions:
REMARK  status: ('A' for Active; 'I' for Inactive)
REMARK    1  A    between atoms: C_1  and  C_2
REMARK    2  A    between atoms: C_3  and  O_50
REMARK    3  A    between atoms: C_5  and  O_49
REMARK    4  A    between atoms: C_6  and  O_48
REMARK    5  A    between atoms: C_8  and  O_11
REMARK    6  A    between atoms: O_11  and  C_12
REMARK    7  A    between atoms: C_13  and  O_24
REMARK    8  A    between atoms: C_16  and  C_22
REMARK    9  A    between atoms: C_17  and  O_21
REMARK   10  A    between atoms: C_19  and  O_20
REMARK   11  A    between atoms: C_22  and  O_23
REMARK   12  A    between atoms: O_24  and  C_25
REMARK   13  A    between atoms: C_26  and  C_38
REMARK   14  A    between atoms: C_30  and  O_37
REMARK   15  A    between atoms: C_32  and  O_36
REMARK   16  A    between atoms: C_40  and  O_46
REMARK   17  A    between atoms: C_41  and  O_44
REMARK   18  A    between atoms: O_44  and  C_45
REMARK   19  A    between atoms: O_46  and  C_47
REMARK                            x       y       z     vdW  Elec       q    Type
REMARK                         _______ _______ _______ _____ _____    ______ ____
ROOT
ATOM      1  C   UNL     1       8.809   0.829  23.428  0.00  0.00    +0.221 C 
ATOM      2  C   UNL     1      10.061  -0.048  23.185  0.00  0.00    +0.180 C 
ATOM      3  C   UNL     1       9.769  -1.266  22.295  0.00  0.00    +0.177 C 
ATOM      4  C   UNL     1       8.577  -2.053  22.827  0.00  0.00    +0.179 C 
ATOM      5  O   UNL     1       7.459  -1.176  22.892  0.00  0.00    -0.331 OA
ATOM      6  C   UNL     1       7.535  -0.018  23.713  0.00  0.00    +0.340 C 
ENDROOT
BRANCH   3   7
ATOM      7  O   UNL     1       9.477  -0.838  20.954  0.00  0.00    -0.386 OA
ATOM      8  H   UNL     1       9.649  -1.594  20.357  0.00  0.00    +0.210 HD
ENDBRANCH   3   7
BRANCH   2   9
ATOM      9  O   UNL     1      10.664  -0.490  24.408  0.00  0.00    -0.386 OA
ATOM     10  H   UNL     1      10.029  -0.430  25.141  0.00  0.00    +0.210 HD
ENDBRANCH   2   9
BRANCH   6  11
ATOM     11  O   UNL     1       7.379  -0.274  25.122  0.00  0.00    -0.453 OA
BRANCH  11  12
ATOM     12  C   UNL     1       6.162   0.133  25.699  0.00  0.00    +0.214 A 
ATOM     13  C   UNL     1       5.877   1.557  26.061  0.00  0.00    +0.238 A 
ATOM     14  O   UNL     1       6.670   2.460  25.855  0.00  0.00    -0.283 OA
ATOM     15  C   UNL     1       4.583   1.879  26.676  0.00  0.00    +0.109 A 
ATOM     16  C   UNL     1       3.635   0.866  26.755  0.00  0.00    +0.147 A 
ATOM     17  C   UNL     1       2.349   1.167  27.216  0.00  0.00    +0.092 A 
ATOM     18  C   UNL     1       2.046   2.470  27.617  0.00  0.00    +0.124 A 
ATOM     19  C   UNL     1       3.002   3.474  27.589  0.00  0.00    +0.091 A 
ATOM     20  O   UNL     1       3.903  -0.436  26.413  0.00  0.00    -0.451 OA
ATOM     21  C   UNL     1       4.279   3.176  27.124  0.00  0.00    +0.135 A 
ATOM     22  C   UNL     1       5.172  -0.759  25.936  0.00  0.00    +0.181 A 
BRANCH  22  23
ATOM     23  C   UNL     1       5.375  -2.206  25.717  0.00  0.00    +0.025 A 
ATOM     24  C   UNL     1       4.901  -2.809  24.540  0.00  0.00    +0.015 A 
ATOM     25  C   UNL     1       4.931  -4.202  24.382  0.00  0.00    +0.050 A 
ATOM     26  C   UNL     1       5.459  -5.006  25.392  0.00  0.00    +0.162 A 
ATOM     27  C   UNL     1       6.028  -4.404  26.533  0.00  0.00    +0.162 A 
ATOM     28  C   UNL     1       5.974  -3.011  26.697  0.00  0.00    +0.061 A 
BRANCH  27  29
ATOM     29  O   UNL     1       6.577  -5.275  27.439  0.00  0.00    -0.491 OA
ATOM     30  C   UNL     1       5.916  -5.427  28.686  0.00  0.00    +0.277 C 
ENDBRANCH  27  29
BRANCH  26  31
ATOM     31  O   UNL     1       5.438  -6.377  25.401  0.00  0.00    -0.491 OA
ATOM     32  C   UNL     1       4.184  -7.035  25.386  0.00  0.00    +0.277 C 
ENDBRANCH  26  31
ENDBRANCH  22  23
BRANCH  21  33
ATOM     33  O   UNL     1       5.223   4.164  27.145  0.00  0.00    -0.506 OA
ATOM     34  H   UNL     1       5.646   4.260  26.278  0.00  0.00    +0.292 HD
ENDBRANCH  21  33
BRANCH  18  35
ATOM     35  O   UNL     1       0.812   2.824  28.060  0.00  0.00    -0.507 OA
ATOM     36  H   UNL     1       0.138   2.434  27.474  0.00  0.00    +0.292 HD
ENDBRANCH  18  35
ENDBRANCH  11  12
ENDBRANCH   6  11
BRANCH   4  37
ATOM     37  C   UNL     1       8.807  -2.809  24.144  0.00  0.00    +0.190 C 
BRANCH  37  38
ATOM     38  O   UNL     1      10.100  -3.421  24.152  0.00  0.00    -0.392 OA
ATOM     39  H   UNL     1      10.021  -4.220  24.710  0.00  0.00    +0.210 HD
ENDBRANCH  37  38
ENDBRANCH   4  37
BRANCH   1  40
ATOM     40  O   UNL     1       8.638   1.676  22.267  0.00  0.00    -0.337 OA
BRANCH  40  44
ATOM     41  C   UNL     1      10.186   5.375  23.725  0.00  0.00    +0.041 C 
ATOM     42  C   UNL     1       8.911   4.726  24.266  0.00  0.00    +0.149 C 
ATOM     43  O   UNL     1       8.839   3.336  23.899  0.00  0.00    -0.343 OA
ATOM     44  C   UNL     1       8.551   3.089  22.517  0.00  0.00    +0.282 C 
ATOM     45  C   UNL     1       7.183   3.700  22.143  0.00  0.00    +0.201 C 
ATOM     46  C   UNL     1       7.226   5.202  22.417  0.00  0.00    +0.179 C 
ATOM     47  C   UNL     1       7.633   5.490  23.867  0.00  0.00    +0.174 C 
BRANCH  47  48
ATOM     48  O   UNL     1       6.537   5.093  24.711  0.00  0.00    -0.387 OA
ATOM     49  H   UNL     1       6.655   5.574  25.561  0.00  0.00    +0.210 HD
ENDBRANCH  47  48
BRANCH  46  50
ATOM     50  O   UNL     1       5.928   5.754  22.148  0.00  0.00    -0.386 OA
ATOM     51  H   UNL     1       6.068   6.724  22.101  0.00  0.00    +0.210 HD
ENDBRANCH  46  50
BRANCH  45  52
ATOM     52  O   UNL     1       6.128   3.085  22.907  0.00  0.00    -0.384 OA
ATOM     53  H   UNL     1       6.220   2.122  22.787  0.00  0.00    +0.210 HD
ENDBRANCH  45  52
ENDBRANCH  40  44
ENDBRANCH   1  40
TORSDOF 16
ENDMDL
MODEL 7
REMARK VINA RESULT:      -6.7      2.216      7.183
REMARK  Name = 
REMARK  19 active torsions:
REMARK  status: ('A' for Active; 'I' for Inactive)
REMARK    1  A    between atoms: C_1  and  C_2
REMARK    2  A    between atoms: C_3  and  O_50
REMARK    3  A    between atoms: C_5  and  O_49
REMARK    4  A    between atoms: C_6  and  O_48
REMARK    5  A    between atoms: C_8  and  O_11
REMARK    6  A    between atoms: O_11  and  C_12
REMARK    7  A    between atoms: C_13  and  O_24
REMARK    8  A    between atoms: C_16  and  C_22
REMARK    9  A    between atoms: C_17  and  O_21
REMARK   10  A    between atoms: C_19  and  O_20
REMARK   11  A    between atoms: C_22  and  O_23
REMARK   12  A    between atoms: O_24  and  C_25
REMARK   13  A    between atoms: C_26  and  C_38
REMARK   14  A    between atoms: C_30  and  O_37
REMARK   15  A    between atoms: C_32  and  O_36
REMARK   16  A    between atoms: C_40  and  O_46
REMARK   17  A    between atoms: C_41  and  O_44
REMARK   18  A    between atoms: O_44  and  C_45
REMARK   19  A    between atoms: O_46  and  C_47
REMARK                            x       y       z     vdW  Elec       q    Type
REMARK                         _______ _______ _______ _____ _____    ______ ____
ROOT
ATOM      1  C   UNL     1       7.728  -1.436  23.245  0.00  0.00    +0.221 C 
ATOM      2  C   UNL     1       8.339  -0.210  22.524  0.00  0.00    +0.180 C 
ATOM      3  C   UNL     1       9.854  -0.345  22.306  0.00  0.00    +0.177 C 
ATOM      4  C   UNL     1      10.562  -0.691  23.610  0.00  0.00    +0.179 C 
ATOM      5  O   UNL     1      10.000  -1.896  24.115  0.00  0.00    -0.331 OA
ATOM      6  C   UNL     1       8.613  -1.936  24.423  0.00  0.00    +0.340 C 
ENDROOT
BRANCH   3   7
ATOM      7  O   UNL     1      10.123  -1.382  21.347  0.00  0.00    -0.386 OA
ATOM      8  H   UNL     1       9.833  -2.231  21.737  0.00  0.00    +0.210 HD
ENDBRANCH   3   7
BRANCH   2   9
ATOM      9  O   UNL     1       8.069   1.019  23.210  0.00  0.00    -0.386 OA
ATOM     10  H   UNL     1       8.414   1.774  22.704  0.00  0.00    +0.210 HD
ENDBRANCH   2   9
BRANCH   6  11
ATOM     11  O   UNL     1       8.257  -1.287  25.660  0.00  0.00    -0.453 OA
BRANCH  11  12
ATOM     12  C   UNL     1       7.193  -1.860  26.381  0.00  0.00    +0.214 A 
ATOM     13  C   UNL     1       7.142  -3.317  26.722  0.00  0.00    +0.238 A 
ATOM     14  O   UNL     1       8.030  -4.095  26.421  0.00  0.00    -0.283 OA
ATOM     15  C   UNL     1       5.980  -3.822  27.464  0.00  0.00    +0.109 A 
ATOM     16  C   UNL     1       5.059  -2.894  27.935  0.00  0.00    +0.147 A 
ATOM     17  C   UNL     1       4.010  -3.325  28.753  0.00  0.00    +0.092 A 
ATOM     18  C   UNL     1       3.885  -4.682  29.059  0.00  0.00    +0.124 A 
ATOM     19  C   UNL     1       4.770  -5.621  28.550  0.00  0.00    +0.091 A 
ATOM     20  O   UNL     1       5.120  -1.558  27.624  0.00  0.00    -0.451 OA
ATOM     21  C   UNL     1       5.817  -5.190  27.742  0.00  0.00    +0.135 A 
ATOM     22  C   UNL     1       6.164  -1.100  26.823  0.00  0.00    +0.181 A 
BRANCH  22  23
ATOM     23  C   UNL     1       6.054   0.327  26.459  0.00  0.00    +0.025 A 
ATOM     24  C   UNL     1       5.325   0.705  25.319  0.00  0.00    +0.015 A 
ATOM     25  C   UNL     1       5.344   2.029  24.858  0.00  0.00    +0.050 A 
ATOM     26  C   UNL     1       6.074   2.996  25.548  0.00  0.00    +0.162 A 
ATOM     27  C   UNL     1       6.726   2.648  26.749  0.00  0.00    +0.162 A 
ATOM     28  C   UNL     1       6.724   1.317  27.193  0.00  0.00    +0.061 A 
BRANCH  27  29
ATOM     29  O   UNL     1       7.365   3.681  27.386  0.00  0.00    -0.491 OA
ATOM     30  C   UNL     1       6.781   4.175  28.582  0.00  0.00    +0.277 C 
ENDBRANCH  27  29
BRANCH  26  31
ATOM     31  O   UNL     1       6.260   4.290  25.133  0.00  0.00    -0.491 OA
ATOM     32  C   UNL     1       5.126   5.130  25.009  0.00  0.00    +0.277 C 
ENDBRANCH  26  31
ENDBRANCH  22  23
BRANCH  21  33
ATOM     33  O   UNL     1       6.654  -6.131  27.211  0.00  0.00    -0.506 OA
ATOM     34  H   UNL     1       6.154  -6.881  26.855  0.00  0.00    +0.292 HD
ENDBRANCH  21  33
BRANCH  18  35
ATOM     35  O   UNL     1       2.896  -5.158  29.859  0.00  0.00    -0.507 OA
ATOM     36  H   UNL     1       2.034  -4.856  29.515  0.00  0.00    +0.292 HD
ENDBRANCH  18  35
ENDBRANCH  11  12
ENDBRANCH   6  11
BRANCH   4  37
ATOM     37  C   UNL     1      10.603   0.424  24.666  0.00  0.00    +0.190 C 
BRANCH  37  38
ATOM     38  O   UNL     1      10.881   1.686  24.053  0.00  0.00    -0.392 OA
ATOM     39  H   UNL     1      10.777   2.360  24.753  0.00  0.00    +0.210 HD
ENDBRANCH  37  38
ENDBRANCH   4  37
BRANCH   1  40
ATOM     40  O   UNL     1       7.526  -2.470  22.253  0.00  0.00    -0.337 OA
BRANCH  40  44
ATOM     41  C   UNL     1       8.200  -6.650  22.776  0.00  0.00    +0.041 C 
ATOM     42  C   UNL     1       6.983  -6.080  22.044  0.00  0.00    +0.149 C 
ATOM     43  O   UNL     1       7.200  -4.708  21.667  0.00  0.00    -0.343 OA
ATOM     44  C   UNL     1       7.169  -3.770  22.751  0.00  0.00    +0.282 C 
ATOM     45  C   UNL     1       5.790  -3.808  23.445  0.00  0.00    +0.201 C 
ATOM     46  C   UNL     1       5.540  -5.225  23.960  0.00  0.00    +0.179 C 
ATOM     47  C   UNL     1       5.671  -6.256  22.833  0.00  0.00    +0.174 C 
BRANCH  47  48
ATOM     48  O   UNL     1       4.542  -6.084  21.956  0.00  0.00    -0.387 OA
ATOM     49  H   UNL     1       4.878  -6.226  21.042  0.00  0.00    +0.210 HD
ENDBRANCH  47  48
BRANCH  46  50
ATOM     50  O   UNL     1       4.224  -5.279  24.531  0.00  0.00    -0.386 OA
ATOM     51  H   UNL     1       3.858  -6.144  24.246  0.00  0.00    +0.210 HD
ENDBRANCH  46  50
BRANCH  45  52
ATOM     52  O   UNL     1       4.749  -3.422  22.527  0.00  0.00    -0.384 OA
ATOM     53  H   UNL     1       4.428  -4.241  22.107  0.00  0.00    +0.210 HD
ENDBRANCH  45  52
ENDBRANCH  40  44
ENDBRANCH   1  40
TORSDOF 16
ENDMDL
MODEL 8
REMARK VINA RESULT:      -6.7      1.788      6.720
REMARK  Name = 
REMARK  19 active torsions:
REMARK  status: ('A' for Active; 'I' for Inactive)
REMARK    1  A    between atoms: C_1  and  C_2
REMARK    2  A    between atoms: C_3  and  O_50
REMARK    3  A    between atoms: C_5  and  O_49
REMARK    4  A    between atoms: C_6  and  O_48
REMARK    5  A    between atoms: C_8  and  O_11
REMARK    6  A    between atoms: O_11  and  C_12
REMARK    7  A    between atoms: C_13  and  O_24
REMARK    8  A    between atoms: C_16  and  C_22
REMARK    9  A    between atoms: C_17  and  O_21
REMARK   10  A    between atoms: C_19  and  O_20
REMARK   11  A    between atoms: C_22  and  O_23
REMARK   12  A    between atoms: O_24  and  C_25
REMARK   13  A    between atoms: C_26  and  C_38
REMARK   14  A    between atoms: C_30  and  O_37
REMARK   15  A    between atoms: C_32  and  O_36
REMARK   16  A    between atoms: C_40  and  O_46
REMARK   17  A    between atoms: C_41  and  O_44
REMARK   18  A    between atoms: O_44  and  C_45
REMARK   19  A    between atoms: O_46  and  C_47
REMARK                            x       y       z     vdW  Elec       q    Type
REMARK                         _______ _______ _______ _____ _____    ______ ____
ROOT
ATOM      1  C   UNL     1       8.058  -1.078  22.247  0.00  0.00    +0.221 C 
ATOM      2  C   UNL     1       9.571  -0.820  22.044  0.00  0.00    +0.180 C 
ATOM      3  C   UNL     1      10.420  -1.316  23.224  0.00  0.00    +0.177 C 
ATOM      4  C   UNL     1       9.888  -0.770  24.544  0.00  0.00    +0.179 C 
ATOM      5  O   UNL     1       8.530  -1.173  24.675  0.00  0.00    -0.331 OA
ATOM      6  C   UNL     1       7.588  -0.758  23.695  0.00  0.00    +0.340 C 
ENDROOT
BRANCH   3   7
ATOM      7  O   UNL     1      10.399  -2.752  23.278  0.00  0.00    -0.386 OA
ATOM      8  H   UNL     1      11.060  -3.035  23.942  0.00  0.00    +0.210 HD
ENDBRANCH   3   7
BRANCH   2   9
ATOM      9  O   UNL     1       9.861   0.562  21.801  0.00  0.00    -0.386 OA
ATOM     10  H   UNL     1       9.346   1.129  22.402  0.00  0.00    +0.210 HD
ENDBRANCH   2   9
BRANCH   6  11
ATOM     11  O   UNL     1       7.163   0.613  23.818  0.00  0.00    -0.453 OA
BRANCH  11  12
ATOM     12  C   UNL     1       6.338   0.915  24.918  0.00  0.00    +0.214 A 
ATOM     13  C   UNL     1       5.335  -0.053  25.464  0.00  0.00    +0.238 A 
ATOM     14  O   UNL     1       5.187  -1.174  25.009  0.00  0.00    -0.283 OA
ATOM     15  C   UNL     1       4.509   0.362  26.604  0.00  0.00    +0.109 A 
ATOM     16  C   UNL     1       4.804   1.580  27.207  0.00  0.00    +0.147 A 
ATOM     17  C   UNL     1       4.123   1.949  28.372  0.00  0.00    +0.092 A 
ATOM     18  C   UNL     1       3.140   1.106  28.895  0.00  0.00    +0.124 A 
ATOM     19  C   UNL     1       2.805  -0.086  28.269  0.00  0.00    +0.091 A 
ATOM     20  O   UNL     1       5.731   2.457  26.703  0.00  0.00    -0.451 OA
ATOM     21  C   UNL     1       3.487  -0.456  27.114  0.00  0.00    +0.135 A 
ATOM     22  C   UNL     1       6.434   2.107  25.552  0.00  0.00    +0.181 A 
BRANCH  22  23
ATOM     23  C   UNL     1       7.312   3.179  25.041  0.00  0.00    +0.025 A 
ATOM     24  C   UNL     1       7.727   3.164  23.699  0.00  0.00    +0.015 A 
ATOM     25  C   UNL     1       8.689   4.070  23.231  0.00  0.00    +0.050 A 
ATOM     26  C   UNL     1       9.232   5.018  24.099  0.00  0.00    +0.162 A 
ATOM     27  C   UNL     1       8.749   5.106  25.421  0.00  0.00    +0.162 A 
ATOM     28  C   UNL     1       7.803   4.182  25.890  0.00  0.00    +0.061 A 
BRANCH  27  29
ATOM     29  O   UNL     1       9.299   6.110  26.176  0.00  0.00    -0.491 OA
ATOM     30  C   UNL     1       8.440   6.809  27.063  0.00  0.00    +0.277 C 
ENDBRANCH  27  29
BRANCH  26  31
ATOM     31  O   UNL     1      10.256   5.875  23.790  0.00  0.00    -0.491 OA
ATOM     32  C   UNL     1      11.548   5.337  23.573  0.00  0.00    +0.277 C 
ENDBRANCH  26  31
ENDBRANCH  22  23
BRANCH  21  33
ATOM     33  O   UNL     1       3.115  -1.610  26.485  0.00  0.00    -0.506 OA
ATOM     34  H   UNL     1       2.228  -1.528  26.102  0.00  0.00    +0.292 HD
ENDBRANCH  21  33
BRANCH  18  35
ATOM     35  O   UNL     1       2.457   1.404  30.029  0.00  0.00    -0.507 OA
ATOM     36  H   UNL     1       2.067   2.294  29.944  0.00  0.00    +0.292 HD
ENDBRANCH  18  35
ENDBRANCH  11  12
ENDBRANCH   6  11
BRANCH   4  37
ATOM     37  C   UNL     1      10.077   0.737  24.771  0.00  0.00    +0.190 C 
BRANCH  37  38
ATOM     38  O   UNL     1      11.371   1.153  24.324  0.00  0.00    -0.392 OA
ATOM     39  H   UNL     1      11.832   1.506  25.111  0.00  0.00    +0.210 HD
ENDBRANCH  37  38
ENDBRANCH   4  37
BRANCH   1  40
ATOM     40  O   UNL     1       7.800  -2.458  21.895  0.00  0.00    -0.337 OA
BRANCH  40  44
ATOM     41  C   UNL     1       7.200  -4.494  25.595  0.00  0.00    +0.041 C 
ATOM     42  C   UNL     1       7.107  -5.184  24.233  0.00  0.00    +0.149 C 
ATOM     43  O   UNL     1       7.732  -4.390  23.207  0.00  0.00    -0.343 OA
ATOM     44  C   UNL     1       7.006  -3.215  22.823  0.00  0.00    +0.282 C 
ATOM     45  C   UNL     1       5.617  -3.606  22.273  0.00  0.00    +0.201 C 
ATOM     46  C   UNL     1       4.858  -4.370  23.357  0.00  0.00    +0.179 C 
ATOM     47  C   UNL     1       5.666  -5.576  23.855  0.00  0.00    +0.174 C 
BRANCH  47  48
ATOM     48  O   UNL     1       5.681  -6.551  22.797  0.00  0.00    -0.387 OA
ATOM     49  H   UNL     1       4.853  -6.415  22.283  0.00  0.00    +0.210 HD
ENDBRANCH  47  48
BRANCH  46  50
ATOM     50  O   UNL     1       3.602  -4.805  22.817  0.00  0.00    -0.386 OA
ATOM     51  H   UNL     1       3.820  -5.189  21.940  0.00  0.00    +0.210 HD
ENDBRANCH  46  50
BRANCH  45  52
ATOM     52  O   UNL     1       5.750  -4.419  21.092  0.00  0.00    -0.384 OA
ATOM     53  H   UNL     1       6.215  -3.876  20.429  0.00  0.00    +0.210 HD
ENDBRANCH  45  52
ENDBRANCH  40  44
ENDBRANCH   1  40
TORSDOF 16
ENDMDL
MODEL 9
REMARK VINA RESULT:      -6.6      2.146      6.526
REMARK  Name = 
REMARK  19 active torsions:
REMARK  status: ('A' for Active; 'I' for Inactive)
REMARK    1  A    between atoms: C_1  and  C_2
REMARK    2  A    between atoms: C_3  and  O_50
REMARK    3  A    between atoms: C_5  and  O_49
REMARK    4  A    between atoms: C_6  and  O_48
REMARK    5  A    between atoms: C_8  and  O_11
REMARK    6  A    between atoms: O_11  and  C_12
REMARK    7  A    between atoms: C_13  and  O_24
REMARK    8  A    between atoms: C_16  and  C_22
REMARK    9  A    between atoms: C_17  and  O_21
REMARK   10  A    between atoms: C_19  and  O_20
REMARK   11  A    between atoms: C_22  and  O_23
REMARK   12  A    between atoms: O_24  and  C_25
REMARK   13  A    between atoms: C_26  and  C_38
REMARK   14  A    between atoms: C_30  and  O_37
REMARK   15  A    between atoms: C_32  and  O_36
REMARK   16  A    between atoms: C_40  and  O_46
REMARK   17  A    between atoms: C_41  and  O_44
REMARK   18  A    between atoms: O_44  and  C_45
REMARK   19  A    between atoms: O_46  and  C_47
REMARK                            x       y       z     vdW  Elec       q    Type
REMARK                         _______ _______ _______ _____ _____    ______ ____
ROOT
ATOM      1  C   UNL     1       8.674  -2.812  25.150  0.00  0.00    +0.221 C 
ATOM      2  C   UNL     1       9.280  -4.155  25.625  0.00  0.00    +0.180 C 
ATOM      3  C   UNL     1       8.478  -5.372  25.139  0.00  0.00    +0.177 C 
ATOM      4  C   UNL     1       7.001  -5.223  25.484  0.00  0.00    +0.179 C 
ATOM      5  O   UNL     1       6.527  -4.019  24.894  0.00  0.00    -0.331 OA
ATOM      6  C   UNL     1       7.123  -2.784  25.269  0.00  0.00    +0.340 C 
ENDROOT
BRANCH   3   7
ATOM      7  O   UNL     1       8.606  -5.511  23.714  0.00  0.00    -0.386 OA
ATOM      8  H   UNL     1       9.366  -4.964  23.429  0.00  0.00    +0.210 HD
ENDBRANCH   3   7
BRANCH   2   9
ATOM      9  O   UNL     1       9.417  -4.219  27.050  0.00  0.00    -0.386 OA
ATOM     10  H   UNL     1      10.183  -3.694  27.341  0.00  0.00    +0.210 HD
ENDBRANCH   2   9
BRANCH   6  11
ATOM     11  O   UNL     1       6.704  -2.284  26.554  0.00  0.00    -0.453 OA
BRANCH  11  12
ATOM     12  C   UNL     1       5.931  -1.108  26.544  0.00  0.00    +0.214 A 
ATOM     13  C   UNL     1       6.541   0.259  26.525  0.00  0.00    +0.238 A 
ATOM     14  O   UNL     1       7.746   0.441  26.488  0.00  0.00    -0.283 OA
ATOM     15  C   UNL     1       5.649   1.424  26.534  0.00  0.00    +0.109 A 
ATOM     16  C   UNL     1       4.283   1.195  26.415  0.00  0.00    +0.147 A 
ATOM     17  C   UNL     1       3.415   2.285  26.291  0.00  0.00    +0.092 A 
ATOM     18  C   UNL     1       3.926   3.584  26.320  0.00  0.00    +0.124 A 
ATOM     19  C   UNL     1       5.283   3.821  26.491  0.00  0.00    +0.091 A 
ATOM     20  O   UNL     1       3.734  -0.063  26.425  0.00  0.00    -0.451 OA
ATOM     21  C   UNL     1       6.147   2.737  26.607  0.00  0.00    +0.135 A 
ATOM     22  C   UNL     1       4.578  -1.165  26.531  0.00  0.00    +0.181 A 
BRANCH  22  23
ATOM     23  C   UNL     1       3.865  -2.453  26.654  0.00  0.00    +0.025 A 
ATOM     24  C   UNL     1       3.710  -3.051  27.915  0.00  0.00    +0.015 A 
ATOM     25  C   UNL     1       3.188  -4.346  28.040  0.00  0.00    +0.050 A 
ATOM     26  C   UNL     1       2.792  -5.049  26.902  0.00  0.00    +0.162 A 
ATOM     27  C   UNL     1       2.850  -4.420  25.642  0.00  0.00    +0.162 A 
ATOM     28  C   UNL     1       3.396  -3.133  25.520  0.00  0.00    +0.061 A 
BRANCH  27  29
ATOM     29  O   UNL     1       2.380  -5.170  24.594  0.00  0.00    -0.491 OA
ATOM     30  C   UNL     1       3.187  -5.247  23.429  0.00  0.00    +0.277 C 
ENDBRANCH  27  29
BRANCH  26  31
ATOM     31  O   UNL     1       2.376  -6.356  26.887  0.00  0.00    -0.491 OA
ATOM     32  C   UNL     1       2.214  -7.029  28.123  0.00  0.00    +0.277 C 
ENDBRANCH  26  31
ENDBRANCH  22  23
BRANCH  21  33
ATOM     33  O   UNL     1       7.473   2.986  26.820  0.00  0.00    -0.506 OA
ATOM     34  H   UNL     1       7.880   3.394  26.041  0.00  0.00    +0.292 HD
ENDBRANCH  21  33
BRANCH  18  35
ATOM     35  O   UNL     1       3.134   4.679  26.191  0.00  0.00    -0.507 OA
ATOM     36  H   UNL     1       3.649   5.400  25.783  0.00  0.00    +0.292 HD
ENDBRANCH  18  35
ENDBRANCH  11  12
ENDBRANCH   6  11
BRANCH   4  37
ATOM     37  C   UNL     1       6.648  -5.323  26.976  0.00  0.00    +0.190 C 
BRANCH  37  38
ATOM     38  O   UNL     1       7.598  -6.142  27.662  0.00  0.00    -0.392 OA
ATOM     39  H   UNL     1       8.225  -5.530  28.096  0.00  0.00    +0.210 HD
ENDBRANCH  37  38
ENDBRANCH   4  37
BRANCH   1  40
ATOM     40  O   UNL     1       9.108  -2.596  23.786  0.00  0.00    -0.337 OA
BRANCH  40  44
ATOM     41  C   UNL     1      11.792   0.667  24.378  0.00  0.00    +0.041 C 
ATOM     42  C   UNL     1      10.277   0.784  24.549  0.00  0.00    +0.149 C 
ATOM     43  O   UNL     1       9.668  -0.513  24.684  0.00  0.00    -0.343 OA
ATOM     44  C   UNL     1       9.617  -1.288  23.479  0.00  0.00    +0.282 C 
ATOM     45  C   UNL     1       8.796  -0.542  22.405  0.00  0.00    +0.201 C 
ATOM     46  C   UNL     1       9.452   0.812  22.139  0.00  0.00    +0.179 C 
ATOM     47  C   UNL     1       9.610   1.616  23.436  0.00  0.00    +0.174 C 
BRANCH  47  48
ATOM     48  O   UNL     1       8.294   2.029  23.851  0.00  0.00    -0.387 OA
ATOM     49  H   UNL     1       8.097   1.532  24.677  0.00  0.00    +0.210 HD
ENDBRANCH  47  48
BRANCH  46  50
ATOM     50  O   UNL     1       8.642   1.538  21.202  0.00  0.00    -0.386 OA
ATOM     51  H   UNL     1       9.279   2.047  20.655  0.00  0.00    +0.210 HD
ENDBRANCH  46  50
BRANCH  45  52
ATOM     52  O   UNL     1       7.436  -0.359  22.842  0.00  0.00    -0.384 OA
ATOM     53  H   UNL     1       7.452   0.341  23.520  0.00  0.00    +0.210 HD
ENDBRANCH  45  52
ENDBRANCH  40  44
ENDBRANCH   1  40
TORSDOF 16
ENDMDL
