MODEL 1
REMARK VINA RESULT:      -7.8      0.000      0.000
REMARK  Name = 
REMARK  17 active torsions:
REMARK  status: ('A' for Active; 'I' for Inactive)
REMARK    1  A    between atoms: C_1  and  C_2
REMARK    2  A    between atoms: C_3  and  O_43
REMARK    3  A    between atoms: C_4  and  O_42
REMARK    4  A    between atoms: C_5  and  O_41
REMARK    5  A    between atoms: C_6  and  O_8
REMARK    6  A    between atoms: O_8  and  C_9
REMARK    7  A    between atoms: C_9  and  C_10
REMARK    8  A    between atoms: C_11  and  O_40
REMARK    9  A    between atoms: C_12  and  O_39
REMARK   10  A    between atoms: C_13  and  O_38
REMARK   11  A    between atoms: C_14  and  O_16
REMARK   12  A    between atoms: O_16  and  C_17
REMARK   13  A    between atoms: C_18  and  C_30
REMARK   14  A    between atoms: C_22  and  O_29
REMARK   15  A    between atoms: C_24  and  O_28
REMARK   16  A    between atoms: C_32  and  O_37
REMARK   17  A    between atoms: C_33  and  O_36
REMARK                            x       y       z     vdW  Elec       q    Type
REMARK                         _______ _______ _______ _____ _____    ______ ____
ROOT
ATOM      1  C   UNL     1       5.569  -1.309  25.796  0.00  0.00    +0.179 C 
ATOM      2  O   UNL     1       6.254  -0.396  24.906  0.00  0.00    -0.331 OA
ATOM      3  C   UNL     1       6.471   0.969  25.291  0.00  0.00    +0.340 C 
ATOM      4  C   UNL     1       5.255   1.595  26.046  0.00  0.00    +0.214 C 
ATOM      5  C   UNL     1       4.813   0.651  27.175  0.00  0.00    +0.180 C 
ATOM      6  C   UNL     1       4.398  -0.688  26.561  0.00  0.00    +0.177 C 
ENDROOT
BRANCH   6   7
ATOM      7  O   UNL     1       3.848  -1.602  27.507  0.00  0.00    -0.386 OA
ATOM      8  H   UNL     1       4.519  -1.750  28.197  0.00  0.00    +0.210 HD
ENDBRANCH   6   7
BRANCH   5   9
ATOM      9  O   UNL     1       3.704   1.206  27.901  0.00  0.00    -0.386 OA
ATOM     10  H   UNL     1       3.688   0.747  28.765  0.00  0.00    +0.210 HD
ENDBRANCH   5   9
BRANCH   4  11
ATOM     11  O   UNL     1       4.106   1.833  25.201  0.00  0.00    -0.383 OA
ATOM     12  H   UNL     1       4.245   2.689  24.753  0.00  0.00    +0.210 HD
ENDBRANCH   4  11
BRANCH   3  13
ATOM     13  O   UNL     1       6.735   1.807  24.113  0.00  0.00    -0.453 OA
BRANCH  13  14
ATOM     14  C   UNL     1       8.005   2.370  23.884  0.00  0.00    +0.214 A 
ATOM     15  C   UNL     1       8.208   3.857  23.779  0.00  0.00    +0.238 A 
ATOM     16  O   UNL     1       7.279   4.636  23.650  0.00  0.00    -0.283 OA
ATOM     17  C   UNL     1       9.608   4.366  23.743  0.00  0.00    +0.109 A 
ATOM     18  C   UNL     1      10.610   3.453  23.489  0.00  0.00    +0.147 A 
ATOM     19  C   UNL     1      11.946   3.836  23.354  0.00  0.00    +0.092 A 
ATOM     20  C   UNL     1      12.282   5.170  23.493  0.00  0.00    +0.124 A 
ATOM     21  C   UNL     1      11.299   6.116  23.783  0.00  0.00    +0.091 A 
ATOM     22  O   UNL     1      10.360   2.135  23.333  0.00  0.00    -0.451 OA
ATOM     23  C   UNL     1       9.965   5.713  23.905  0.00  0.00    +0.135 A 
ATOM     24  C   UNL     1       9.118   1.614  23.658  0.00  0.00    +0.181 A 
BRANCH  24  25
ATOM     25  C   UNL     1       9.263   0.129  23.637  0.00  0.00    +0.025 A 
ATOM     26  C   UNL     1       9.797  -0.565  24.725  0.00  0.00    +0.015 A 
ATOM     27  C   UNL     1       9.818  -1.965  24.738  0.00  0.00    +0.050 A 
ATOM     28  C   UNL     1       9.174  -2.680  23.735  0.00  0.00    +0.158 A 
ATOM     29  C   UNL     1       8.529  -2.017  22.704  0.00  0.00    +0.159 A 
ATOM     30  C   UNL     1       8.622  -0.627  22.614  0.00  0.00    +0.060 A 
BRANCH  29  31
ATOM     31  O   UNL     1       7.708  -2.740  21.886  0.00  0.00    -0.503 OA
ATOM     32  H   UNL     1       7.247  -3.420  22.396  0.00  0.00    +0.292 HD
ENDBRANCH  29  31
BRANCH  28  33
ATOM     33  O   UNL     1       9.136  -4.043  23.784  0.00  0.00    -0.503 OA
ATOM     34  H   UNL     1       8.201  -4.293  23.850  0.00  0.00    +0.292 HD
ENDBRANCH  28  33
ENDBRANCH  24  25
BRANCH  23  35
ATOM     35  O   UNL     1       9.030   6.655  24.202  0.00  0.00    -0.506 OA
ATOM     36  H   UNL     1       9.412   7.356  24.752  0.00  0.00    +0.292 HD
ENDBRANCH  23  35
BRANCH  20  37
ATOM     37  O   UNL     1      13.568   5.594  23.360  0.00  0.00    -0.507 OA
ATOM     38  H   UNL     1      13.764   6.251  24.050  0.00  0.00    +0.292 HD
ENDBRANCH  20  37
ENDBRANCH  13  14
ENDBRANCH   3  13
BRANCH   1  39
ATOM     39  C   UNL     1       6.439  -2.406  26.546  0.00  0.00    +0.197 C 
BRANCH  39  40
ATOM     40  O   UNL     1       6.829  -3.640  25.889  0.00  0.00    -0.346 OA
BRANCH  40  44
ATOM     41  C   UNL     1       3.368  -6.416  26.562  0.00  0.00    +0.041 C 
ATOM     42  C   UNL     1       4.711  -6.716  25.886  0.00  0.00    +0.149 C 
ATOM     43  O   UNL     1       5.723  -5.741  26.211  0.00  0.00    -0.343 OA
ATOM     44  C   UNL     1       5.646  -4.462  25.556  0.00  0.00    +0.282 C 
ATOM     45  C   UNL     1       5.550  -4.669  24.012  0.00  0.00    +0.201 C 
ATOM     46  C   UNL     1       4.386  -5.617  23.653  0.00  0.00    +0.179 C 
ATOM     47  C   UNL     1       4.568  -6.964  24.374  0.00  0.00    +0.174 C 
BRANCH  47  48
ATOM     48  O   UNL     1       3.504  -7.892  24.110  0.00  0.00    -0.387 OA
ATOM     49  H   UNL     1       2.677  -7.397  23.978  0.00  0.00    +0.210 HD
ENDBRANCH  47  48
BRANCH  46  50
ATOM     50  O   UNL     1       4.324  -5.842  22.235  0.00  0.00    -0.386 OA
ATOM     51  H   UNL     1       4.182  -6.804  22.124  0.00  0.00    +0.210 HD
ENDBRANCH  46  50
BRANCH  45  52
ATOM     52  O   UNL     1       6.748  -5.279  23.482  0.00  0.00    -0.384 OA
ATOM     53  H   UNL     1       7.472  -5.007  24.078  0.00  0.00    +0.210 HD
ENDBRANCH  45  52
ENDBRANCH  40  44
ENDBRANCH  39  40
ENDBRANCH   1  39
TORSDOF 16
ENDMDL
MODEL 2
REMARK VINA RESULT:      -7.5      2.017      8.387
REMARK  Name = 
REMARK  17 active torsions:
REMARK  status: ('A' for Active; 'I' for Inactive)
REMARK    1  A    between atoms: C_1  and  C_2
REMARK    2  A    between atoms: C_3  and  O_43
REMARK    3  A    between atoms: C_4  and  O_42
REMARK    4  A    between atoms: C_5  and  O_41
REMARK    5  A    between atoms: C_6  and  O_8
REMARK    6  A    between atoms: O_8  and  C_9
REMARK    7  A    between atoms: C_9  and  C_10
REMARK    8  A    between atoms: C_11  and  O_40
REMARK    9  A    between atoms: C_12  and  O_39
REMARK   10  A    between atoms: C_13  and  O_38
REMARK   11  A    between atoms: C_14  and  O_16
REMARK   12  A    between atoms: O_16  and  C_17
REMARK   13  A    between atoms: C_18  and  C_30
REMARK   14  A    between atoms: C_22  and  O_29
REMARK   15  A    between atoms: C_24  and  O_28
REMARK   16  A    between atoms: C_32  and  O_37
REMARK   17  A    between atoms: C_33  and  O_36
REMARK                            x       y       z     vdW  Elec       q    Type
REMARK                         _______ _______ _______ _____ _____    ______ ____
ROOT
ATOM      1  C   UNL     1       6.387   2.367  27.937  0.00  0.00    +0.179 C 
ATOM      2  O   UNL     1       7.187   1.217  27.570  0.00  0.00    -0.331 OA
ATOM      3  C   UNL     1       6.785   0.368  26.485  0.00  0.00    +0.340 C 
ATOM      4  C   UNL     1       5.243   0.123  26.435  0.00  0.00    +0.214 C 
ATOM      5  C   UNL     1       4.508   1.469  26.530  0.00  0.00    +0.180 C 
ATOM      6  C   UNL     1       4.875   2.137  27.857  0.00  0.00    +0.177 C 
ENDROOT
BRANCH   6   7
ATOM      7  O   UNL     1       4.150   3.338  28.111  0.00  0.00    -0.386 OA
ATOM      8  H   UNL     1       4.576   4.051  27.602  0.00  0.00    +0.210 HD
ENDBRANCH   6   7
BRANCH   5   9
ATOM      9  O   UNL     1       3.085   1.279  26.471  0.00  0.00    -0.386 OA
ATOM     10  H   UNL     1       2.851   0.730  27.247  0.00  0.00    +0.210 HD
ENDBRANCH   5   9
BRANCH   4  11
ATOM     11  O   UNL     1       4.754  -0.719  27.504  0.00  0.00    -0.383 OA
ATOM     12  H   UNL     1       4.024  -0.241  27.942  0.00  0.00    +0.210 HD
ENDBRANCH   4  11
BRANCH   3  13
ATOM     13  O   UNL     1       7.437  -0.945  26.583  0.00  0.00    -0.453 OA
BRANCH  13  14
ATOM     14  C   UNL     1       7.315  -1.902  25.557  0.00  0.00    +0.214 A 
ATOM     15  C   UNL     1       6.704  -3.255  25.801  0.00  0.00    +0.238 A 
ATOM     16  O   UNL     1       6.499  -3.688  26.922  0.00  0.00    -0.283 OA
ATOM     17  C   UNL     1       6.431  -4.117  24.616  0.00  0.00    +0.109 A 
ATOM     18  C   UNL     1       7.032  -3.770  23.425  0.00  0.00    +0.147 A 
ATOM     19  C   UNL     1       6.908  -4.552  22.275  0.00  0.00    +0.092 A 
ATOM     20  C   UNL     1       6.147  -5.705  22.324  0.00  0.00    +0.124 A 
ATOM     21  C   UNL     1       5.497  -6.070  23.502  0.00  0.00    +0.091 A 
ATOM     22  O   UNL     1       7.798  -2.663  23.300  0.00  0.00    -0.451 OA
ATOM     23  C   UNL     1       5.642  -5.277  24.647  0.00  0.00    +0.135 A 
ATOM     24  C   UNL     1       7.813  -1.706  24.302  0.00  0.00    +0.181 A 
BRANCH  24  25
ATOM     25  C   UNL     1       8.518  -0.517  23.740  0.00  0.00    +0.025 A 
ATOM     26  C   UNL     1       9.843  -0.231  24.077  0.00  0.00    +0.015 A 
ATOM     27  C   UNL     1      10.527   0.818  23.452  0.00  0.00    +0.050 A 
ATOM     28  C   UNL     1       9.944   1.493  22.385  0.00  0.00    +0.158 A 
ATOM     29  C   UNL     1       8.675   1.149  21.948  0.00  0.00    +0.159 A 
ATOM     30  C   UNL     1       7.937   0.197  22.653  0.00  0.00    +0.060 A 
BRANCH  29  31
ATOM     31  O   UNL     1       8.243   1.659  20.756  0.00  0.00    -0.503 OA
ATOM     32  H   UNL     1       8.773   1.300  20.031  0.00  0.00    +0.292 HD
ENDBRANCH  29  31
BRANCH  28  33
ATOM     33  O   UNL     1      10.637   2.469  21.732  0.00  0.00    -0.503 OA
ATOM     34  H   UNL     1      11.023   2.056  20.943  0.00  0.00    +0.292 HD
ENDBRANCH  28  33
ENDBRANCH  24  25
BRANCH  23  35
ATOM     35  O   UNL     1       4.985  -5.648  25.778  0.00  0.00    -0.506 OA
ATOM     36  H   UNL     1       4.358  -4.960  26.052  0.00  0.00    +0.292 HD
ENDBRANCH  23  35
BRANCH  20  37
ATOM     37  O   UNL     1       6.005  -6.507  21.233  0.00  0.00    -0.507 OA
ATOM     38  H   UNL     1       5.251  -6.197  20.702  0.00  0.00    +0.292 HD
ENDBRANCH  20  37
ENDBRANCH  13  14
ENDBRANCH   3  13
BRANCH   1  39
ATOM     39  C   UNL     1       6.934   3.805  27.549  0.00  0.00    +0.197 C 
BRANCH  39  40
ATOM     40  O   UNL     1       6.201   4.675  26.648  0.00  0.00    -0.346 OA
BRANCH  40  44
ATOM     41  C   UNL     1       9.071   6.493  23.717  0.00  0.00    +0.041 C 
ATOM     42  C   UNL     1       7.541   6.588  23.734  0.00  0.00    +0.149 C 
ATOM     43  O   UNL     1       6.981   6.250  25.019  0.00  0.00    -0.343 OA
ATOM     44  C   UNL     1       6.928   4.856  25.373  0.00  0.00    +0.282 C 
ATOM     45  C   UNL     1       6.226   4.052  24.233  0.00  0.00    +0.201 C 
ATOM     46  C   UNL     1       6.905   4.318  22.872  0.00  0.00    +0.179 C 
ATOM     47  C   UNL     1       6.889   5.826  22.566  0.00  0.00    +0.174 C 
BRANCH  47  48
ATOM     48  O   UNL     1       7.531   6.155  21.324  0.00  0.00    -0.387 OA
ATOM     49  H   UNL     1       7.032   6.866  20.887  0.00  0.00    +0.210 HD
ENDBRANCH  47  48
BRANCH  46  50
ATOM     50  O   UNL     1       6.233   3.612  21.816  0.00  0.00    -0.386 OA
ATOM     51  H   UNL     1       6.705   3.854  20.993  0.00  0.00    +0.210 HD
ENDBRANCH  46  50
BRANCH  45  52
ATOM     52  O   UNL     1       4.844   4.444  24.080  0.00  0.00    -0.384 OA
ATOM     53  H   UNL     1       4.440   3.773  23.497  0.00  0.00    +0.210 HD
ENDBRANCH  45  52
ENDBRANCH  40  44
ENDBRANCH  39  40
ENDBRANCH   1  39
TORSDOF 16
ENDMDL
MODEL 3
REMARK VINA RESULT:      -7.5      2.320      5.867
REMARK  Name = 
REMARK  17 active torsions:
REMARK  status: ('A' for Active; 'I' for Inactive)
REMARK    1  A    between atoms: C_1  and  C_2
REMARK    2  A    between atoms: C_3  and  O_43
REMARK    3  A    between atoms: C_4  and  O_42
REMARK    4  A    between atoms: C_5  and  O_41
REMARK    5  A    between atoms: C_6  and  O_8
REMARK    6  A    between atoms: O_8  and  C_9
REMARK    7  A    between atoms: C_9  and  C_10
REMARK    8  A    between atoms: C_11  and  O_40
REMARK    9  A    between atoms: C_12  and  O_39
REMARK   10  A    between atoms: C_13  and  O_38
REMARK   11  A    between atoms: C_14  and  O_16
REMARK   12  A    between atoms: O_16  and  C_17
REMARK   13  A    between atoms: C_18  and  C_30
REMARK   14  A    between atoms: C_22  and  O_29
REMARK   15  A    between atoms: C_24  and  O_28
REMARK   16  A    between atoms: C_32  and  O_37
REMARK   17  A    between atoms: C_33  and  O_36
REMARK                            x       y       z     vdW  Elec       q    Type
REMARK                         _______ _______ _______ _____ _____    ______ ____
ROOT
ATOM      1  C   UNL     1       9.456  -1.178  24.843  0.00  0.00    +0.179 C 
ATOM      2  O   UNL     1       8.970   0.143  25.183  0.00  0.00    -0.331 OA
ATOM      3  C   UNL     1       8.319   0.954  24.194  0.00  0.00    +0.340 C 
ATOM      4  C   UNL     1       8.983   0.854  22.783  0.00  0.00    +0.214 C 
ATOM      5  C   UNL     1       9.167  -0.624  22.409  0.00  0.00    +0.180 C 
ATOM      6  C   UNL     1      10.076  -1.285  23.448  0.00  0.00    +0.177 C 
ENDROOT
BRANCH   6   7
ATOM      7  O   UNL     1      10.420  -2.632  23.131  0.00  0.00    -0.386 OA
ATOM      8  H   UNL     1      10.458  -2.704  22.160  0.00  0.00    +0.210 HD
ENDBRANCH   6   7
BRANCH   5   9
ATOM      9  O   UNL     1       9.761  -0.752  21.107  0.00  0.00    -0.386 OA
ATOM     10  H   UNL     1      10.715  -0.915  21.258  0.00  0.00    +0.210 HD
ENDBRANCH   5   9
BRANCH   4  11
ATOM     11  O   UNL     1      10.279   1.490  22.705  0.00  0.00    -0.383 OA
ATOM     12  H   UNL     1      10.172   2.309  22.186  0.00  0.00    +0.210 HD
ENDBRANCH   4  11
BRANCH   3  13
ATOM     13  O   UNL     1       8.337   2.370  24.589  0.00  0.00    -0.453 OA
BRANCH  13  14
ATOM     14  C   UNL     1       7.434   3.297  24.035  0.00  0.00    +0.214 A 
ATOM     15  C   UNL     1       6.047   2.898  23.610  0.00  0.00    +0.238 A 
ATOM     16  O   UNL     1       5.707   1.733  23.498  0.00  0.00    -0.283 OA
ATOM     17  C   UNL     1       5.099   3.983  23.230  0.00  0.00    +0.109 A 
ATOM     18  C   UNL     1       5.627   5.233  22.985  0.00  0.00    +0.147 A 
ATOM     19  C   UNL     1       4.840   6.299  22.546  0.00  0.00    +0.092 A 
ATOM     20  C   UNL     1       3.483   6.103  22.362  0.00  0.00    +0.124 A 
ATOM     21  C   UNL     1       2.909   4.862  22.632  0.00  0.00    +0.091 A 
ATOM     22  O   UNL     1       6.943   5.500  23.134  0.00  0.00    -0.451 OA
ATOM     23  C   UNL     1       3.717   3.804  23.062  0.00  0.00    +0.135 A 
ATOM     24  C   UNL     1       7.775   4.591  23.768  0.00  0.00    +0.181 A 
BRANCH  24  25
ATOM     25  C   UNL     1       9.067   5.296  24.009  0.00  0.00    +0.025 A 
ATOM     26  C   UNL     1       9.205   6.229  25.041  0.00  0.00    +0.015 A 
ATOM     27  C   UNL     1      10.452   6.795  25.329  0.00  0.00    +0.050 A 
ATOM     28  C   UNL     1      11.595   6.325  24.691  0.00  0.00    +0.158 A 
ATOM     29  C   UNL     1      11.505   5.313  23.749  0.00  0.00    +0.159 A 
ATOM     30  C   UNL     1      10.251   4.842  23.361  0.00  0.00    +0.060 A 
BRANCH  29  31
ATOM     31  O   UNL     1      12.662   4.716  23.332  0.00  0.00    -0.503 OA
ATOM     32  H   UNL     1      12.874   5.000  22.432  0.00  0.00    +0.292 HD
ENDBRANCH  29  31
BRANCH  28  33
ATOM     33  O   UNL     1      12.818   6.828  25.022  0.00  0.00    -0.503 OA
ATOM     34  H   UNL     1      13.420   6.594  24.299  0.00  0.00    +0.292 HD
ENDBRANCH  28  33
ENDBRANCH  24  25
BRANCH  23  35
ATOM     35  O   UNL     1       3.128   2.608  23.332  0.00  0.00    -0.506 OA
ATOM     36  H   UNL     1       2.896   2.544  24.272  0.00  0.00    +0.292 HD
ENDBRANCH  23  35
BRANCH  20  37
ATOM     37  O   UNL     1       2.676   7.108  21.925  0.00  0.00    -0.507 OA
ATOM     38  H   UNL     1       2.931   7.940  22.360  0.00  0.00    +0.292 HD
ENDBRANCH  20  37
ENDBRANCH  13  14
ENDBRANCH   3  13
BRANCH   1  39
ATOM     39  C   UNL     1       8.640  -2.429  25.384  0.00  0.00    +0.197 C 
BRANCH  39  40
ATOM     40  O   UNL     1       8.561  -3.664  24.626  0.00  0.00    -0.346 OA
BRANCH  40  44
ATOM     41  C   UNL     1       4.086  -3.973  24.525  0.00  0.00    +0.041 C 
ATOM     42  C   UNL     1       5.120  -5.098  24.402  0.00  0.00    +0.149 C 
ATOM     43  O   UNL     1       6.421  -4.708  24.889  0.00  0.00    -0.343 OA
ATOM     44  C   UNL     1       7.212  -3.848  24.049  0.00  0.00    +0.282 C 
ATOM     45  C   UNL     1       7.317  -4.464  22.619  0.00  0.00    +0.201 C 
ATOM     46  C   UNL     1       5.916  -4.768  22.044  0.00  0.00    +0.179 C 
ATOM     47  C   UNL     1       5.157  -5.713  22.992  0.00  0.00    +0.174 C 
BRANCH  47  48
ATOM     48  O   UNL     1       3.829  -6.020  22.537  0.00  0.00    -0.387 OA
ATOM     49  H   UNL     1       3.383  -6.567  23.205  0.00  0.00    +0.210 HD
ENDBRANCH  47  48
BRANCH  46  50
ATOM     50  O   UNL     1       6.012  -5.375  20.745  0.00  0.00    -0.386 OA
ATOM     51  H   UNL     1       6.920  -5.186  20.431  0.00  0.00    +0.210 HD
ENDBRANCH  46  50
BRANCH  45  52
ATOM     52  O   UNL     1       8.030  -5.721  22.632  0.00  0.00    -0.384 OA
ATOM     53  H   UNL     1       7.690  -6.228  21.869  0.00  0.00    +0.210 HD
ENDBRANCH  45  52
ENDBRANCH  40  44
ENDBRANCH  39  40
ENDBRANCH   1  39
TORSDOF 16
ENDMDL
MODEL 4
REMARK VINA RESULT:      -7.2      1.974      5.139
REMARK  Name = 
REMARK  17 active torsions:
REMARK  status: ('A' for Active; 'I' for Inactive)
REMARK    1  A    between atoms: C_1  and  C_2
REMARK    2  A    between atoms: C_3  and  O_43
REMARK    3  A    between atoms: C_4  and  O_42
REMARK    4  A    between atoms: C_5  and  O_41
REMARK    5  A    between atoms: C_6  and  O_8
REMARK    6  A    between atoms: O_8  and  C_9
REMARK    7  A    between atoms: C_9  and  C_10
REMARK    8  A    between atoms: C_11  and  O_40
REMARK    9  A    between atoms: C_12  and  O_39
REMARK   10  A    between atoms: C_13  and  O_38
REMARK   11  A    between atoms: C_14  and  O_16
REMARK   12  A    between atoms: O_16  and  C_17
REMARK   13  A    between atoms: C_18  and  C_30
REMARK   14  A    between atoms: C_22  and  O_29
REMARK   15  A    between atoms: C_24  and  O_28
REMARK   16  A    between atoms: C_32  and  O_37
REMARK   17  A    between atoms: C_33  and  O_36
REMARK                            x       y       z     vdW  Elec       q    Type
REMARK                         _______ _______ _______ _____ _____    ______ ____
ROOT
ATOM      1  C   UNL     1       8.510  -3.616  25.238  0.00  0.00    +0.179 C 
ATOM      2  O   UNL     1       7.619  -2.493  25.030  0.00  0.00    -0.331 OA
ATOM      3  C   UNL     1       6.412  -2.655  24.270  0.00  0.00    +0.340 C 
ATOM      4  C   UNL     1       6.590  -3.577  23.022  0.00  0.00    +0.214 C 
ATOM      5  C   UNL     1       7.285  -4.880  23.444  0.00  0.00    +0.180 C 
ATOM      6  C   UNL     1       8.659  -4.538  24.025  0.00  0.00    +0.177 C 
ENDROOT
BRANCH   6   7
ATOM      7  O   UNL     1       9.448  -5.685  24.336  0.00  0.00    -0.386 OA
ATOM      8  H   UNL     1       9.152  -6.020  25.201  0.00  0.00    +0.210 HD
ENDBRANCH   6   7
BRANCH   5   9
ATOM      9  O   UNL     1       7.450  -5.760  22.320  0.00  0.00    -0.386 OA
ATOM     10  H   UNL     1       7.037  -6.610  22.576  0.00  0.00    +0.210 HD
ENDBRANCH   5   9
BRANCH   4  11
ATOM     11  O   UNL     1       7.380  -2.982  21.968  0.00  0.00    -0.383 OA
ATOM     12  H   UNL     1       7.198  -3.480  21.148  0.00  0.00    +0.210 HD
ENDBRANCH   4  11
BRANCH   3  13
ATOM     13  O   UNL     1       5.922  -1.355  23.790  0.00  0.00    -0.453 OA
BRANCH  13  14
ATOM     14  C   UNL     1       6.556  -0.152  24.154  0.00  0.00    +0.214 A 
ATOM     15  C   UNL     1       7.682   0.430  23.344  0.00  0.00    +0.238 A 
ATOM     16  O   UNL     1       8.261  -0.205  22.480  0.00  0.00    -0.283 OA
ATOM     17  C   UNL     1       8.148   1.803  23.689  0.00  0.00    +0.109 A 
ATOM     18  C   UNL     1       7.753   2.321  24.904  0.00  0.00    +0.147 A 
ATOM     19  C   UNL     1       8.198   3.563  25.361  0.00  0.00    +0.092 A 
ATOM     20  C   UNL     1       9.051   4.307  24.566  0.00  0.00    +0.124 A 
ATOM     21  C   UNL     1       9.446   3.828  23.318  0.00  0.00    +0.091 A 
ATOM     22  O   UNL     1       6.928   1.653  25.739  0.00  0.00    -0.451 OA
ATOM     23  C   UNL     1       8.996   2.577  22.883  0.00  0.00    +0.135 A 
ATOM     24  C   UNL     1       6.256   0.522  25.302  0.00  0.00    +0.181 A 
BRANCH  24  25
ATOM     25  C   UNL     1       5.243   0.201  26.349  0.00  0.00    +0.025 A 
ATOM     26  C   UNL     1       4.076   0.956  26.487  0.00  0.00    +0.015 A 
ATOM     27  C   UNL     1       3.081   0.572  27.394  0.00  0.00    +0.050 A 
ATOM     28  C   UNL     1       3.177  -0.644  28.061  0.00  0.00    +0.158 A 
ATOM     29  C   UNL     1       4.267  -1.473  27.852  0.00  0.00    +0.159 A 
ATOM     30  C   UNL     1       5.324  -1.034  27.054  0.00  0.00    +0.060 A 
BRANCH  29  31
ATOM     31  O   UNL     1       4.205  -2.752  28.328  0.00  0.00    -0.503 OA
ATOM     32  H   UNL     1       3.619  -2.791  29.098  0.00  0.00    +0.292 HD
ENDBRANCH  29  31
BRANCH  28  33
ATOM     33  O   UNL     1       2.175  -1.049  28.893  0.00  0.00    -0.503 OA
ATOM     34  H   UNL     1       2.600  -1.406  29.688  0.00  0.00    +0.292 HD
ENDBRANCH  28  33
ENDBRANCH  24  25
BRANCH  23  35
ATOM     35  O   UNL     1       9.384   2.141  21.654  0.00  0.00    -0.506 OA
ATOM     36  H   UNL     1       9.123   1.216  21.520  0.00  0.00    +0.292 HD
ENDBRANCH  23  35
BRANCH  20  37
ATOM     37  O   UNL     1       9.521   5.518  24.972  0.00  0.00    -0.507 OA
ATOM     38  H   UNL     1       9.927   5.429  25.851  0.00  0.00    +0.292 HD
ENDBRANCH  20  37
ENDBRANCH  13  14
ENDBRANCH   3  13
BRANCH   1  39
ATOM     39  C   UNL     1       8.537  -4.283  26.678  0.00  0.00    +0.197 C 
BRANCH  39  40
ATOM     40  O   UNL     1       7.379  -4.242  27.552  0.00  0.00    -0.346 OA
BRANCH  40  44
ATOM     41  C   UNL     1       4.607  -6.759  25.079  0.00  0.00    +0.041 C 
ATOM     42  C   UNL     1       4.251  -5.748  26.175  0.00  0.00    +0.149 C 
ATOM     43  O   UNL     1       5.332  -4.836  26.457  0.00  0.00    -0.343 OA
ATOM     44  C   UNL     1       6.435  -5.335  27.235  0.00  0.00    +0.282 C 
ATOM     45  C   UNL     1       5.897  -5.982  28.550  0.00  0.00    +0.201 C 
ATOM     46  C   UNL     1       4.825  -7.050  28.242  0.00  0.00    +0.179 C 
ATOM     47  C   UNL     1       3.677  -6.420  27.435  0.00  0.00    +0.174 C 
BRANCH  47  48
ATOM     48  O   UNL     1       2.652  -7.363  27.085  0.00  0.00    -0.387 OA
ATOM     49  H   UNL     1       2.791  -8.184  27.586  0.00  0.00    +0.210 HD
ENDBRANCH  47  48
BRANCH  46  50
ATOM     50  O   UNL     1       4.299  -7.615  29.454  0.00  0.00    -0.386 OA
ATOM     51  H   UNL     1       4.268  -8.582  29.305  0.00  0.00    +0.210 HD
ENDBRANCH  46  50
BRANCH  45  52
ATOM     52  O   UNL     1       5.261  -5.003  29.402  0.00  0.00    -0.384 OA
ATOM     53  H   UNL     1       5.977  -4.610  29.938  0.00  0.00    +0.210 HD
ENDBRANCH  45  52
ENDBRANCH  40  44
ENDBRANCH  39  40
ENDBRANCH   1  39
TORSDOF 16
ENDMDL
MODEL 5
REMARK VINA RESULT:      -7.2      2.458      6.389
REMARK  Name = 
REMARK  17 active torsions:
REMARK  status: ('A' for Active; 'I' for Inactive)
REMARK    1  A    between atoms: C_1  and  C_2
REMARK    2  A    between atoms: C_3  and  O_43
REMARK    3  A    between atoms: C_4  and  O_42
REMARK    4  A    between atoms: C_5  and  O_41
REMARK    5  A    between atoms: C_6  and  O_8
REMARK    6  A    between atoms: O_8  and  C_9
REMARK    7  A    between atoms: C_9  and  C_10
REMARK    8  A    between atoms: C_11  and  O_40
REMARK    9  A    between atoms: C_12  and  O_39
REMARK   10  A    between atoms: C_13  and  O_38
REMARK   11  A    between atoms: C_14  and  O_16
REMARK   12  A    between atoms: O_16  and  C_17
REMARK   13  A    between atoms: C_18  and  C_30
REMARK   14  A    between atoms: C_22  and  O_29
REMARK   15  A    between atoms: C_24  and  O_28
REMARK   16  A    between atoms: C_32  and  O_37
REMARK   17  A    between atoms: C_33  and  O_36
REMARK                            x       y       z     vdW  Elec       q    Type
REMARK                         _______ _______ _______ _____ _____    ______ ____
ROOT
ATOM      1  C   UNL     1       5.098  -0.735  27.050  0.00  0.00    +0.179 C 
ATOM      2  O   UNL     1       6.176  -1.568  26.559  0.00  0.00    -0.331 OA
ATOM      3  C   UNL     1       7.493  -1.456  27.117  0.00  0.00    +0.340 C 
ATOM      4  C   UNL     1       7.907   0.018  27.426  0.00  0.00    +0.214 C 
ATOM      5  C   UNL     1       6.789   0.706  28.224  0.00  0.00    +0.180 C 
ATOM      6  C   UNL     1       5.510   0.701  27.384  0.00  0.00    +0.177 C 
ENDROOT
BRANCH   6   7
ATOM      7  O   UNL     1       4.436   1.429  27.976  0.00  0.00    -0.386 OA
ATOM      8  H   UNL     1       4.816   2.009  28.660  0.00  0.00    +0.210 HD
ENDBRANCH   6   7
BRANCH   5   9
ATOM      9  O   UNL     1       7.146   2.062  28.539  0.00  0.00    -0.386 OA
ATOM     10  H   UNL     1       6.324   2.497  28.845  0.00  0.00    +0.210 HD
ENDBRANCH   5   9
BRANCH   4  11
ATOM     11  O   UNL     1       8.152   0.813  26.243  0.00  0.00    -0.383 OA
ATOM     12  H   UNL     1       9.078   1.118  26.282  0.00  0.00    +0.210 HD
ENDBRANCH   4  11
BRANCH   3  13
ATOM     13  O   UNL     1       8.496  -2.011  26.198  0.00  0.00    -0.453 OA
BRANCH  13  14
ATOM     14  C   UNL     1       8.120  -2.664  25.009  0.00  0.00    +0.214 A 
ATOM     15  C   UNL     1       7.556  -4.059  25.013  0.00  0.00    +0.238 A 
ATOM     16  O   UNL     1       7.611  -4.784  25.991  0.00  0.00    -0.283 OA
ATOM     17  C   UNL     1       6.996  -4.585  23.736  0.00  0.00    +0.109 A 
ATOM     18  C   UNL     1       7.309  -3.907  22.577  0.00  0.00    +0.147 A 
ATOM     19  C   UNL     1       6.905  -4.359  21.320  0.00  0.00    +0.092 A 
ATOM     20  C   UNL     1       6.153  -5.516  21.230  0.00  0.00    +0.124 A 
ATOM     21  C   UNL     1       5.790  -6.210  22.383  0.00  0.00    +0.091 A 
ATOM     22  O   UNL     1       8.046  -2.774  22.582  0.00  0.00    -0.451 OA
ATOM     23  C   UNL     1       6.214  -5.746  23.633  0.00  0.00    +0.135 A 
ATOM     24  C   UNL     1       8.314  -2.119  23.774  0.00  0.00    +0.181 A 
BRANCH  24  25
ATOM     25  C   UNL     1       8.891  -0.793  23.407  0.00  0.00    +0.025 A 
ATOM     26  C   UNL     1      10.193  -0.441  23.769  0.00  0.00    +0.015 A 
ATOM     27  C   UNL     1      10.761   0.757  23.317  0.00  0.00    +0.050 A 
ATOM     28  C   UNL     1      10.089   1.537  22.384  0.00  0.00    +0.158 A 
ATOM     29  C   UNL     1       8.845   1.150  21.911  0.00  0.00    +0.159 A 
ATOM     30  C   UNL     1       8.217   0.031  22.460  0.00  0.00    +0.060 A 
BRANCH  29  31
ATOM     31  O   UNL     1       8.335   1.804  20.826  0.00  0.00    -0.503 OA
ATOM     32  H   UNL     1       8.264   2.751  21.013  0.00  0.00    +0.292 HD
ENDBRANCH  29  31
BRANCH  28  33
ATOM     33  O   UNL     1      10.671   2.668  21.891  0.00  0.00    -0.503 OA
ATOM     34  H   UNL     1      10.529   3.364  22.551  0.00  0.00    +0.292 HD
ENDBRANCH  28  33
ENDBRANCH  24  25
BRANCH  23  35
ATOM     35  O   UNL     1       5.833  -6.434  24.742  0.00  0.00    -0.506 OA
ATOM     36  H   UNL     1       5.873  -7.390  24.584  0.00  0.00    +0.292 HD
ENDBRANCH  23  35
BRANCH  20  37
ATOM     37  O   UNL     1       5.744  -6.003  20.027  0.00  0.00    -0.507 OA
ATOM     38  H   UNL     1       4.787  -5.860  19.929  0.00  0.00    +0.292 HD
ENDBRANCH  20  37
ENDBRANCH  13  14
ENDBRANCH   3  13
BRANCH   1  39
ATOM     39  C   UNL     1       3.994  -1.415  27.966  0.00  0.00    +0.197 C 
BRANCH  39  40
ATOM     40  O   UNL     1       3.106  -2.438  27.445  0.00  0.00    -0.346 OA
BRANCH  40  44
ATOM     41  C   UNL     1       4.758  -5.395  30.389  0.00  0.00    +0.041 C 
ATOM     42  C   UNL     1       5.271  -5.065  28.982  0.00  0.00    +0.149 C 
ATOM     43  O   UNL     1       4.773  -3.802  28.495  0.00  0.00    -0.343 OA
ATOM     44  C   UNL     1       3.408  -3.758  28.040  0.00  0.00    +0.282 C 
ATOM     45  C   UNL     1       3.169  -4.890  26.993  0.00  0.00    +0.201 C 
ATOM     46  C   UNL     1       3.586  -6.264  27.559  0.00  0.00    +0.179 C 
ATOM     47  C   UNL     1       5.062  -6.224  27.992  0.00  0.00    +0.174 C 
BRANCH  47  48
ATOM     48  O   UNL     1       5.517  -7.463  28.558  0.00  0.00    -0.387 OA
ATOM     49  H   UNL     1       4.756  -8.059  28.671  0.00  0.00    +0.210 HD
ENDBRANCH  47  48
BRANCH  46  50
ATOM     50  O   UNL     1       3.406  -7.300  26.580  0.00  0.00    -0.386 OA
ATOM     51  H   UNL     1       4.099  -7.967  26.768  0.00  0.00    +0.210 HD
ENDBRANCH  46  50
BRANCH  45  52
ATOM     52  O   UNL     1       3.959  -4.686  25.800  0.00  0.00    -0.384 OA
ATOM     53  H   UNL     1       4.385  -5.545  25.613  0.00  0.00    +0.210 HD
ENDBRANCH  45  52
ENDBRANCH  40  44
ENDBRANCH  39  40
ENDBRANCH   1  39
TORSDOF 16
ENDMDL
MODEL 6
REMARK VINA RESULT:      -7.1      2.498      6.257
REMARK  Name = 
REMARK  17 active torsions:
REMARK  status: ('A' for Active; 'I' for Inactive)
REMARK    1  A    between atoms: C_1  and  C_2
REMARK    2  A    between atoms: C_3  and  O_43
REMARK    3  A    between atoms: C_4  and  O_42
REMARK    4  A    between atoms: C_5  and  O_41
REMARK    5  A    between atoms: C_6  and  O_8
REMARK    6  A    between atoms: O_8  and  C_9
REMARK    7  A    between atoms: C_9  and  C_10
REMARK    8  A    between atoms: C_11  and  O_40
REMARK    9  A    between atoms: C_12  and  O_39
REMARK   10  A    between atoms: C_13  and  O_38
REMARK   11  A    between atoms: C_14  and  O_16
REMARK   12  A    between atoms: O_16  and  C_17
REMARK   13  A    between atoms: C_18  and  C_30
REMARK   14  A    between atoms: C_22  and  O_29
REMARK   15  A    between atoms: C_24  and  O_28
REMARK   16  A    between atoms: C_32  and  O_37
REMARK   17  A    between atoms: C_33  and  O_36
REMARK                            x       y       z     vdW  Elec       q    Type
REMARK                         _______ _______ _______ _____ _____    ______ ____
ROOT
ATOM      1  C   UNL     1       9.198   0.500  24.519  0.00  0.00    +0.179 C 
ATOM      2  O   UNL     1       8.548   1.777  24.309  0.00  0.00    -0.331 OA
ATOM      3  C   UNL     1       7.844   2.042  23.087  0.00  0.00    +0.340 C 
ATOM      4  C   UNL     1       8.568   1.471  21.825  0.00  0.00    +0.214 C 
ATOM      5  C   UNL     1       8.938   0.001  22.070  0.00  0.00    +0.180 C 
ATOM      6  C   UNL     1       9.879  -0.076  23.275  0.00  0.00    +0.177 C 
ENDROOT
BRANCH   6   7
ATOM      7  O   UNL     1      10.390  -1.384  23.517  0.00  0.00    -0.386 OA
ATOM      8  H   UNL     1       9.637  -1.954  23.756  0.00  0.00    +0.210 HD
ENDBRANCH   6   7
BRANCH   5   9
ATOM      9  O   UNL     1       9.592  -0.560  20.920  0.00  0.00    -0.386 OA
ATOM     10  H   UNL     1       8.949  -0.498  20.183  0.00  0.00    +0.210 HD
ENDBRANCH   5   9
BRANCH   4  11
ATOM     11  O   UNL     1       9.782   2.177  21.483  0.00  0.00    -0.383 OA
ATOM     12  H   UNL     1      10.277   2.325  22.311  0.00  0.00    +0.210 HD
ENDBRANCH   4  11
BRANCH   3  13
ATOM     13  O   UNL     1       7.681   3.488  22.883  0.00  0.00    -0.453 OA
BRANCH  13  14
ATOM     14  C   UNL     1       6.892   4.266  23.751  0.00  0.00    +0.214 A 
ATOM     15  C   UNL     1       5.408   4.052  23.883  0.00  0.00    +0.238 A 
ATOM     16  O   UNL     1       4.773   3.374  23.094  0.00  0.00    -0.283 OA
ATOM     17  C   UNL     1       4.696   4.779  24.972  0.00  0.00    +0.109 A 
ATOM     18  C   UNL     1       5.359   5.825  25.577  0.00  0.00    +0.147 A 
ATOM     19  C   UNL     1       4.755   6.622  26.551  0.00  0.00    +0.092 A 
ATOM     20  C   UNL     1       3.454   6.348  26.935  0.00  0.00    +0.124 A 
ATOM     21  C   UNL     1       2.765   5.277  26.367  0.00  0.00    +0.091 A 
ATOM     22  O   UNL     1       6.627   6.159  25.252  0.00  0.00    -0.451 OA
ATOM     23  C   UNL     1       3.385   4.497  25.385  0.00  0.00    +0.135 A 
ATOM     24  C   UNL     1       7.394   5.314  24.466  0.00  0.00    +0.181 A 
BRANCH  24  25
ATOM     25  C   UNL     1       8.792   5.831  24.530  0.00  0.00    +0.025 A 
ATOM     26  C   UNL     1       9.297   6.419  25.691  0.00  0.00    +0.015 A 
ATOM     27  C   UNL     1      10.645   6.792  25.775  0.00  0.00    +0.050 A 
ATOM     28  C   UNL     1      11.527   6.445  24.758  0.00  0.00    +0.158 A 
ATOM     29  C   UNL     1      11.078   5.752  23.646  0.00  0.00    +0.159 A 
ATOM     30  C   UNL     1       9.714   5.499  23.496  0.00  0.00    +0.060 A 
BRANCH  29  31
ATOM     31  O   UNL     1      12.009   5.220  22.799  0.00  0.00    -0.503 OA
ATOM     32  H   UNL     1      12.076   5.761  21.999  0.00  0.00    +0.292 HD
ENDBRANCH  29  31
BRANCH  28  33
ATOM     33  O   UNL     1      12.852   6.747  24.871  0.00  0.00    -0.503 OA
ATOM     34  H   UNL     1      12.943   7.317  25.651  0.00  0.00    +0.292 HD
ENDBRANCH  28  33
ENDBRANCH  24  25
BRANCH  23  35
ATOM     35  O   UNL     1       2.695   3.450  24.860  0.00  0.00    -0.506 OA
ATOM     36  H   UNL     1       3.223   2.637  24.896  0.00  0.00    +0.292 HD
ENDBRANCH  23  35
BRANCH  20  37
ATOM     37  O   UNL     1       2.818   7.103  27.872  0.00  0.00    -0.507 OA
ATOM     38  H   UNL     1       1.881   7.196  27.629  0.00  0.00    +0.292 HD
ENDBRANCH  20  37
ENDBRANCH  13  14
ENDBRANCH   3  13
BRANCH   1  39
ATOM     39  C   UNL     1       8.515  -0.523  25.524  0.00  0.00    +0.197 C 
BRANCH  39  40
ATOM     40  O   UNL     1       7.116  -0.886  25.398  0.00  0.00    -0.346 OA
BRANCH  40  44
ATOM     41  C   UNL     1       8.184  -5.233  25.095  0.00  0.00    +0.041 C 
ATOM     42  C   UNL     1       8.195  -4.172  23.989  0.00  0.00    +0.149 C 
ATOM     43  O   UNL     1       8.204  -2.828  24.514  0.00  0.00    -0.343 OA
ATOM     44  C   UNL     1       6.967  -2.313  25.037  0.00  0.00    +0.282 C 
ATOM     45  C   UNL     1       5.836  -2.486  23.976  0.00  0.00    +0.201 C 
ATOM     46  C   UNL     1       5.742  -3.953  23.504  0.00  0.00    +0.179 C 
ATOM     47  C   UNL     1       7.098  -4.407  22.935  0.00  0.00    +0.174 C 
BRANCH  47  48
ATOM     48  O   UNL     1       7.097  -5.775  22.500  0.00  0.00    -0.387 OA
ATOM     49  H   UNL     1       6.394  -6.257  22.970  0.00  0.00    +0.210 HD
ENDBRANCH  47  48
BRANCH  46  50
ATOM     50  O   UNL     1       4.730  -4.105  22.495  0.00  0.00    -0.386 OA
ATOM     51  H   UNL     1       3.909  -4.339  22.975  0.00  0.00    +0.210 HD
ENDBRANCH  46  50
BRANCH  45  52
ATOM     52  O   UNL     1       6.091  -1.695  22.793  0.00  0.00    -0.384 OA
ATOM     53  H   UNL     1       6.040  -0.763  23.080  0.00  0.00    +0.210 HD
ENDBRANCH  45  52
ENDBRANCH  40  44
ENDBRANCH  39  40
ENDBRANCH   1  39
TORSDOF 16
ENDMDL
MODEL 7
REMARK VINA RESULT:      -7.0      2.669      8.227
REMARK  Name = 
REMARK  17 active torsions:
REMARK  status: ('A' for Active; 'I' for Inactive)
REMARK    1  A    between atoms: C_1  and  C_2
REMARK    2  A    between atoms: C_3  and  O_43
REMARK    3  A    between atoms: C_4  and  O_42
REMARK    4  A    between atoms: C_5  and  O_41
REMARK    5  A    between atoms: C_6  and  O_8
REMARK    6  A    between atoms: O_8  and  C_9
REMARK    7  A    between atoms: C_9  and  C_10
REMARK    8  A    between atoms: C_11  and  O_40
REMARK    9  A    between atoms: C_12  and  O_39
REMARK   10  A    between atoms: C_13  and  O_38
REMARK   11  A    between atoms: C_14  and  O_16
REMARK   12  A    between atoms: O_16  and  C_17
REMARK   13  A    between atoms: C_18  and  C_30
REMARK   14  A    between atoms: C_22  and  O_29
REMARK   15  A    between atoms: C_24  and  O_28
REMARK   16  A    between atoms: C_32  and  O_37
REMARK   17  A    between atoms: C_33  and  O_36
REMARK                            x       y       z     vdW  Elec       q    Type
REMARK                         _______ _______ _______ _____ _____    ______ ____
ROOT
ATOM      1  C   UNL     1       6.820  -4.213  23.781  0.00  0.00    +0.179 C 
ATOM      2  O   UNL     1       6.397  -3.588  25.017  0.00  0.00    -0.331 OA
ATOM      3  C   UNL     1       7.328  -3.399  26.092  0.00  0.00    +0.340 C 
ATOM      4  C   UNL     1       8.304  -4.605  26.279  0.00  0.00    +0.214 C 
ATOM      5  C   UNL     1       8.924  -4.976  24.924  0.00  0.00    +0.180 C 
ATOM      6  C   UNL     1       7.801  -5.374  23.963  0.00  0.00    +0.177 C 
ENDROOT
BRANCH   6   7
ATOM      7  O   UNL     1       8.272  -5.862  22.708  0.00  0.00    -0.386 OA
ATOM      8  H   UNL     1       9.245  -5.842  22.731  0.00  0.00    +0.210 HD
ENDBRANCH   6   7
BRANCH   5   9
ATOM      9  O   UNL     1       9.840  -6.074  25.066  0.00  0.00    -0.386 OA
ATOM     10  H   UNL     1       9.666  -6.674  24.311  0.00  0.00    +0.210 HD
ENDBRANCH   5   9
BRANCH   4  11
ATOM     11  O   UNL     1       7.666  -5.790  26.809  0.00  0.00    -0.383 OA
ATOM     12  H   UNL     1       7.350  -6.315  26.050  0.00  0.00    +0.210 HD
ENDBRANCH   4  11
BRANCH   3  13
ATOM     13  O   UNL     1       6.621  -3.203  27.365  0.00  0.00    -0.453 OA
BRANCH  13  14
ATOM     14  C   UNL     1       5.506  -2.349  27.460  0.00  0.00    +0.214 A 
ATOM     15  C   UNL     1       5.605  -0.877  27.166  0.00  0.00    +0.238 A 
ATOM     16  O   UNL     1       6.674  -0.301  27.063  0.00  0.00    -0.283 OA
ATOM     17  C   UNL     1       4.337  -0.096  27.092  0.00  0.00    +0.109 A 
ATOM     18  C   UNL     1       3.199  -0.684  27.601  0.00  0.00    +0.147 A 
ATOM     19  C   UNL     1       1.977  -0.011  27.655  0.00  0.00    +0.092 A 
ATOM     20  C   UNL     1       1.898   1.282  27.170  0.00  0.00    +0.124 A 
ATOM     21  C   UNL     1       3.021   1.896  26.617  0.00  0.00    +0.091 A 
ATOM     22  O   UNL     1       3.197  -1.939  28.101  0.00  0.00    -0.451 OA
ATOM     23  C   UNL     1       4.239   1.207  26.581  0.00  0.00    +0.135 A 
ATOM     24  C   UNL     1       4.287  -2.773  27.902  0.00  0.00    +0.181 A 
BRANCH  24  25
ATOM     25  C   UNL     1       3.857  -4.138  28.324  0.00  0.00    +0.025 A 
ATOM     26  C   UNL     1       2.506  -4.489  28.381  0.00  0.00    +0.015 A 
ATOM     27  C   UNL     1       2.123  -5.806  28.664  0.00  0.00    +0.050 A 
ATOM     28  C   UNL     1       3.082  -6.809  28.745  0.00  0.00    +0.158 A 
ATOM     29  C   UNL     1       4.424  -6.511  28.571  0.00  0.00    +0.159 A 
ATOM     30  C   UNL     1       4.822  -5.181  28.424  0.00  0.00    +0.060 A 
BRANCH  29  31
ATOM     31  O   UNL     1       5.300  -7.547  28.413  0.00  0.00    -0.503 OA
ATOM     32  H   UNL     1       4.816  -8.383  28.356  0.00  0.00    +0.292 HD
ENDBRANCH  29  31
BRANCH  28  33
ATOM     33  O   UNL     1       2.704  -8.102  28.953  0.00  0.00    -0.503 OA
ATOM     34  H   UNL     1       1.998  -8.292  28.315  0.00  0.00    +0.292 HD
ENDBRANCH  28  33
ENDBRANCH  24  25
BRANCH  23  35
ATOM     35  O   UNL     1       5.314   1.824  26.023  0.00  0.00    -0.506 OA
ATOM     36  H   UNL     1       5.062   2.283  25.207  0.00  0.00    +0.292 HD
ENDBRANCH  23  35
BRANCH  20  37
ATOM     37  O   UNL     1       0.732   1.984  27.210  0.00  0.00    -0.507 OA
ATOM     38  H   UNL     1       0.539   2.236  28.130  0.00  0.00    +0.292 HD
ENDBRANCH  20  37
ENDBRANCH  13  14
ENDBRANCH   3  13
BRANCH   1  39
ATOM     39  C   UNL     1       7.007  -3.284  22.507  0.00  0.00    +0.197 C 
BRANCH  39  40
ATOM     40  O   UNL     1       8.303  -2.733  22.157  0.00  0.00    -0.346 OA
BRANCH  40  44
ATOM     41  C   UNL     1       8.539   1.676  21.355  0.00  0.00    +0.041 C 
ATOM     42  C   UNL     1       9.635   0.746  21.891  0.00  0.00    +0.149 C 
ATOM     43  O   UNL     1       9.354  -0.645  21.632  0.00  0.00    -0.343 OA
ATOM     44  C   UNL     1       8.364  -1.286  22.457  0.00  0.00    +0.282 C 
ATOM     45  C   UNL     1       8.712  -1.061  23.962  0.00  0.00    +0.201 C 
ATOM     46  C   UNL     1       8.891   0.441  24.269  0.00  0.00    +0.179 C 
ATOM     47  C   UNL     1       9.984   1.033  23.362  0.00  0.00    +0.174 C 
BRANCH  47  48
ATOM     48  O   UNL     1      10.189   2.439  23.571  0.00  0.00    -0.387 OA
ATOM     49  H   UNL     1       9.477   2.783  24.138  0.00  0.00    +0.210 HD
ENDBRANCH  47  48
BRANCH  46  50
ATOM     50  O   UNL     1       9.253   0.646  25.644  0.00  0.00    -0.386 OA
ATOM     51  H   UNL     1       9.255   1.616  25.777  0.00  0.00    +0.210 HD
ENDBRANCH  46  50
BRANCH  45  52
ATOM     52  O   UNL     1       9.957  -1.700  24.321  0.00  0.00    -0.384 OA
ATOM     53  H   UNL     1      10.255  -1.261  25.141  0.00  0.00    +0.210 HD
ENDBRANCH  45  52
ENDBRANCH  40  44
ENDBRANCH  39  40
ENDBRANCH   1  39
TORSDOF 16
ENDMDL
MODEL 8
REMARK VINA RESULT:      -7.0      2.146      6.568
REMARK  Name = 
REMARK  17 active torsions:
REMARK  status: ('A' for Active; 'I' for Inactive)
REMARK    1  A    between atoms: C_1  and  C_2
REMARK    2  A    between atoms: C_3  and  O_43
REMARK    3  A    between atoms: C_4  and  O_42
REMARK    4  A    between atoms: C_5  and  O_41
REMARK    5  A    between atoms: C_6  and  O_8
REMARK    6  A    between atoms: O_8  and  C_9
REMARK    7  A    between atoms: C_9  and  C_10
REMARK    8  A    between atoms: C_11  and  O_40
REMARK    9  A    between atoms: C_12  and  O_39
REMARK   10  A    between atoms: C_13  and  O_38
REMARK   11  A    between atoms: C_14  and  O_16
REMARK   12  A    between atoms: O_16  and  C_17
REMARK   13  A    between atoms: C_18  and  C_30
REMARK   14  A    between atoms: C_22  and  O_29
REMARK   15  A    between atoms: C_24  and  O_28
REMARK   16  A    between atoms: C_32  and  O_37
REMARK   17  A    between atoms: C_33  and  O_36
REMARK                            x       y       z     vdW  Elec       q    Type
REMARK                         _______ _______ _______ _____ _____    ______ ____
ROOT
ATOM      1  C   UNL     1       9.155  -1.701  23.642  0.00  0.00    +0.179 C 
ATOM      2  O   UNL     1       8.642  -1.013  24.809  0.00  0.00    -0.331 OA
ATOM      3  C   UNL     1       8.087   0.305  24.690  0.00  0.00    +0.340 C 
ATOM      4  C   UNL     1       8.877   1.218  23.699  0.00  0.00    +0.214 C 
ATOM      5  C   UNL     1       9.092   0.469  22.375  0.00  0.00    +0.180 C 
ATOM      6  C   UNL     1       9.901  -0.800  22.654  0.00  0.00    +0.177 C 
ENDROOT
BRANCH   6   7
ATOM      7  O   UNL     1      10.270  -1.512  21.475  0.00  0.00    -0.386 OA
ATOM      8  H   UNL     1      10.853  -0.933  20.953  0.00  0.00    +0.210 HD
ENDBRANCH   6   7
BRANCH   5   9
ATOM      9  O   UNL     1       9.804   1.289  21.434  0.00  0.00    -0.386 OA
ATOM     10  H   UNL     1       9.945   2.151  21.875  0.00  0.00    +0.210 HD
ENDBRANCH   5   9
BRANCH   4  11
ATOM     11  O   UNL     1      10.177   1.620  24.190  0.00  0.00    -0.383 OA
ATOM     12  H   UNL     1      10.789   0.874  24.042  0.00  0.00    +0.210 HD
ENDBRANCH   4  11
BRANCH   3  13
ATOM     13  O   UNL     1       8.071   0.983  25.994  0.00  0.00    -0.453 OA
BRANCH  13  14
ATOM     14  C   UNL     1       6.877   1.488  26.544  0.00  0.00    +0.214 A 
ATOM     15  C   UNL     1       5.994   0.652  27.429  0.00  0.00    +0.238 A 
ATOM     16  O   UNL     1       6.125  -0.556  27.530  0.00  0.00    -0.283 OA
ATOM     17  C   UNL     1       4.866   1.332  28.127  0.00  0.00    +0.109 A 
ATOM     18  C   UNL     1       4.510   2.588  27.683  0.00  0.00    +0.147 A 
ATOM     19  C   UNL     1       3.418   3.280  28.212  0.00  0.00    +0.092 A 
ATOM     20  C   UNL     1       2.677   2.697  29.223  0.00  0.00    +0.124 A 
ATOM     21  C   UNL     1       3.029   1.442  29.720  0.00  0.00    +0.091 A 
ATOM     22  O   UNL     1       5.179   3.220  26.694  0.00  0.00    -0.451 OA
ATOM     23  C   UNL     1       4.121   0.761  29.169  0.00  0.00    +0.135 A 
ATOM     24  C   UNL     1       6.397   2.730  26.249  0.00  0.00    +0.181 A 
BRANCH  24  25
ATOM     25  C   UNL     1       6.984   3.788  25.376  0.00  0.00    +0.025 A 
ATOM     26  C   UNL     1       8.198   4.402  25.694  0.00  0.00    +0.015 A 
ATOM     27  C   UNL     1       8.794   5.307  24.807  0.00  0.00    +0.050 A 
ATOM     28  C   UNL     1       8.260   5.491  23.536  0.00  0.00    +0.158 A 
ATOM     29  C   UNL     1       7.124   4.800  23.147  0.00  0.00    +0.159 A 
ATOM     30  C   UNL     1       6.450   4.003  24.073  0.00  0.00    +0.060 A 
BRANCH  29  31
ATOM     31  O   UNL     1       6.779   4.819  21.825  0.00  0.00    -0.503 OA
ATOM     32  H   UNL     1       6.323   5.646  21.614  0.00  0.00    +0.292 HD
ENDBRANCH  29  31
BRANCH  28  33
ATOM     33  O   UNL     1       8.880   6.319  22.648  0.00  0.00    -0.503 OA
ATOM     34  H   UNL     1       8.568   7.217  22.840  0.00  0.00    +0.292 HD
ENDBRANCH  28  33
ENDBRANCH  24  25
BRANCH  23  35
ATOM     35  O   UNL     1       4.451  -0.454  29.682  0.00  0.00    -0.506 OA
ATOM     36  H   UNL     1       4.663  -0.382  30.626  0.00  0.00    +0.292 HD
ENDBRANCH  23  35
BRANCH  20  37
ATOM     37  O   UNL     1       1.599   3.326  29.764  0.00  0.00    -0.507 OA
ATOM     38  H   UNL     1       1.867   4.202  30.092  0.00  0.00    +0.292 HD
ENDBRANCH  20  37
ENDBRANCH  13  14
ENDBRANCH   3  13
BRANCH   1  39
ATOM     39  C   UNL     1       8.291  -2.891  23.045  0.00  0.00    +0.197 C 
BRANCH  39  40
ATOM     40  O   UNL     1       6.885  -3.044  23.374  0.00  0.00    -0.346 OA
BRANCH  40  44
ATOM     41  C   UNL     1       4.824  -6.880  24.455  0.00  0.00    +0.041 C 
ATOM     42  C   UNL     1       4.860  -5.565  25.243  0.00  0.00    +0.149 C 
ATOM     43  O   UNL     1       5.247  -4.442  24.424  0.00  0.00    -0.343 OA
ATOM     44  C   UNL     1       6.641  -4.315  24.090  0.00  0.00    +0.282 C 
ATOM     45  C   UNL     1       7.500  -4.374  25.391  0.00  0.00    +0.201 C 
ATOM     46  C   UNL     1       7.175  -5.643  26.209  0.00  0.00    +0.179 C 
ATOM     47  C   UNL     1       5.674  -5.679  26.544  0.00  0.00    +0.174 C 
BRANCH  47  48
ATOM     48  O   UNL     1       5.290  -6.849  27.283  0.00  0.00    -0.387 OA
ATOM     49  H   UNL     1       4.329  -6.975  27.200  0.00  0.00    +0.210 HD
ENDBRANCH  47  48
BRANCH  46  50
ATOM     50  O   UNL     1       7.935  -5.677  27.429  0.00  0.00    -0.386 OA
ATOM     51  H   UNL     1       7.438  -6.265  28.035  0.00  0.00    +0.210 HD
ENDBRANCH  46  50
BRANCH  45  52
ATOM     52  O   UNL     1       7.228  -3.252  26.259  0.00  0.00    -0.384 OA
ATOM     53  H   UNL     1       6.360  -3.435  26.668  0.00  0.00    +0.210 HD
ENDBRANCH  45  52
ENDBRANCH  40  44
ENDBRANCH  39  40
ENDBRANCH   1  39
TORSDOF 16
ENDMDL
MODEL 9
REMARK VINA RESULT:      -6.9      2.403      9.551
REMARK  Name = 
REMARK  17 active torsions:
REMARK  status: ('A' for Active; 'I' for Inactive)
REMARK    1  A    between atoms: C_1  and  C_2
REMARK    2  A    between atoms: C_3  and  O_43
REMARK    3  A    between atoms: C_4  and  O_42
REMARK    4  A    between atoms: C_5  and  O_41
REMARK    5  A    between atoms: C_6  and  O_8
REMARK    6  A    between atoms: O_8  and  C_9
REMARK    7  A    between atoms: C_9  and  C_10
REMARK    8  A    between atoms: C_11  and  O_40
REMARK    9  A    between atoms: C_12  and  O_39
REMARK   10  A    between atoms: C_13  and  O_38
REMARK   11  A    between atoms: C_14  and  O_16
REMARK   12  A    between atoms: O_16  and  C_17
REMARK   13  A    between atoms: C_18  and  C_30
REMARK   14  A    between atoms: C_22  and  O_29
REMARK   15  A    between atoms: C_24  and  O_28
REMARK   16  A    between atoms: C_32  and  O_37
REMARK   17  A    between atoms: C_33  and  O_36
REMARK                            x       y       z     vdW  Elec       q    Type
REMARK                         _______ _______ _______ _____ _____    ______ ____
ROOT
ATOM      1  C   UNL     1       5.881  -1.006  27.325  0.00  0.00    +0.179 C 
ATOM      2  O   UNL     1       5.883  -2.397  26.921  0.00  0.00    -0.331 OA
ATOM      3  C   UNL     1       4.649  -3.119  26.796  0.00  0.00    +0.340 C 
ATOM      4  C   UNL     1       3.618  -2.774  27.918  0.00  0.00    +0.214 C 
ATOM      5  C   UNL     1       3.483  -1.249  28.037  0.00  0.00    +0.180 C 
ATOM      6  C   UNL     1       4.848  -0.661  28.401  0.00  0.00    +0.177 C 
ENDROOT
BRANCH   6   7
ATOM      7  O   UNL     1       4.814   0.740  28.662  0.00  0.00    -0.386 OA
ATOM      8  H   UNL     1       3.980   1.087  28.297  0.00  0.00    +0.210 HD
ENDBRANCH   6   7
BRANCH   5   9
ATOM      9  O   UNL     1       2.528  -0.898  29.052  0.00  0.00    -0.386 OA
ATOM     10  H   UNL     1       3.049  -0.651  29.843  0.00  0.00    +0.210 HD
ENDBRANCH   5   9
BRANCH   4  11
ATOM     11  O   UNL     1       3.986  -3.284  29.221  0.00  0.00    -0.383 OA
ATOM     12  H   UNL     1       4.494  -2.585  29.675  0.00  0.00    +0.210 HD
ENDBRANCH   4  11
BRANCH   3  13
ATOM     13  O   UNL     1       4.887  -4.568  26.848  0.00  0.00    -0.453 OA
BRANCH  13  14
ATOM     14  C   UNL     1       4.214  -5.453  25.983  0.00  0.00    +0.214 A 
ATOM     15  C   UNL     1       3.214  -6.454  26.493  0.00  0.00    +0.238 A 
ATOM     16  O   UNL     1       3.101  -6.721  27.677  0.00  0.00    -0.283 OA
ATOM     17  C   UNL     1       2.405  -7.201  25.488  0.00  0.00    +0.109 A 
ATOM     18  C   UNL     1       2.832  -7.168  24.177  0.00  0.00    +0.147 A 
ATOM     19  C   UNL     1       2.195  -7.897  23.171  0.00  0.00    +0.092 A 
ATOM     20  C   UNL     1       1.091  -8.666  23.491  0.00  0.00    +0.124 A 
ATOM     21  C   UNL     1       0.611  -8.696  24.800  0.00  0.00    +0.091 A 
ATOM     22  O   UNL     1       3.906  -6.448  23.787  0.00  0.00    -0.451 OA
ATOM     23  C   UNL     1       1.270  -7.966  25.796  0.00  0.00    +0.135 A 
ATOM     24  C   UNL     1       4.479  -5.523  24.647  0.00  0.00    +0.181 A 
BRANCH  24  25
ATOM     25  C   UNL     1       5.438  -4.724  23.830  0.00  0.00    +0.025 A 
ATOM     26  C   UNL     1       4.996  -3.718  22.968  0.00  0.00    +0.015 A 
ATOM     27  C   UNL     1       5.912  -2.899  22.297  0.00  0.00    +0.050 A 
ATOM     28  C   UNL     1       7.268  -2.980  22.596  0.00  0.00    +0.158 A 
ATOM     29  C   UNL     1       7.724  -3.886  23.540  0.00  0.00    +0.159 A 
ATOM     30  C   UNL     1       6.833  -4.796  24.109  0.00  0.00    +0.060 A 
BRANCH  29  31
ATOM     31  O   UNL     1       9.012  -3.766  23.980  0.00  0.00    -0.503 OA
ATOM     32  H   UNL     1       9.199  -4.442  24.646  0.00  0.00    +0.292 HD
ENDBRANCH  29  31
BRANCH  28  33
ATOM     33  O   UNL     1       8.153  -2.135  21.995  0.00  0.00    -0.503 OA
ATOM     34  H   UNL     1       8.335  -2.502  21.116  0.00  0.00    +0.292 HD
ENDBRANCH  28  33
ENDBRANCH  24  25
BRANCH  23  35
ATOM     35  O   UNL     1       0.772  -8.002  27.061  0.00  0.00    -0.506 OA
ATOM     36  H   UNL     1      -0.132  -7.651  27.084  0.00  0.00    +0.292 HD
ENDBRANCH  23  35
BRANCH  20  37
ATOM     37  O   UNL     1       0.443  -9.402  22.548  0.00  0.00    -0.507 OA
ATOM     38  H   UNL     1       1.042  -9.566  21.799  0.00  0.00    +0.292 HD
ENDBRANCH  20  37
ENDBRANCH  13  14
ENDBRANCH   3  13
BRANCH   1  39
ATOM     39  C   UNL     1       6.179   0.088  26.213  0.00  0.00    +0.197 C 
BRANCH  39  40
ATOM     40  O   UNL     1       6.476  -0.288  24.843  0.00  0.00    -0.346 OA
BRANCH  40  44
ATOM     41  C   UNL     1       7.541   2.911  21.882  0.00  0.00    +0.041 C 
ATOM     42  C   UNL     1       8.045   1.464  21.942  0.00  0.00    +0.149 C 
ATOM     43  O   UNL     1       7.198   0.617  22.746  0.00  0.00    -0.343 OA
ATOM     44  C   UNL     1       7.299   0.744  24.176  0.00  0.00    +0.282 C 
ATOM     45  C   UNL     1       8.792   0.606  24.609  0.00  0.00    +0.201 C 
ATOM     46  C   UNL     1       9.685   1.602  23.837  0.00  0.00    +0.179 C 
ATOM     47  C   UNL     1       9.534   1.374  22.323  0.00  0.00    +0.174 C 
BRANCH  47  48
ATOM     48  O   UNL     1      10.315   2.285  21.536  0.00  0.00    -0.387 OA
ATOM     49  H   UNL     1      10.589   1.842  20.714  0.00  0.00    +0.210 HD
ENDBRANCH  47  48
BRANCH  46  50
ATOM     50  O   UNL     1      11.065   1.447  24.205  0.00  0.00    -0.386 OA
ATOM     51  H   UNL     1      11.582   1.794  23.449  0.00  0.00    +0.210 HD
ENDBRANCH  46  50
BRANCH  45  52
ATOM     52  O   UNL     1       9.311  -0.711  24.321  0.00  0.00    -0.384 OA
ATOM     53  H   UNL     1       9.921  -0.598  23.567  0.00  0.00    +0.210 HD
ENDBRANCH  45  52
ENDBRANCH  40  44
ENDBRANCH  39  40
ENDBRANCH   1  39
TORSDOF 16
ENDMDL
