MODEL 1
REMARK VINA RESULT:      -7.6      0.000      0.000
REMARK  Name = 
REMARK  16 active torsions:
REMARK  status: ('A' for Active; 'I' for Inactive)
REMARK    1  A    between atoms: C_2  and  O_51
REMARK    2  A    between atoms: C_4  and  O_50
REMARK    3  A    between atoms: C_6  and  O_49
REMARK    4  A    between atoms: C_8  and  O_11
REMARK    5  A    between atoms: O_11  and  C_12
REMARK    6  A    between atoms: C_12  and  C_13
REMARK    7  A    between atoms: C_15  and  O_48
REMARK    8  A    between atoms: C_17  and  O_47
REMARK    9  A    between atoms: C_19  and  O_46
REMARK   10  A    between atoms: C_21  and  O_24
REMARK   11  A    between atoms: O_24  and  C_25
REMARK   12  A    between atoms: C_26  and  C_38
REMARK   13  A    between atoms: C_30  and  O_37
REMARK   14  A    between atoms: C_32  and  O_36
REMARK   15  A    between atoms: C_40  and  O_45
REMARK   16  A    between atoms: C_41  and  O_44
REMARK                            x       y       z     vdW  Elec       q    Type
REMARK                         _______ _______ _______ _____ _____    ______ ____
ROOT
ATOM      1  C   UNL     1       9.946   1.495  23.808  0.00  0.00    +0.179 C 
ATOM      2  O   UNL     1       9.303   0.513  24.641  0.00  0.00    -0.331 OA
ATOM      3  C   UNL     1       9.796  -0.802  24.354  0.00  0.00    +0.340 C 
ATOM      4  C   UNL     1       9.400  -1.214  22.916  0.00  0.00    +0.214 C 
ATOM      5  C   UNL     1       9.961  -0.179  21.936  0.00  0.00    +0.180 C 
ATOM      6  C   UNL     1       9.545   1.240  22.348  0.00  0.00    +0.177 C 
ENDROOT
BRANCH   6   7
ATOM      7  O   UNL     1      10.160   2.157  21.437  0.00  0.00    -0.386 OA
ATOM      8  H   UNL     1      10.854   1.672  20.954  0.00  0.00    +0.210 HD
ENDBRANCH   6   7
BRANCH   5   9
ATOM      9  O   UNL     1       9.487  -0.421  20.604  0.00  0.00    -0.386 OA
ATOM     10  H   UNL     1       9.473   0.456  20.174  0.00  0.00    +0.210 HD
ENDBRANCH   5   9
BRANCH   4  11
ATOM     11  O   UNL     1       9.862  -2.535  22.585  0.00  0.00    -0.383 OA
ATOM     12  H   UNL     1       9.229  -2.932  21.961  0.00  0.00    +0.210 HD
ENDBRANCH   4  11
BRANCH   3  13
ATOM     13  O   UNL     1       9.202  -1.747  25.241  0.00  0.00    -0.453 OA
BRANCH  13  14
ATOM     14  C   UNL     1       7.992  -1.450  25.840  0.00  0.00    +0.214 A 
ATOM     15  C   UNL     1       7.924  -0.616  27.077  0.00  0.00    +0.238 A 
ATOM     16  O   UNL     1       8.929  -0.364  27.734  0.00  0.00    -0.283 OA
ATOM     17  C   UNL     1       6.588  -0.176  27.517  0.00  0.00    +0.109 A 
ATOM     18  C   UNL     1       5.484  -0.810  26.953  0.00  0.00    +0.147 A 
ATOM     19  C   UNL     1       4.194  -0.506  27.407  0.00  0.00    +0.092 A 
ATOM     20  C   UNL     1       4.021   0.436  28.420  0.00  0.00    +0.124 A 
ATOM     21  C   UNL     1       5.117   1.093  28.974  0.00  0.00    +0.091 A 
ATOM     22  O   UNL     1       5.592  -1.767  25.972  0.00  0.00    -0.451 OA
ATOM     23  C   UNL     1       6.397   0.793  28.517  0.00  0.00    +0.135 A 
ATOM     24  C   UNL     1       6.845  -2.034  25.425  0.00  0.00    +0.181 A 
BRANCH  24  25
ATOM     25  C   UNL     1       6.822  -3.062  24.336  0.00  0.00    +0.025 A 
ATOM     26  C   UNL     1       7.419  -4.325  24.514  0.00  0.00    +0.015 A 
ATOM     27  C   UNL     1       7.365  -5.303  23.507  0.00  0.00    +0.050 A 
ATOM     28  C   UNL     1       6.711  -5.025  22.317  0.00  0.00    +0.158 A 
ATOM     29  C   UNL     1       6.148  -3.776  22.103  0.00  0.00    +0.159 A 
ATOM     30  C   UNL     1       6.224  -2.793  23.085  0.00  0.00    +0.060 A 
BRANCH  29  31
ATOM     31  O   UNL     1       5.514  -3.556  20.910  0.00  0.00    -0.503 OA
ATOM     32  H   UNL     1       6.174  -3.646  20.200  0.00  0.00    +0.292 HD
ENDBRANCH  29  31
BRANCH  28  33
ATOM     33  O   UNL     1       6.620  -5.985  21.351  0.00  0.00    -0.503 OA
ATOM     34  H   UNL     1       6.124  -5.554  20.625  0.00  0.00    +0.292 HD
ENDBRANCH  28  33
ENDBRANCH  24  25
BRANCH  23  35
ATOM     35  O   UNL     1       7.457   1.472  29.050  0.00  0.00    -0.506 OA
ATOM     36  H   UNL     1       8.286   1.007  28.855  0.00  0.00    +0.292 HD
ENDBRANCH  23  35
BRANCH  20  37
ATOM     37  O   UNL     1       2.790   0.757  28.911  0.00  0.00    -0.507 OA
ATOM     38  H   UNL     1       2.150   0.094  28.607  0.00  0.00    +0.292 HD
ENDBRANCH  20  37
ENDBRANCH  13  14
ENDBRANCH   3  13
BRANCH   1  39
ATOM     39  C   UNL     1       9.525   2.895  24.265  0.00  0.00    +0.197 C 
BRANCH  39  40
ATOM     40  O   UNL     1       8.625   3.462  23.308  0.00  0.00    -0.346 OA
BRANCH  40  43
ATOM     41  C   UNL     1       5.899   2.903  25.622  0.00  0.00    +0.197 C 
ATOM     42  O   UNL     1       7.189   2.830  25.017  0.00  0.00    -0.346 OA
ATOM     43  C   UNL     1       7.321   3.666  23.861  0.00  0.00    +0.281 C 
ATOM     44  C   UNL     1       6.268   3.330  22.778  0.00  0.00    +0.201 C 
ATOM     45  C   UNL     1       4.868   3.222  23.391  0.00  0.00    +0.178 C 
ATOM     46  C   UNL     1       4.862   2.353  24.650  0.00  0.00    +0.171 C 
BRANCH  46  47
ATOM     47  O   UNL     1       5.171   0.995  24.316  0.00  0.00    -0.387 OA
ATOM     48  H   UNL     1       4.829   0.829  23.413  0.00  0.00    +0.210 HD
ENDBRANCH  46  47
BRANCH  45  49
ATOM     49  O   UNL     1       3.959   2.747  22.388  0.00  0.00    -0.386 OA
ATOM     50  H   UNL     1       4.355   1.954  21.980  0.00  0.00    +0.210 HD
ENDBRANCH  45  49
BRANCH  44  51
ATOM     51  O   UNL     1       6.230   4.362  21.774  0.00  0.00    -0.384 OA
ATOM     52  H   UNL     1       6.825   4.054  21.062  0.00  0.00    +0.210 HD
ENDBRANCH  44  51
ENDBRANCH  40  43
ENDBRANCH  39  40
ENDBRANCH   1  39
TORSDOF 16
ENDMDL
MODEL 2
REMARK VINA RESULT:      -7.2      1.063      1.440
REMARK  Name = 
REMARK  16 active torsions:
REMARK  status: ('A' for Active; 'I' for Inactive)
REMARK    1  A    between atoms: C_2  and  O_51
REMARK    2  A    between atoms: C_4  and  O_50
REMARK    3  A    between atoms: C_6  and  O_49
REMARK    4  A    between atoms: C_8  and  O_11
REMARK    5  A    between atoms: O_11  and  C_12
REMARK    6  A    between atoms: C_12  and  C_13
REMARK    7  A    between atoms: C_15  and  O_48
REMARK    8  A    between atoms: C_17  and  O_47
REMARK    9  A    between atoms: C_19  and  O_46
REMARK   10  A    between atoms: C_21  and  O_24
REMARK   11  A    between atoms: O_24  and  C_25
REMARK   12  A    between atoms: C_26  and  C_38
REMARK   13  A    between atoms: C_30  and  O_37
REMARK   14  A    between atoms: C_32  and  O_36
REMARK   15  A    between atoms: C_40  and  O_45
REMARK   16  A    between atoms: C_41  and  O_44
REMARK                            x       y       z     vdW  Elec       q    Type
REMARK                         _______ _______ _______ _____ _____    ______ ____
ROOT
ATOM      1  C   UNL     1       9.732   1.513  23.852  0.00  0.00    +0.179 C 
ATOM      2  O   UNL     1       9.056   0.552  24.682  0.00  0.00    -0.331 OA
ATOM      3  C   UNL     1       9.616  -0.757  24.507  0.00  0.00    +0.340 C 
ATOM      4  C   UNL     1       9.355  -1.257  23.066  0.00  0.00    +0.214 C 
ATOM      5  C   UNL     1       9.959  -0.251  22.080  0.00  0.00    +0.180 C 
ATOM      6  C   UNL     1       9.462   1.170  22.380  0.00  0.00    +0.177 C 
ENDROOT
BRANCH   6   7
ATOM      7  O   UNL     1      10.118   2.061  21.474  0.00  0.00    -0.386 OA
ATOM      8  H   UNL     1      10.389   2.849  21.979  0.00  0.00    +0.210 HD
ENDBRANCH   6   7
BRANCH   5   9
ATOM      9  O   UNL     1       9.605  -0.579  20.729  0.00  0.00    -0.386 OA
ATOM     10  H   UNL     1       9.696  -1.549  20.669  0.00  0.00    +0.210 HD
ENDBRANCH   5   9
BRANCH   4  11
ATOM     11  O   UNL     1       9.887  -2.574  22.845  0.00  0.00    -0.383 OA
ATOM     12  H   UNL     1      10.704  -2.664  23.368  0.00  0.00    +0.210 HD
ENDBRANCH   4  11
BRANCH   3  13
ATOM     13  O   UNL     1       8.983  -1.678  25.393  0.00  0.00    -0.453 OA
BRANCH  13  14
ATOM     14  C   UNL     1       7.720  -1.396  25.878  0.00  0.00    +0.214 A 
ATOM     15  C   UNL     1       7.528  -0.544  27.090  0.00  0.00    +0.238 A 
ATOM     16  O   UNL     1       8.467  -0.263  27.829  0.00  0.00    -0.283 OA
ATOM     17  C   UNL     1       6.151  -0.124  27.403  0.00  0.00    +0.109 A 
ATOM     18  C   UNL     1       5.112  -0.789  26.755  0.00  0.00    +0.147 A 
ATOM     19  C   UNL     1       3.782  -0.504  27.089  0.00  0.00    +0.092 A 
ATOM     20  C   UNL     1       3.503   0.450  28.067  0.00  0.00    +0.124 A 
ATOM     21  C   UNL     1       4.533   1.137  28.703  0.00  0.00    +0.091 A 
ATOM     22  O   UNL     1       5.324  -1.759  25.804  0.00  0.00    -0.451 OA
ATOM     23  C   UNL     1       5.854   0.855  28.365  0.00  0.00    +0.135 A 
ATOM     24  C   UNL     1       6.625  -2.009  25.374  0.00  0.00    +0.181 A 
BRANCH  24  25
ATOM     25  C   UNL     1       6.717  -3.053  24.305  0.00  0.00    +0.025 A 
ATOM     26  C   UNL     1       7.394  -4.268  24.530  0.00  0.00    +0.015 A 
ATOM     27  C   UNL     1       7.448  -5.264  23.541  0.00  0.00    +0.050 A 
ATOM     28  C   UNL     1       6.824  -5.052  22.321  0.00  0.00    +0.158 A 
ATOM     29  C   UNL     1       6.184  -3.850  22.062  0.00  0.00    +0.159 A 
ATOM     30  C   UNL     1       6.152  -2.848  23.027  0.00  0.00    +0.060 A 
BRANCH  29  31
ATOM     31  O   UNL     1       5.584  -3.695  20.841  0.00  0.00    -0.503 OA
ATOM     32  H   UNL     1       4.761  -3.192  20.974  0.00  0.00    +0.292 HD
ENDBRANCH  29  31
BRANCH  28  33
ATOM     33  O   UNL     1       6.839  -6.033  21.371  0.00  0.00    -0.503 OA
ATOM     34  H   UNL     1       7.775  -6.077  21.082  0.00  0.00    +0.292 HD
ENDBRANCH  28  33
ENDBRANCH  24  25
BRANCH  23  35
ATOM     35  O   UNL     1       6.850   1.564  28.979  0.00  0.00    -0.506 OA
ATOM     36  H   UNL     1       7.456   0.962  29.439  0.00  0.00    +0.292 HD
ENDBRANCH  23  35
BRANCH  20  37
ATOM     37  O   UNL     1       2.227   0.753  28.442  0.00  0.00    -0.507 OA
ATOM     38  H   UNL     1       1.813   1.280  27.741  0.00  0.00    +0.292 HD
ENDBRANCH  20  37
ENDBRANCH  13  14
ENDBRANCH   3  13
BRANCH   1  39
ATOM     39  C   UNL     1       9.227   2.917  24.197  0.00  0.00    +0.197 C 
BRANCH  39  40
ATOM     40  O   UNL     1       8.509   3.457  23.083  0.00  0.00    -0.346 OA
BRANCH  40  43
ATOM     41  C   UNL     1       5.335   4.644  24.355  0.00  0.00    +0.197 C 
ATOM     42  O   UNL     1       6.388   3.760  23.972  0.00  0.00    -0.346 OA
ATOM     43  C   UNL     1       7.553   4.440  23.493  0.00  0.00    +0.281 C 
ATOM     44  C   UNL     1       7.238   5.354  22.285  0.00  0.00    +0.201 C 
ATOM     45  C   UNL     1       6.003   6.218  22.561  0.00  0.00    +0.178 C 
ATOM     46  C   UNL     1       4.843   5.393  23.122  0.00  0.00    +0.171 C 
BRANCH  46  47
ATOM     47  O   UNL     1       4.372   4.467  22.137  0.00  0.00    -0.387 OA
ATOM     48  H   UNL     1       3.917   3.740  22.610  0.00  0.00    +0.210 HD
ENDBRANCH  46  47
BRANCH  45  49
ATOM     49  O   UNL     1       5.651   6.920  21.360  0.00  0.00    -0.386 OA
ATOM     50  H   UNL     1       5.771   6.306  20.611  0.00  0.00    +0.210 HD
ENDBRANCH  45  49
BRANCH  44  51
ATOM     51  O   UNL     1       8.343   6.239  22.019  0.00  0.00    -0.384 OA
ATOM     52  H   UNL     1       8.581   6.083  21.083  0.00  0.00    +0.210 HD
ENDBRANCH  44  51
ENDBRANCH  40  43
ENDBRANCH  39  40
ENDBRANCH   1  39
TORSDOF 16
ENDMDL
MODEL 3
REMARK VINA RESULT:      -7.1      2.183      6.945
REMARK  Name = 
REMARK  16 active torsions:
REMARK  status: ('A' for Active; 'I' for Inactive)
REMARK    1  A    between atoms: C_2  and  O_51
REMARK    2  A    between atoms: C_4  and  O_50
REMARK    3  A    between atoms: C_6  and  O_49
REMARK    4  A    between atoms: C_8  and  O_11
REMARK    5  A    between atoms: O_11  and  C_12
REMARK    6  A    between atoms: C_12  and  C_13
REMARK    7  A    between atoms: C_15  and  O_48
REMARK    8  A    between atoms: C_17  and  O_47
REMARK    9  A    between atoms: C_19  and  O_46
REMARK   10  A    between atoms: C_21  and  O_24
REMARK   11  A    between atoms: O_24  and  C_25
REMARK   12  A    between atoms: C_26  and  C_38
REMARK   13  A    between atoms: C_30  and  O_37
REMARK   14  A    between atoms: C_32  and  O_36
REMARK   15  A    between atoms: C_40  and  O_45
REMARK   16  A    between atoms: C_41  and  O_44
REMARK                            x       y       z     vdW  Elec       q    Type
REMARK                         _______ _______ _______ _____ _____    ______ ____
ROOT
ATOM      1  C   UNL     1       5.599  -0.256  26.919  0.00  0.00    +0.179 C 
ATOM      2  O   UNL     1       6.045  -0.040  25.568  0.00  0.00    -0.331 OA
ATOM      3  C   UNL     1       6.085   1.360  25.261  0.00  0.00    +0.340 C 
ATOM      4  C   UNL     1       4.654   1.949  25.282  0.00  0.00    +0.214 C 
ATOM      5  C   UNL     1       4.038   1.694  26.661  0.00  0.00    +0.180 C 
ATOM      6  C   UNL     1       4.140   0.209  27.036  0.00  0.00    +0.177 C 
ENDROOT
BRANCH   6   7
ATOM      7  O   UNL     1       3.615   0.056  28.358  0.00  0.00    -0.386 OA
ATOM      8  H   UNL     1       4.370   0.000  28.971  0.00  0.00    +0.210 HD
ENDBRANCH   6   7
BRANCH   5   9
ATOM      9  O   UNL     1       2.654   2.073  26.685  0.00  0.00    -0.386 OA
ATOM     10  H   UNL     1       2.448   2.229  27.626  0.00  0.00    +0.210 HD
ENDBRANCH   5   9
BRANCH   4  11
ATOM     11  O   UNL     1       4.642   3.351  24.966  0.00  0.00    -0.383 OA
ATOM     12  H   UNL     1       4.341   3.838  25.754  0.00  0.00    +0.210 HD
ENDBRANCH   4  11
BRANCH   3  13
ATOM     13  O   UNL     1       6.601   1.554  23.946  0.00  0.00    -0.453 OA
BRANCH  13  14
ATOM     14  C   UNL     1       7.853   2.116  23.782  0.00  0.00    +0.214 A 
ATOM     15  C   UNL     1       8.021   3.586  23.579  0.00  0.00    +0.238 A 
ATOM     16  O   UNL     1       7.064   4.308  23.314  0.00  0.00    -0.283 OA
ATOM     17  C   UNL     1       9.394   4.118  23.629  0.00  0.00    +0.109 A 
ATOM     18  C   UNL     1      10.442   3.203  23.548  0.00  0.00    +0.147 A 
ATOM     19  C   UNL     1      11.765   3.658  23.487  0.00  0.00    +0.092 A 
ATOM     20  C   UNL     1      12.029   5.026  23.514  0.00  0.00    +0.124 A 
ATOM     21  C   UNL     1      10.990   5.948  23.620  0.00  0.00    +0.091 A 
ATOM     22  O   UNL     1      10.244   1.844  23.489  0.00  0.00    -0.451 OA
ATOM     23  C   UNL     1       9.676   5.493  23.685  0.00  0.00    +0.135 A 
ATOM     24  C   UNL     1       8.953   1.343  23.640  0.00  0.00    +0.181 A 
BRANCH  24  25
ATOM     25  C   UNL     1       8.877  -0.152  23.602  0.00  0.00    +0.025 A 
ATOM     26  C   UNL     1       9.696  -0.944  24.431  0.00  0.00    +0.015 A 
ATOM     27  C   UNL     1       9.598  -2.345  24.424  0.00  0.00    +0.050 A 
ATOM     28  C   UNL     1       8.680  -2.963  23.590  0.00  0.00    +0.158 A 
ATOM     29  C   UNL     1       7.889  -2.208  22.737  0.00  0.00    +0.159 A 
ATOM     30  C   UNL     1       8.002  -0.821  22.718  0.00  0.00    +0.060 A 
BRANCH  29  31
ATOM     31  O   UNL     1       6.999  -2.870  21.936  0.00  0.00    -0.503 OA
ATOM     32  H   UNL     1       6.143  -2.899  22.399  0.00  0.00    +0.292 HD
ENDBRANCH  29  31
BRANCH  28  33
ATOM     33  O   UNL     1       8.553  -4.323  23.608  0.00  0.00    -0.503 OA
ATOM     34  H   UNL     1       7.842  -4.492  24.260  0.00  0.00    +0.292 HD
ENDBRANCH  28  33
ENDBRANCH  24  25
BRANCH  23  35
ATOM     35  O   UNL     1       8.673   6.413  23.821  0.00  0.00    -0.506 OA
ATOM     36  H   UNL     1       7.974   6.064  24.398  0.00  0.00    +0.292 HD
ENDBRANCH  23  35
BRANCH  20  37
ATOM     37  O   UNL     1      13.297   5.523  23.441  0.00  0.00    -0.507 OA
ATOM     38  H   UNL     1      13.790   5.023  22.772  0.00  0.00    +0.292 HD
ENDBRANCH  20  37
ENDBRANCH  13  14
ENDBRANCH   3  13
BRANCH   1  39
ATOM     39  C   UNL     1       5.738  -1.742  27.262  0.00  0.00    +0.197 C 
BRANCH  39  40
ATOM     40  O   UNL     1       6.252  -2.451  26.130  0.00  0.00    -0.346 OA
BRANCH  40  43
ATOM     41  C   UNL     1       5.990  -6.000  25.467  0.00  0.00    +0.197 C 
ATOM     42  O   UNL     1       6.555  -4.717  25.740  0.00  0.00    -0.346 OA
ATOM     43  C   UNL     1       5.571  -3.694  25.929  0.00  0.00    +0.281 C 
ATOM     44  C   UNL     1       4.639  -3.551  24.702  0.00  0.00    +0.201 C 
ATOM     45  C   UNL     1       4.126  -4.920  24.242  0.00  0.00    +0.178 C 
ATOM     46  C   UNL     1       5.256  -5.945  24.133  0.00  0.00    +0.171 C 
BRANCH  46  47
ATOM     47  O   UNL     1       6.161  -5.574  23.086  0.00  0.00    -0.387 OA
ATOM     48  H   UNL     1       6.217  -4.596  23.078  0.00  0.00    +0.210 HD
ENDBRANCH  46  47
BRANCH  45  49
ATOM     49  O   UNL     1       3.407  -4.755  23.011  0.00  0.00    -0.386 OA
ATOM     50  H   UNL     1       3.659  -3.891  22.634  0.00  0.00    +0.210 HD
ENDBRANCH  45  49
BRANCH  44  51
ATOM     51  O   UNL     1       3.494  -2.739  25.030  0.00  0.00    -0.384 OA
ATOM     52  H   UNL     1       3.760  -1.820  24.827  0.00  0.00    +0.210 HD
ENDBRANCH  44  51
ENDBRANCH  40  43
ENDBRANCH  39  40
ENDBRANCH   1  39
TORSDOF 16
ENDMDL
MODEL 4
REMARK VINA RESULT:      -7.1      3.000      7.411
REMARK  Name = 
REMARK  16 active torsions:
REMARK  status: ('A' for Active; 'I' for Inactive)
REMARK    1  A    between atoms: C_2  and  O_51
REMARK    2  A    between atoms: C_4  and  O_50
REMARK    3  A    between atoms: C_6  and  O_49
REMARK    4  A    between atoms: C_8  and  O_11
REMARK    5  A    between atoms: O_11  and  C_12
REMARK    6  A    between atoms: C_12  and  C_13
REMARK    7  A    between atoms: C_15  and  O_48
REMARK    8  A    between atoms: C_17  and  O_47
REMARK    9  A    between atoms: C_19  and  O_46
REMARK   10  A    between atoms: C_21  and  O_24
REMARK   11  A    between atoms: O_24  and  C_25
REMARK   12  A    between atoms: C_26  and  C_38
REMARK   13  A    between atoms: C_30  and  O_37
REMARK   14  A    between atoms: C_32  and  O_36
REMARK   15  A    between atoms: C_40  and  O_45
REMARK   16  A    between atoms: C_41  and  O_44
REMARK                            x       y       z     vdW  Elec       q    Type
REMARK                         _______ _______ _______ _____ _____    ______ ____
ROOT
ATOM      1  C   UNL     1       5.404  -3.915  27.044  0.00  0.00    +0.179 C 
ATOM      2  O   UNL     1       5.250  -3.172  25.821  0.00  0.00    -0.331 OA
ATOM      3  C   UNL     1       5.415  -1.766  26.054  0.00  0.00    +0.340 C 
ATOM      4  C   UNL     1       4.274  -1.241  26.957  0.00  0.00    +0.214 C 
ATOM      5  C   UNL     1       4.283  -2.032  28.269  0.00  0.00    +0.180 C 
ATOM      6  C   UNL     1       4.258  -3.542  27.994  0.00  0.00    +0.177 C 
ENDROOT
BRANCH   6   7
ATOM      7  O   UNL     1       4.341  -4.216  29.253  0.00  0.00    -0.386 OA
ATOM      8  H   UNL     1       4.684  -5.112  29.086  0.00  0.00    +0.210 HD
ENDBRANCH   6   7
BRANCH   5   9
ATOM      9  O   UNL     1       3.145  -1.700  29.078  0.00  0.00    -0.386 OA
ATOM     10  H   UNL     1       3.513  -1.250  29.863  0.00  0.00    +0.210 HD
ENDBRANCH   5   9
BRANCH   4  11
ATOM     11  O   UNL     1       4.389   0.170  27.208  0.00  0.00    -0.383 OA
ATOM     12  H   UNL     1       3.670   0.432  27.810  0.00  0.00    +0.210 HD
ENDBRANCH   4  11
BRANCH   3  13
ATOM     13  O   UNL     1       5.334  -1.058  24.819  0.00  0.00    -0.453 OA
BRANCH  13  14
ATOM     14  C   UNL     1       6.425  -0.332  24.378  0.00  0.00    +0.214 A 
ATOM     15  C   UNL     1       6.478   1.153  24.526  0.00  0.00    +0.238 A 
ATOM     16  O   UNL     1       5.478   1.802  24.819  0.00  0.00    -0.283 OA
ATOM     17  C   UNL     1       7.761   1.812  24.226  0.00  0.00    +0.109 A 
ATOM     18  C   UNL     1       8.720   1.070  23.540  0.00  0.00    +0.147 A 
ATOM     19  C   UNL     1       9.917   1.675  23.137  0.00  0.00    +0.092 A 
ATOM     20  C   UNL     1      10.147   3.019  23.432  0.00  0.00    +0.124 A 
ATOM     21  C   UNL     1       9.205   3.762  24.139  0.00  0.00    +0.091 A 
ATOM     22  O   UNL     1       8.540  -0.249  23.196  0.00  0.00    -0.451 OA
ATOM     23  C   UNL     1       8.018   3.157  24.541  0.00  0.00    +0.135 A 
ATOM     24  C   UNL     1       7.407  -0.917  23.655  0.00  0.00    +0.181 A 
BRANCH  24  25
ATOM     25  C   UNL     1       7.350  -2.357  23.251  0.00  0.00    +0.025 A 
ATOM     26  C   UNL     1       8.101  -3.335  23.933  0.00  0.00    +0.015 A 
ATOM     27  C   UNL     1       8.019  -4.692  23.580  0.00  0.00    +0.050 A 
ATOM     28  C   UNL     1       7.184  -5.080  22.543  0.00  0.00    +0.158 A 
ATOM     29  C   UNL     1       6.464  -4.132  21.833  0.00  0.00    +0.159 A 
ATOM     30  C   UNL     1       6.563  -2.783  22.159  0.00  0.00    +0.060 A 
BRANCH  29  31
ATOM     31  O   UNL     1       5.655  -4.572  20.819  0.00  0.00    -0.503 OA
ATOM     32  H   UNL     1       6.219  -4.991  20.146  0.00  0.00    +0.292 HD
ENDBRANCH  29  31
BRANCH  28  33
ATOM     33  O   UNL     1       7.070  -6.402  22.222  0.00  0.00    -0.503 OA
ATOM     34  H   UNL     1       7.561  -6.868  22.930  0.00  0.00    +0.292 HD
ENDBRANCH  28  33
ENDBRANCH  24  25
BRANCH  23  35
ATOM     35  O   UNL     1       7.121   3.895  25.263  0.00  0.00    -0.506 OA
ATOM     36  H   UNL     1       7.216   3.707  26.210  0.00  0.00    +0.292 HD
ENDBRANCH  23  35
BRANCH  20  37
ATOM     37  O   UNL     1      11.287   3.662  23.049  0.00  0.00    -0.507 OA
ATOM     38  H   UNL     1      11.046   4.430  22.509  0.00  0.00    +0.292 HD
ENDBRANCH  20  37
ENDBRANCH  13  14
ENDBRANCH   3  13
BRANCH   1  39
ATOM     39  C   UNL     1       5.397  -5.413  26.725  0.00  0.00    +0.197 C 
BRANCH  39  40
ATOM     40  O   UNL     1       5.047  -5.610  25.352  0.00  0.00    -0.346 OA
BRANCH  40  43
ATOM     41  C   UNL     1       1.923  -7.207  26.242  0.00  0.00    +0.197 C 
ATOM     42  O   UNL     1       3.275  -6.757  26.315  0.00  0.00    -0.346 OA
ATOM     43  C   UNL     1       3.664  -5.947  25.200  0.00  0.00    +0.281 C 
ATOM     44  C   UNL     1       3.483  -6.687  23.854  0.00  0.00    +0.201 C 
ATOM     45  C   UNL     1       2.102  -7.348  23.774  0.00  0.00    +0.178 C 
ATOM     46  C   UNL     1       1.774  -8.136  25.043  0.00  0.00    +0.171 C 
BRANCH  46  47
ATOM     47  O   UNL     1       2.658  -9.256  25.173  0.00  0.00    -0.387 OA
ATOM     48  H   UNL     1       3.475  -9.044  24.676  0.00  0.00    +0.210 HD
ENDBRANCH  46  47
BRANCH  45  49
ATOM     49  O   UNL     1       2.043  -8.156  22.590  0.00  0.00    -0.386 OA
ATOM     50  H   UNL     1       1.241  -7.901  22.096  0.00  0.00    +0.210 HD
ENDBRANCH  45  49
BRANCH  44  51
ATOM     51  O   UNL     1       3.593  -5.765  22.752  0.00  0.00    -0.384 OA
ATOM     52  H   UNL     1       3.488  -6.309  21.946  0.00  0.00    +0.210 HD
ENDBRANCH  44  51
ENDBRANCH  40  43
ENDBRANCH  39  40
ENDBRANCH   1  39
TORSDOF 16
ENDMDL
MODEL 5
REMARK VINA RESULT:      -7.0      1.942      6.205
REMARK  Name = 
REMARK  16 active torsions:
REMARK  status: ('A' for Active; 'I' for Inactive)
REMARK    1  A    between atoms: C_2  and  O_51
REMARK    2  A    between atoms: C_4  and  O_50
REMARK    3  A    between atoms: C_6  and  O_49
REMARK    4  A    between atoms: C_8  and  O_11
REMARK    5  A    between atoms: O_11  and  C_12
REMARK    6  A    between atoms: C_12  and  C_13
REMARK    7  A    between atoms: C_15  and  O_48
REMARK    8  A    between atoms: C_17  and  O_47
REMARK    9  A    between atoms: C_19  and  O_46
REMARK   10  A    between atoms: C_21  and  O_24
REMARK   11  A    between atoms: O_24  and  C_25
REMARK   12  A    between atoms: C_26  and  C_38
REMARK   13  A    between atoms: C_30  and  O_37
REMARK   14  A    between atoms: C_32  and  O_36
REMARK   15  A    between atoms: C_40  and  O_45
REMARK   16  A    between atoms: C_41  and  O_44
REMARK                            x       y       z     vdW  Elec       q    Type
REMARK                         _______ _______ _______ _____ _____    ______ ____
ROOT
ATOM      1  C   UNL     1       4.837   2.523  25.526  0.00  0.00    +0.179 C 
ATOM      2  O   UNL     1       5.994   1.679  25.660  0.00  0.00    -0.331 OA
ATOM      3  C   UNL     1       5.642   0.422  26.254  0.00  0.00    +0.340 C 
ATOM      4  C   UNL     1       5.167   0.638  27.710  0.00  0.00    +0.214 C 
ATOM      5  C   UNL     1       3.979   1.606  27.699  0.00  0.00    +0.180 C 
ATOM      6  C   UNL     1       4.327   2.886  26.928  0.00  0.00    +0.177 C 
ENDROOT
BRANCH   6   7
ATOM      7  O   UNL     1       3.156   3.708  26.896  0.00  0.00    -0.386 OA
ATOM      8  H   UNL     1       3.295   4.393  26.217  0.00  0.00    +0.210 HD
ENDBRANCH   6   7
BRANCH   5   9
ATOM      9  O   UNL     1       3.600   1.970  29.034  0.00  0.00    -0.386 OA
ATOM     10  H   UNL     1       2.780   2.490  28.934  0.00  0.00    +0.210 HD
ENDBRANCH   5   9
BRANCH   4  11
ATOM     11  O   UNL     1       4.815  -0.598  28.353  0.00  0.00    -0.383 OA
ATOM     12  H   UNL     1       5.399  -1.298  28.010  0.00  0.00    +0.210 HD
ENDBRANCH   4  11
BRANCH   3  13
ATOM     13  O   UNL     1       6.788  -0.426  26.307  0.00  0.00    -0.453 OA
BRANCH  13  14
ATOM     14  C   UNL     1       6.887  -1.491  25.431  0.00  0.00    +0.214 A 
ATOM     15  C   UNL     1       6.221  -2.797  25.720  0.00  0.00    +0.238 A 
ATOM     16  O   UNL     1       5.770  -3.051  26.833  0.00  0.00    -0.283 OA
ATOM     17  C   UNL     1       6.203  -3.794  24.636  0.00  0.00    +0.109 A 
ATOM     18  C   UNL     1       7.057  -3.587  23.556  0.00  0.00    +0.147 A 
ATOM     19  C   UNL     1       7.158  -4.553  22.547  0.00  0.00    +0.092 A 
ATOM     20  C   UNL     1       6.397  -5.719  22.626  0.00  0.00    +0.124 A 
ATOM     21  C   UNL     1       5.522  -5.925  23.690  0.00  0.00    +0.091 A 
ATOM     22  O   UNL     1       7.853  -2.472  23.436  0.00  0.00    -0.451 OA
ATOM     23  C   UNL     1       5.420  -4.960  24.689  0.00  0.00    +0.135 A 
ATOM     24  C   UNL     1       7.718  -1.444  24.366  0.00  0.00    +0.181 A 
BRANCH  24  25
ATOM     25  C   UNL     1       8.607  -0.269  24.099  0.00  0.00    +0.025 A 
ATOM     26  C   UNL     1       9.800  -0.079  24.823  0.00  0.00    +0.015 A 
ATOM     27  C   UNL     1      10.655   1.002  24.548  0.00  0.00    +0.050 A 
ATOM     28  C   UNL     1      10.321   1.899  23.545  0.00  0.00    +0.158 A 
ATOM     29  C   UNL     1       9.133   1.755  22.844  0.00  0.00    +0.159 A 
ATOM     30  C   UNL     1       8.269   0.703  23.132  0.00  0.00    +0.060 A 
BRANCH  29  31
ATOM     31  O   UNL     1       8.855   2.670  21.864  0.00  0.00    -0.503 OA
ATOM     32  H   UNL     1       8.451   2.194  21.116  0.00  0.00    +0.292 HD
ENDBRANCH  29  31
BRANCH  28  33
ATOM     33  O   UNL     1      11.166   2.928  23.246  0.00  0.00    -0.503 OA
ATOM     34  H   UNL     1      10.660   3.484  22.617  0.00  0.00    +0.292 HD
ENDBRANCH  28  33
ENDBRANCH  24  25
BRANCH  23  35
ATOM     35  O   UNL     1       4.532  -5.167  25.708  0.00  0.00    -0.506 OA
ATOM     36  H   UNL     1       3.810  -5.744  25.412  0.00  0.00    +0.292 HD
ENDBRANCH  23  35
BRANCH  20  37
ATOM     37  O   UNL     1       6.469  -6.699  21.681  0.00  0.00    -0.507 OA
ATOM     38  H   UNL     1       7.288  -7.201  21.814  0.00  0.00    +0.292 HD
ENDBRANCH  20  37
ENDBRANCH  13  14
ENDBRANCH   3  13
BRANCH   1  39
ATOM     39  C   UNL     1       5.219   3.776  24.732  0.00  0.00    +0.197 C 
BRANCH  39  40
ATOM     40  O   UNL     1       5.719   4.777  25.624  0.00  0.00    -0.346 OA
BRANCH  40  43
ATOM     41  C   UNL     1       6.491   7.107  22.964  0.00  0.00    +0.197 C 
ATOM     42  O   UNL     1       5.779   6.167  23.768  0.00  0.00    -0.346 OA
ATOM     43  C   UNL     1       6.500   5.759  24.936  0.00  0.00    +0.281 C 
ATOM     44  C   UNL     1       7.872   5.138  24.583  0.00  0.00    +0.201 C 
ATOM     45  C   UNL     1       8.629   6.016  23.581  0.00  0.00    +0.178 C 
ATOM     46  C   UNL     1       7.742   6.436  22.408  0.00  0.00    +0.171 C 
BRANCH  46  47
ATOM     47  O   UNL     1       7.382   5.292  21.624  0.00  0.00    -0.387 OA
ATOM     48  H   UNL     1       7.217   4.552  22.244  0.00  0.00    +0.210 HD
ENDBRANCH  46  47
BRANCH  45  49
ATOM     49  O   UNL     1       9.812   5.322  23.158  0.00  0.00    -0.386 OA
ATOM     50  H   UNL     1      10.559   5.947  23.214  0.00  0.00    +0.210 HD
ENDBRANCH  45  49
BRANCH  44  51
ATOM     51  O   UNL     1       8.689   5.014  25.764  0.00  0.00    -0.384 OA
ATOM     52  H   UNL     1       8.249   4.337  26.315  0.00  0.00    +0.210 HD
ENDBRANCH  44  51
ENDBRANCH  40  43
ENDBRANCH  39  40
ENDBRANCH   1  39
TORSDOF 16
ENDMDL
MODEL 6
REMARK VINA RESULT:      -6.9      2.395      5.751
REMARK  Name = 
REMARK  16 active torsions:
REMARK  status: ('A' for Active; 'I' for Inactive)
REMARK    1  A    between atoms: C_2  and  O_51
REMARK    2  A    between atoms: C_4  and  O_50
REMARK    3  A    between atoms: C_6  and  O_49
REMARK    4  A    between atoms: C_8  and  O_11
REMARK    5  A    between atoms: O_11  and  C_12
REMARK    6  A    between atoms: C_12  and  C_13
REMARK    7  A    between atoms: C_15  and  O_48
REMARK    8  A    between atoms: C_17  and  O_47
REMARK    9  A    between atoms: C_19  and  O_46
REMARK   10  A    between atoms: C_21  and  O_24
REMARK   11  A    between atoms: O_24  and  C_25
REMARK   12  A    between atoms: C_26  and  C_38
REMARK   13  A    between atoms: C_30  and  O_37
REMARK   14  A    between atoms: C_32  and  O_36
REMARK   15  A    between atoms: C_40  and  O_45
REMARK   16  A    between atoms: C_41  and  O_44
REMARK                            x       y       z     vdW  Elec       q    Type
REMARK                         _______ _______ _______ _____ _____    ______ ____
ROOT
ATOM      1  C   UNL     1       4.544  -3.057  27.349  0.00  0.00    +0.179 C 
ATOM      2  O   UNL     1       5.834  -2.874  26.739  0.00  0.00    -0.331 OA
ATOM      3  C   UNL     1       6.482  -4.136  26.528  0.00  0.00    +0.340 C 
ATOM      4  C   UNL     1       6.802  -4.801  27.888  0.00  0.00    +0.214 C 
ATOM      5  C   UNL     1       5.497  -4.965  28.673  0.00  0.00    +0.180 C 
ATOM      6  C   UNL     1       4.743  -3.631  28.759  0.00  0.00    +0.177 C 
ENDROOT
BRANCH   6   7
ATOM      7  O   UNL     1       3.507  -3.872  29.439  0.00  0.00    -0.386 OA
ATOM      8  H   UNL     1       2.808  -3.945  28.763  0.00  0.00    +0.210 HD
ENDBRANCH   6   7
BRANCH   5   9
ATOM      9  O   UNL     1       5.754  -5.426  30.008  0.00  0.00    -0.386 OA
ATOM     10  H   UNL     1       5.695  -6.399  29.957  0.00  0.00    +0.210 HD
ENDBRANCH   5   9
BRANCH   4  11
ATOM     11  O   UNL     1       7.467  -6.065  27.729  0.00  0.00    -0.383 OA
ATOM     12  H   UNL     1       8.299  -5.914  27.245  0.00  0.00    +0.210 HD
ENDBRANCH   4  11
BRANCH   3  13
ATOM     13  O   UNL     1       7.724  -3.936  25.855  0.00  0.00    -0.453 OA
BRANCH  13  14
ATOM     14  C   UNL     1       7.861  -2.873  24.983  0.00  0.00    +0.214 A 
ATOM     15  C   UNL     1       8.671  -1.672  25.347  0.00  0.00    +0.238 A 
ATOM     16  O   UNL     1       9.041  -1.477  26.501  0.00  0.00    -0.283 OA
ATOM     17  C   UNL     1       8.936  -0.693  24.279  0.00  0.00    +0.109 A 
ATOM     18  C   UNL     1       8.173  -0.785  23.117  0.00  0.00    +0.147 A 
ATOM     19  C   UNL     1       8.309   0.181  22.112  0.00  0.00    +0.092 A 
ATOM     20  C   UNL     1       9.214   1.228  22.276  0.00  0.00    +0.124 A 
ATOM     21  C   UNL     1       9.999   1.316  23.423  0.00  0.00    +0.091 A 
ATOM     22  O   UNL     1       7.245  -1.777  22.910  0.00  0.00    -0.451 OA
ATOM     23  C   UNL     1       9.865   0.352  24.418  0.00  0.00    +0.135 A 
ATOM     24  C   UNL     1       7.142  -2.809  23.840  0.00  0.00    +0.181 A 
BRANCH  24  25
ATOM     25  C   UNL     1       6.128  -3.850  23.477  0.00  0.00    +0.025 A 
ATOM     26  C   UNL     1       6.512  -5.061  22.870  0.00  0.00    +0.015 A 
ATOM     27  C   UNL     1       5.567  -6.054  22.565  0.00  0.00    +0.050 A 
ATOM     28  C   UNL     1       4.230  -5.842  22.866  0.00  0.00    +0.158 A 
ATOM     29  C   UNL     1       3.821  -4.642  23.429  0.00  0.00    +0.159 A 
ATOM     30  C   UNL     1       4.750  -3.643  23.707  0.00  0.00    +0.060 A 
BRANCH  29  31
ATOM     31  O   UNL     1       2.490  -4.487  23.705  0.00  0.00    -0.503 OA
ATOM     32  H   UNL     1       2.072  -4.057  22.938  0.00  0.00    +0.292 HD
ENDBRANCH  29  31
BRANCH  28  33
ATOM     33  O   UNL     1       3.312  -6.819  22.607  0.00  0.00    -0.503 OA
ATOM     34  H   UNL     1       2.448  -6.394  22.789  0.00  0.00    +0.292 HD
ENDBRANCH  28  33
ENDBRANCH  24  25
BRANCH  23  35
ATOM     35  O   UNL     1      10.668   0.438  25.522  0.00  0.00    -0.506 OA
ATOM     36  H   UNL     1      11.338   1.129  25.397  0.00  0.00    +0.292 HD
ENDBRANCH  23  35
BRANCH  20  37
ATOM     37  O   UNL     1       9.374   2.204  21.336  0.00  0.00    -0.507 OA
ATOM     38  H   UNL     1       9.840   2.953  21.740  0.00  0.00    +0.292 HD
ENDBRANCH  20  37
ENDBRANCH  13  14
ENDBRANCH   3  13
BRANCH   1  39
ATOM     39  C   UNL     1       3.815  -1.711  27.395  0.00  0.00    +0.197 C 
BRANCH  39  40
ATOM     40  O   UNL     1       4.160  -0.938  26.241  0.00  0.00    -0.346 OA
BRANCH  40  43
ATOM     41  C   UNL     1       4.238   2.664  25.889  0.00  0.00    +0.197 C 
ATOM     42  O   UNL     1       3.891   1.296  25.675  0.00  0.00    -0.346 OA
ATOM     43  C   UNL     1       4.532   0.400  26.591  0.00  0.00    +0.281 C 
ATOM     44  C   UNL     1       6.073   0.513  26.532  0.00  0.00    +0.201 C 
ATOM     45  C   UNL     1       6.516   1.980  26.583  0.00  0.00    +0.178 C 
ATOM     46  C   UNL     1       5.724   2.849  25.606  0.00  0.00    +0.171 C 
BRANCH  46  47
ATOM     47  O   UNL     1       6.020   2.472  24.256  0.00  0.00    -0.387 OA
ATOM     48  H   UNL     1       6.682   1.751  24.290  0.00  0.00    +0.210 HD
ENDBRANCH  46  47
BRANCH  45  49
ATOM     49  O   UNL     1       7.932   2.044  26.358  0.00  0.00    -0.386 OA
ATOM     50  H   UNL     1       8.187   1.253  25.846  0.00  0.00    +0.210 HD
ENDBRANCH  45  49
BRANCH  44  51
ATOM     51  O   UNL     1       6.673  -0.167  27.652  0.00  0.00    -0.384 OA
ATOM     52  H   UNL     1       7.315   0.467  28.027  0.00  0.00    +0.210 HD
ENDBRANCH  44  51
ENDBRANCH  40  43
ENDBRANCH  39  40
ENDBRANCH   1  39
TORSDOF 16
ENDMDL
MODEL 7
REMARK VINA RESULT:      -6.9      2.659      5.760
REMARK  Name = 
REMARK  16 active torsions:
REMARK  status: ('A' for Active; 'I' for Inactive)
REMARK    1  A    between atoms: C_2  and  O_51
REMARK    2  A    between atoms: C_4  and  O_50
REMARK    3  A    between atoms: C_6  and  O_49
REMARK    4  A    between atoms: C_8  and  O_11
REMARK    5  A    between atoms: O_11  and  C_12
REMARK    6  A    between atoms: C_12  and  C_13
REMARK    7  A    between atoms: C_15  and  O_48
REMARK    8  A    between atoms: C_17  and  O_47
REMARK    9  A    between atoms: C_19  and  O_46
REMARK   10  A    between atoms: C_21  and  O_24
REMARK   11  A    between atoms: O_24  and  C_25
REMARK   12  A    between atoms: C_26  and  C_38
REMARK   13  A    between atoms: C_30  and  O_37
REMARK   14  A    between atoms: C_32  and  O_36
REMARK   15  A    between atoms: C_40  and  O_45
REMARK   16  A    between atoms: C_41  and  O_44
REMARK                            x       y       z     vdW  Elec       q    Type
REMARK                         _______ _______ _______ _____ _____    ______ ____
ROOT
ATOM      1  C   UNL     1       5.566   1.199  24.867  0.00  0.00    +0.179 C 
ATOM      2  O   UNL     1       6.228   0.045  25.416  0.00  0.00    -0.331 OA
ATOM      3  C   UNL     1       5.287  -0.825  26.059  0.00  0.00    +0.340 C 
ATOM      4  C   UNL     1       4.673  -0.123  27.293  0.00  0.00    +0.214 C 
ATOM      5  C   UNL     1       4.010   1.180  26.837  0.00  0.00    +0.180 C 
ATOM      6  C   UNL     1       4.991   2.033  26.020  0.00  0.00    +0.177 C 
ENDROOT
BRANCH   6   7
ATOM      7  O   UNL     1       4.288   3.194  25.568  0.00  0.00    -0.386 OA
ATOM      8  H   UNL     1       3.355   3.097  25.833  0.00  0.00    +0.210 HD
ENDBRANCH   6   7
BRANCH   5   9
ATOM      9  O   UNL     1       3.565   1.953  27.961  0.00  0.00    -0.386 OA
ATOM     10  H   UNL     1       3.340   2.830  27.596  0.00  0.00    +0.210 HD
ENDBRANCH   5   9
BRANCH   4  11
ATOM     11  O   UNL     1       3.731  -0.964  27.980  0.00  0.00    -0.383 OA
ATOM     12  H   UNL     1       4.134  -1.252  28.819  0.00  0.00    +0.210 HD
ENDBRANCH   4  11
BRANCH   3  13
ATOM     13  O   UNL     1       5.953  -1.996  26.529  0.00  0.00    -0.453 OA
BRANCH  13  14
ATOM     14  C   UNL     1       5.495  -3.241  26.141  0.00  0.00    +0.214 A 
ATOM     15  C   UNL     1       4.690  -4.093  27.067  0.00  0.00    +0.238 A 
ATOM     16  O   UNL     1       4.606  -3.834  28.264  0.00  0.00    -0.283 OA
ATOM     17  C   UNL     1       4.068  -5.300  26.496  0.00  0.00    +0.109 A 
ATOM     18  C   UNL     1       4.518  -5.728  25.249  0.00  0.00    +0.147 A 
ATOM     19  C   UNL     1       4.037  -6.926  24.704  0.00  0.00    +0.092 A 
ATOM     20  C   UNL     1       3.104  -7.683  25.412  0.00  0.00    +0.124 A 
ATOM     21  C   UNL     1       2.630  -7.252  26.649  0.00  0.00    +0.091 A 
ATOM     22  O   UNL     1       5.456  -5.040  24.517  0.00  0.00    -0.451 OA
ATOM     23  C   UNL     1       3.106  -6.059  27.185  0.00  0.00    +0.135 A 
ATOM     24  C   UNL     1       5.892  -3.799  24.975  0.00  0.00    +0.181 A 
BRANCH  24  25
ATOM     25  C   UNL     1       6.878  -3.133  24.067  0.00  0.00    +0.025 A 
ATOM     26  C   UNL     1       6.451  -2.332  22.990  0.00  0.00    +0.015 A 
ATOM     27  C   UNL     1       7.375  -1.675  22.161  0.00  0.00    +0.050 A 
ATOM     28  C   UNL     1       8.733  -1.814  22.405  0.00  0.00    +0.158 A 
ATOM     29  C   UNL     1       9.179  -2.627  23.435  0.00  0.00    +0.159 A 
ATOM     30  C   UNL     1       8.269  -3.303  24.242  0.00  0.00    +0.060 A 
BRANCH  29  31
ATOM     31  O   UNL     1      10.531  -2.727  23.631  0.00  0.00    -0.503 OA
ATOM     32  H   UNL     1      10.772  -2.131  24.362  0.00  0.00    +0.292 HD
ENDBRANCH  29  31
BRANCH  28  33
ATOM     33  O   UNL     1       9.634  -1.146  21.626  0.00  0.00    -0.503 OA
ATOM     34  H   UNL     1       9.962  -0.423  22.201  0.00  0.00    +0.292 HD
ENDBRANCH  28  33
ENDBRANCH  24  25
BRANCH  23  35
ATOM     35  O   UNL     1       2.604  -5.637  28.385  0.00  0.00    -0.506 OA
ATOM     36  H   UNL     1       2.192  -6.379  28.856  0.00  0.00    +0.292 HD
ENDBRANCH  23  35
BRANCH  20  37
ATOM     37  O   UNL     1       2.617  -8.865  24.936  0.00  0.00    -0.507 OA
ATOM     38  H   UNL     1       1.650  -8.805  24.885  0.00  0.00    +0.292 HD
ENDBRANCH  20  37
ENDBRANCH  13  14
ENDBRANCH   3  13
BRANCH   1  39
ATOM     39  C   UNL     1       6.571   2.009  24.042  0.00  0.00    +0.197 C 
BRANCH  39  40
ATOM     40  O   UNL     1       7.132   3.046  24.852  0.00  0.00    -0.346 OA
BRANCH  40  43
ATOM     41  C   UNL     1      10.308   3.977  23.387  0.00  0.00    +0.197 C 
ATOM     42  O   UNL     1       8.903   3.910  23.628  0.00  0.00    -0.346 OA
ATOM     43  C   UNL     1       8.559   3.087  24.748  0.00  0.00    +0.281 C 
ATOM     44  C   UNL     1       9.082   1.639  24.587  0.00  0.00    +0.201 C 
ATOM     45  C   UNL     1      10.553   1.634  24.158  0.00  0.00    +0.178 C 
ATOM     46  C   UNL     1      10.810   2.592  22.994  0.00  0.00    +0.171 C 
BRANCH  46  47
ATOM     47  O   UNL     1      10.131   2.137  21.818  0.00  0.00    -0.387 OA
ATOM     48  H   UNL     1      10.731   1.517  21.354  0.00  0.00    +0.210 HD
ENDBRANCH  46  47
BRANCH  45  49
ATOM     49  O   UNL     1      10.943   0.285  23.860  0.00  0.00    -0.386 OA
ATOM     50  H   UNL     1      11.896   0.292  23.648  0.00  0.00    +0.210 HD
ENDBRANCH  45  49
BRANCH  44  51
ATOM     51  O   UNL     1       8.986   0.926  25.836  0.00  0.00    -0.384 OA
ATOM     52  H   UNL     1       8.428   1.486  26.412  0.00  0.00    +0.210 HD
ENDBRANCH  44  51
ENDBRANCH  40  43
ENDBRANCH  39  40
ENDBRANCH   1  39
TORSDOF 16
ENDMDL
MODEL 8
REMARK VINA RESULT:      -6.8      2.044      4.877
REMARK  Name = 
REMARK  16 active torsions:
REMARK  status: ('A' for Active; 'I' for Inactive)
REMARK    1  A    between atoms: C_2  and  O_51
REMARK    2  A    between atoms: C_4  and  O_50
REMARK    3  A    between atoms: C_6  and  O_49
REMARK    4  A    between atoms: C_8  and  O_11
REMARK    5  A    between atoms: O_11  and  C_12
REMARK    6  A    between atoms: C_12  and  C_13
REMARK    7  A    between atoms: C_15  and  O_48
REMARK    8  A    between atoms: C_17  and  O_47
REMARK    9  A    between atoms: C_19  and  O_46
REMARK   10  A    between atoms: C_21  and  O_24
REMARK   11  A    between atoms: O_24  and  C_25
REMARK   12  A    between atoms: C_26  and  C_38
REMARK   13  A    between atoms: C_30  and  O_37
REMARK   14  A    between atoms: C_32  and  O_36
REMARK   15  A    between atoms: C_40  and  O_45
REMARK   16  A    between atoms: C_41  and  O_44
REMARK                            x       y       z     vdW  Elec       q    Type
REMARK                         _______ _______ _______ _____ _____    ______ ____
ROOT
ATOM      1  C   UNL     1       9.057  -3.453  25.574  0.00  0.00    +0.179 C 
ATOM      2  O   UNL     1       7.855  -2.674  25.718  0.00  0.00    -0.331 OA
ATOM      3  C   UNL     1       7.295  -2.838  27.028  0.00  0.00    +0.340 C 
ATOM      4  C   UNL     1       6.820  -4.298  27.222  0.00  0.00    +0.214 C 
ATOM      5  C   UNL     1       8.011  -5.235  27.000  0.00  0.00    +0.180 C 
ATOM      6  C   UNL     1       8.691  -4.942  25.655  0.00  0.00    +0.177 C 
ENDROOT
BRANCH   6   7
ATOM      7  O   UNL     1       9.831  -5.799  25.546  0.00  0.00    -0.386 OA
ATOM      8  H   UNL     1       9.846  -6.157  24.640  0.00  0.00    +0.210 HD
ENDBRANCH   6   7
BRANCH   5   9
ATOM      9  O   UNL     1       7.594  -6.608  27.006  0.00  0.00    -0.386 OA
ATOM     10  H   UNL     1       6.672  -6.594  27.328  0.00  0.00    +0.210 HD
ENDBRANCH   5   9
BRANCH   4  11
ATOM     11  O   UNL     1       6.236  -4.509  28.519  0.00  0.00    -0.383 OA
ATOM     12  H   UNL     1       5.274  -4.380  28.445  0.00  0.00    +0.210 HD
ENDBRANCH   4  11
BRANCH   3  13
ATOM     13  O   UNL     1       6.150  -2.000  27.174  0.00  0.00    -0.453 OA
BRANCH  13  14
ATOM     14  C   UNL     1       6.054  -0.843  26.424  0.00  0.00    +0.214 A 
ATOM     15  C   UNL     1       6.296   0.498  27.036  0.00  0.00    +0.238 A 
ATOM     16  O   UNL     1       6.352   0.645  28.253  0.00  0.00    -0.283 OA
ATOM     17  C   UNL     1       6.383   1.648  26.119  0.00  0.00    +0.109 A 
ATOM     18  C   UNL     1       5.931   1.465  24.813  0.00  0.00    +0.147 A 
ATOM     19  C   UNL     1       5.894   2.550  23.928  0.00  0.00    +0.092 A 
ATOM     20  C   UNL     1       6.314   3.808  24.356  0.00  0.00    +0.124 A 
ATOM     21  C   UNL     1       6.790   3.996  25.651  0.00  0.00    +0.091 A 
ATOM     22  O   UNL     1       5.478   0.256  24.342  0.00  0.00    -0.451 OA
ATOM     23  C   UNL     1       6.831   2.915  26.527  0.00  0.00    +0.135 A 
ATOM     24  C   UNL     1       5.583  -0.868  25.157  0.00  0.00    +0.181 A 
BRANCH  24  25
ATOM     25  C   UNL     1       5.097  -2.129  24.512  0.00  0.00    +0.025 A 
ATOM     26  C   UNL     1       4.100  -2.919  25.116  0.00  0.00    +0.015 A 
ATOM     27  C   UNL     1       3.615  -4.081  24.494  0.00  0.00    +0.050 A 
ATOM     28  C   UNL     1       4.125  -4.460  23.261  0.00  0.00    +0.158 A 
ATOM     29  C   UNL     1       5.134  -3.720  22.663  0.00  0.00    +0.159 A 
ATOM     30  C   UNL     1       5.638  -2.584  23.289  0.00  0.00    +0.060 A 
BRANCH  29  31
ATOM     31  O   UNL     1       5.599  -4.140  21.446  0.00  0.00    -0.503 OA
ATOM     32  H   UNL     1       5.778  -5.095  21.508  0.00  0.00    +0.292 HD
ENDBRANCH  29  31
BRANCH  28  33
ATOM     33  O   UNL     1       3.630  -5.567  22.633  0.00  0.00    -0.503 OA
ATOM     34  H   UNL     1       4.040  -6.319  23.108  0.00  0.00    +0.292 HD
ENDBRANCH  28  33
ENDBRANCH  24  25
BRANCH  23  35
ATOM     35  O   UNL     1       7.332   3.113  27.785  0.00  0.00    -0.506 OA
ATOM     36  H   UNL     1       8.296   3.219  27.749  0.00  0.00    +0.292 HD
ENDBRANCH  23  35
BRANCH  20  37
ATOM     37  O   UNL     1       6.282   4.901  23.540  0.00  0.00    -0.507 OA
ATOM     38  H   UNL     1       5.843   5.627  24.009  0.00  0.00    +0.292 HD
ENDBRANCH  20  37
ENDBRANCH  13  14
ENDBRANCH   3  13
BRANCH   1  39
ATOM     39  C   UNL     1       9.716  -3.115  24.233  0.00  0.00    +0.197 C 
BRANCH  39  40
ATOM     40  O   UNL     1       9.089  -1.960  23.667  0.00  0.00    -0.346 OA
BRANCH  40  43
ATOM     41  C   UNL     1      11.276   0.819  24.440  0.00  0.00    +0.197 C 
ATOM     42  O   UNL     1      10.375  -0.275  24.610  0.00  0.00    -0.346 OA
ATOM     43  C   UNL     1      10.039  -0.928  23.381  0.00  0.00    +0.281 C 
ATOM     44  C   UNL     1       9.412   0.048  22.357  0.00  0.00    +0.201 C 
ATOM     45  C   UNL     1      10.240   1.333  22.248  0.00  0.00    +0.178 C 
ATOM     46  C   UNL     1      10.587   1.906  23.623  0.00  0.00    +0.171 C 
BRANCH  46  47
ATOM     47  O   UNL     1       9.398   2.346  24.290  0.00  0.00    -0.387 OA
ATOM     48  H   UNL     1       9.464   2.064  25.226  0.00  0.00    +0.210 HD
ENDBRANCH  46  47
BRANCH  45  49
ATOM     49  O   UNL     1       9.534   2.269  21.421  0.00  0.00    -0.386 OA
ATOM     50  H   UNL     1       8.837   1.779  20.946  0.00  0.00    +0.210 HD
ENDBRANCH  45  49
BRANCH  44  51
ATOM     51  O   UNL     1       9.361  -0.555  21.050  0.00  0.00    -0.384 OA
ATOM     52  H   UNL     1      10.294  -0.653  20.773  0.00  0.00    +0.210 HD
ENDBRANCH  44  51
ENDBRANCH  40  43
ENDBRANCH  39  40
ENDBRANCH   1  39
TORSDOF 16
ENDMDL
MODEL 9
REMARK VINA RESULT:      -6.7      2.986      5.253
REMARK  Name = 
REMARK  16 active torsions:
REMARK  status: ('A' for Active; 'I' for Inactive)
REMARK    1  A    between atoms: C_2  and  O_51
REMARK    2  A    between atoms: C_4  and  O_50
REMARK    3  A    between atoms: C_6  and  O_49
REMARK    4  A    between atoms: C_8  and  O_11
REMARK    5  A    between atoms: O_11  and  C_12
REMARK    6  A    between atoms: C_12  and  C_13
REMARK    7  A    between atoms: C_15  and  O_48
REMARK    8  A    between atoms: C_17  and  O_47
REMARK    9  A    between atoms: C_19  and  O_46
REMARK   10  A    between atoms: C_21  and  O_24
REMARK   11  A    between atoms: O_24  and  C_25
REMARK   12  A    between atoms: C_26  and  C_38
REMARK   13  A    between atoms: C_30  and  O_37
REMARK   14  A    between atoms: C_32  and  O_36
REMARK   15  A    between atoms: C_40  and  O_45
REMARK   16  A    between atoms: C_41  and  O_44
REMARK                            x       y       z     vdW  Elec       q    Type
REMARK                         _______ _______ _______ _____ _____    ______ ____
ROOT
ATOM      1  C   UNL     1       7.059  -3.630  22.694  0.00  0.00    +0.179 C 
ATOM      2  O   UNL     1       6.905  -3.435  24.111  0.00  0.00    -0.331 OA
ATOM      3  C   UNL     1       6.799  -4.693  24.791  0.00  0.00    +0.340 C 
ATOM      4  C   UNL     1       5.499  -5.417  24.369  0.00  0.00    +0.214 C 
ATOM      5  C   UNL     1       5.510  -5.600  22.848  0.00  0.00    +0.180 C 
ATOM      6  C   UNL     1       5.774  -4.264  22.141  0.00  0.00    +0.177 C 
ENDROOT
BRANCH   6   7
ATOM      7  O   UNL     1       5.844  -4.520  20.735  0.00  0.00    -0.386 OA
ATOM      8  H   UNL     1       4.936  -4.483  20.384  0.00  0.00    +0.210 HD
ENDBRANCH   6   7
BRANCH   5   9
ATOM      9  O   UNL     1       4.256  -6.119  22.382  0.00  0.00    -0.386 OA
ATOM     10  H   UNL     1       4.209  -5.867  21.440  0.00  0.00    +0.210 HD
ENDBRANCH   5   9
BRANCH   4  11
ATOM     11  O   UNL     1       5.342  -6.680  25.036  0.00  0.00    -0.383 OA
ATOM     12  H   UNL     1       4.960  -7.314  24.403  0.00  0.00    +0.210 HD
ENDBRANCH   4  11
BRANCH   3  13
ATOM     13  O   UNL     1       6.724  -4.479  26.199  0.00  0.00    -0.453 OA
BRANCH  13  14
ATOM     14  C   UNL     1       6.217  -3.286  26.679  0.00  0.00    +0.214 A 
ATOM     15  C   UNL     1       7.072  -2.065  26.780  0.00  0.00    +0.238 A 
ATOM     16  O   UNL     1       8.293  -2.129  26.670  0.00  0.00    -0.283 OA
ATOM     17  C   UNL     1       6.394  -0.796  27.096  0.00  0.00    +0.109 A 
ATOM     18  C   UNL     1       5.090  -0.866  27.581  0.00  0.00    +0.147 A 
ATOM     19  C   UNL     1       4.434   0.300  27.996  0.00  0.00    +0.092 A 
ATOM     20  C   UNL     1       5.088   1.528  27.916  0.00  0.00    +0.124 A 
ATOM     21  C   UNL     1       6.383   1.612  27.411  0.00  0.00    +0.091 A 
ATOM     22  O   UNL     1       4.404  -2.050  27.709  0.00  0.00    -0.451 OA
ATOM     23  C   UNL     1       7.031   0.453  26.995  0.00  0.00    +0.135 A 
ATOM     24  C   UNL     1       4.981  -3.221  27.224  0.00  0.00    +0.181 A 
BRANCH  24  25
ATOM     25  C   UNL     1       4.115  -4.432  27.382  0.00  0.00    +0.025 A 
ATOM     26  C   UNL     1       2.924  -4.578  26.645  0.00  0.00    +0.015 A 
ATOM     27  C   UNL     1       2.131  -5.731  26.764  0.00  0.00    +0.050 A 
ATOM     28  C   UNL     1       2.525  -6.747  27.621  0.00  0.00    +0.158 A 
ATOM     29  C   UNL     1       3.674  -6.611  28.387  0.00  0.00    +0.159 A 
ATOM     30  C   UNL     1       4.448  -5.458  28.294  0.00  0.00    +0.060 A 
BRANCH  29  31
ATOM     31  O   UNL     1       4.016  -7.645  29.215  0.00  0.00    -0.503 OA
ATOM     32  H   UNL     1       4.391  -8.357  28.667  0.00  0.00    +0.292 HD
ENDBRANCH  29  31
BRANCH  28  33
ATOM     33  O   UNL     1       1.779  -7.887  27.712  0.00  0.00    -0.503 OA
ATOM     34  H   UNL     1       0.952  -7.675  27.233  0.00  0.00    +0.292 HD
ENDBRANCH  28  33
ENDBRANCH  24  25
BRANCH  23  35
ATOM     35  O   UNL     1       8.290   0.560  26.472  0.00  0.00    -0.506 OA
ATOM     36  H   UNL     1       8.941   0.182  27.084  0.00  0.00    +0.292 HD
ENDBRANCH  23  35
BRANCH  20  37
ATOM     37  O   UNL     1       4.502   2.691  28.322  0.00  0.00    -0.507 OA
ATOM     38  H   UNL     1       5.127   3.419  28.187  0.00  0.00    +0.292 HD
ENDBRANCH  20  37
ENDBRANCH  13  14
ENDBRANCH   3  13
BRANCH   1  39
ATOM     39  C   UNL     1       7.343  -2.279  22.029  0.00  0.00    +0.197 C 
BRANCH  39  40
ATOM     40  O   UNL     1       8.598  -1.771  22.492  0.00  0.00    -0.346 OA
BRANCH  40  43
ATOM     41  C   UNL     1       7.884   1.773  22.306  0.00  0.00    +0.197 C 
ATOM     42  O   UNL     1       7.989   0.397  21.938  0.00  0.00    -0.346 OA
ATOM     43  C   UNL     1       8.477  -0.436  22.995  0.00  0.00    +0.281 C 
ATOM     44  C   UNL     1       9.864   0.025  23.505  0.00  0.00    +0.201 C 
ATOM     45  C   UNL     1       9.877   1.536  23.760  0.00  0.00    +0.178 C 
ATOM     46  C   UNL     1       9.279   2.317  22.589  0.00  0.00    +0.171 C 
BRANCH  46  47
ATOM     47  O   UNL     1      10.108   2.181  21.429  0.00  0.00    -0.387 OA
ATOM     48  H   UNL     1       9.686   2.689  20.705  0.00  0.00    +0.210 HD
ENDBRANCH  46  47
BRANCH  45  49
ATOM     49  O   UNL     1      11.219   1.941  24.068  0.00  0.00    -0.386 OA
ATOM     50  H   UNL     1      11.294   2.893  23.870  0.00  0.00    +0.210 HD
ENDBRANCH  45  49
BRANCH  44  51
ATOM     51  O   UNL     1      10.190  -0.634  24.744  0.00  0.00    -0.384 OA
ATOM     52  H   UNL     1      10.807  -0.031  25.204  0.00  0.00    +0.210 HD
ENDBRANCH  44  51
ENDBRANCH  40  43
ENDBRANCH  39  40
ENDBRANCH   1  39
TORSDOF 16
ENDMDL
