MODEL 1
REMARK VINA RESULT:      -7.7      0.000      0.000
REMARK  Name = 
REMARK  11 active torsions:
REMARK  status: ('A' for Active; 'I' for Inactive)
REMARK    1  A    between atoms: C_1  and  C_2
REMARK    2  A    between atoms: C_4  and  O_37
REMARK    3  A    between atoms: C_6  and  O_36
REMARK    4  A    between atoms: C_8  and  O_35
REMARK    5  A    between atoms: C_10  and  O_13
REMARK    6  A    between atoms: O_13  and  C_14
REMARK    7  A    between atoms: C_16  and  O_34
REMARK    8  A    between atoms: C_21  and  C_26
REMARK    9  A    between atoms: C_22  and  O_25
REMARK   10  A    between atoms: C_28  and  O_33
REMARK   11  A    between atoms: C_29  and  O_32
REMARK                            x       y       z     vdW  Elec       q    Type
REMARK                         _______ _______ _______ _____ _____    ______ ____
ROOT
ATOM      1  C   UNL     1       8.323  -2.249  25.724  0.00  0.00    +0.131 A 
ATOM      2  C   UNL     1       8.736  -0.926  25.766  0.00  0.00    +0.093 A 
ATOM      3  C   UNL     1       8.986  -0.226  24.571  0.00  0.00    +0.147 A 
ATOM      4  O   UNL     1       9.398   1.081  24.700  0.00  0.00    -0.451 OA
ATOM      5  C   UNL     1       9.586   1.848  23.560  0.00  0.00    +0.181 A 
ATOM      6  C   UNL     1       9.506   1.344  22.314  0.00  0.00    +0.208 A 
ATOM      7  C   UNL     1       9.195  -0.092  22.117  0.00  0.00    +0.238 A 
ATOM      8  O   UNL     1       9.292  -0.575  20.995  0.00  0.00    -0.283 OA
ATOM      9  C   UNL     1       8.836  -0.857  23.332  0.00  0.00    +0.109 A 
ATOM     10  C   UNL     1       8.373  -2.182  23.301  0.00  0.00    +0.135 A 
ATOM     11  C   UNL     1       8.124  -2.868  24.481  0.00  0.00    +0.092 A 
ENDROOT
BRANCH   5  12
ATOM     12  C   UNL     1      10.006   3.251  23.825  0.00  0.00    +0.025 A 
ATOM     13  C   UNL     1       9.112   4.172  24.400  0.00  0.00    +0.015 A 
ATOM     14  C   UNL     1       9.520   5.473  24.721  0.00  0.00    +0.050 A 
ATOM     15  C   UNL     1      10.830   5.855  24.482  0.00  0.00    +0.158 A 
ATOM     16  C   UNL     1      11.728   4.971  23.899  0.00  0.00    +0.159 A 
ATOM     17  C   UNL     1      11.318   3.690  23.545  0.00  0.00    +0.060 A 
BRANCH  15  18
ATOM     18  O   UNL     1      11.243   7.107  24.835  0.00  0.00    -0.503 OA
ATOM     19  H   UNL     1      11.869   6.959  25.572  0.00  0.00    +0.292 HD
ENDBRANCH  15  18
BRANCH  16  20
ATOM     20  O   UNL     1      13.013   5.396  23.704  0.00  0.00    -0.503 OA
ATOM     21  H   UNL     1      13.110   6.266  24.132  0.00  0.00    +0.292 HD
ENDBRANCH  16  20
ENDBRANCH   5  12
BRANCH   6  22
ATOM     22  O   UNL     1       9.787   2.121  21.191  0.00  0.00    -0.501 OA
ATOM     23  H   UNL     1       9.756   3.042  21.498  0.00  0.00    +0.292 HD
ENDBRANCH   6  22
BRANCH  10  24
ATOM     24  O   UNL     1       8.180  -2.834  22.115  0.00  0.00    -0.506 OA
ATOM     25  H   UNL     1       7.228  -2.941  21.941  0.00  0.00    +0.292 HD
ENDBRANCH  10  24
BRANCH   1  26
ATOM     26  O   UNL     1       8.047  -3.054  26.794  0.00  0.00    -0.461 OA
BRANCH  26  30
ATOM     27  C   UNL     1       3.875  -4.027  26.100  0.00  0.00    +0.041 C 
ATOM     28  C   UNL     1       4.537  -3.850  27.462  0.00  0.00    +0.150 C 
ATOM     29  O   UNL     1       5.774  -3.138  27.370  0.00  0.00    -0.334 OA
ATOM     30  C   UNL     1       6.854  -3.852  26.764  0.00  0.00    +0.339 C 
ATOM     31  C   UNL     1       7.163  -5.157  27.534  0.00  0.00    +0.214 C 
ATOM     32  C   UNL     1       5.895  -5.996  27.764  0.00  0.00    +0.180 C 
ATOM     33  C   UNL     1       4.733  -5.138  28.277  0.00  0.00    +0.174 C 
BRANCH  31  34
ATOM     34  O   UNL     1       8.144  -5.948  26.842  0.00  0.00    -0.383 OA
ATOM     35  H   UNL     1       9.024  -5.693  27.179  0.00  0.00    +0.210 HD
ENDBRANCH  31  34
BRANCH  32  36
ATOM     36  O   UNL     1       5.552  -6.730  26.578  0.00  0.00    -0.386 OA
ATOM     37  H   UNL     1       6.352  -7.020  26.112  0.00  0.00    +0.210 HD
ENDBRANCH  32  36
BRANCH  33  38
ATOM     38  O   UNL     1       5.019  -4.766  29.636  0.00  0.00    -0.387 OA
ATOM     39  H   UNL     1       5.889  -4.322  29.653  0.00  0.00    +0.210 HD
ENDBRANCH  33  38
ENDBRANCH  26  30
ENDBRANCH   1  26
TORSDOF 10
ENDMDL
MODEL 2
REMARK VINA RESULT:      -7.7      2.578      9.342
REMARK  Name = 
REMARK  11 active torsions:
REMARK  status: ('A' for Active; 'I' for Inactive)
REMARK    1  A    between atoms: C_1  and  C_2
REMARK    2  A    between atoms: C_4  and  O_37
REMARK    3  A    between atoms: C_6  and  O_36
REMARK    4  A    between atoms: C_8  and  O_35
REMARK    5  A    between atoms: C_10  and  O_13
REMARK    6  A    between atoms: O_13  and  C_14
REMARK    7  A    between atoms: C_16  and  O_34
REMARK    8  A    between atoms: C_21  and  C_26
REMARK    9  A    between atoms: C_22  and  O_25
REMARK   10  A    between atoms: C_28  and  O_33
REMARK   11  A    between atoms: C_29  and  O_32
REMARK                            x       y       z     vdW  Elec       q    Type
REMARK                         _______ _______ _______ _____ _____    ______ ____
ROOT
ATOM      1  C   UNL     1       7.242  -0.601  23.093  0.00  0.00    +0.131 A 
ATOM      2  C   UNL     1       6.519  -1.452  23.914  0.00  0.00    +0.093 A 
ATOM      3  C   UNL     1       7.145  -2.565  24.505  0.00  0.00    +0.147 A 
ATOM      4  O   UNL     1       6.356  -3.362  25.302  0.00  0.00    -0.451 OA
ATOM      5  C   UNL     1       6.931  -4.429  25.975  0.00  0.00    +0.181 A 
ATOM      6  C   UNL     1       8.210  -4.808  25.795  0.00  0.00    +0.208 A 
ATOM      7  C   UNL     1       9.074  -4.065  24.845  0.00  0.00    +0.238 A 
ATOM      8  O   UNL     1      10.176  -4.518  24.563  0.00  0.00    -0.283 OA
ATOM      9  C   UNL     1       8.496  -2.834  24.262  0.00  0.00    +0.109 A 
ATOM     10  C   UNL     1       9.230  -1.940  23.465  0.00  0.00    +0.135 A 
ATOM     11  C   UNL     1       8.609  -0.842  22.886  0.00  0.00    +0.092 A 
ENDROOT
BRANCH   5  12
ATOM     12  C   UNL     1       5.986  -5.202  26.826  0.00  0.00    +0.025 A 
ATOM     13  C   UNL     1       5.190  -6.221  26.273  0.00  0.00    +0.015 A 
ATOM     14  C   UNL     1       4.352  -7.003  27.079  0.00  0.00    +0.050 A 
ATOM     15  C   UNL     1       4.319  -6.780  28.447  0.00  0.00    +0.158 A 
ATOM     16  C   UNL     1       5.082  -5.769  29.015  0.00  0.00    +0.159 A 
ATOM     17  C   UNL     1       5.887  -4.966  28.215  0.00  0.00    +0.060 A 
BRANCH  15  18
ATOM     18  O   UNL     1       3.538  -7.569  29.240  0.00  0.00    -0.503 OA
ATOM     19  H   UNL     1       4.172  -8.154  29.702  0.00  0.00    +0.292 HD
ENDBRANCH  15  18
BRANCH  16  20
ATOM     20  O   UNL     1       5.024  -5.606  30.372  0.00  0.00    -0.503 OA
ATOM     21  H   UNL     1       5.396  -6.405  30.787  0.00  0.00    +0.292 HD
ENDBRANCH  16  20
ENDBRANCH   5  12
BRANCH   6  22
ATOM     22  O   UNL     1       8.734  -5.939  26.420  0.00  0.00    -0.501 OA
ATOM     23  H   UNL     1       9.532  -6.168  25.914  0.00  0.00    +0.292 HD
ENDBRANCH   6  22
BRANCH  10  24
ATOM     24  O   UNL     1      10.560  -2.140  23.222  0.00  0.00    -0.506 OA
ATOM     25  H   UNL     1      10.957  -1.338  22.840  0.00  0.00    +0.292 HD
ENDBRANCH  10  24
BRANCH   1  26
ATOM     26  O   UNL     1       6.774   0.510  22.449  0.00  0.00    -0.461 OA
BRANCH  26  30
ATOM     27  C   UNL     1       6.785   3.603  25.493  0.00  0.00    +0.041 C 
ATOM     28  C   UNL     1       5.911   3.582  24.244  0.00  0.00    +0.150 C 
ATOM     29  O   UNL     1       5.824   2.274  23.671  0.00  0.00    -0.334 OA
ATOM     30  C   UNL     1       7.014   1.798  23.037  0.00  0.00    +0.339 C 
ATOM     31  C   UNL     1       7.454   2.742  21.894  0.00  0.00    +0.214 C 
ATOM     32  C   UNL     1       7.524   4.205  22.360  0.00  0.00    +0.180 C 
ATOM     33  C   UNL     1       6.279   4.606  23.160  0.00  0.00    +0.174 C 
BRANCH  31  34
ATOM     34  O   UNL     1       8.727   2.347  21.357  0.00  0.00    -0.383 OA
ATOM     35  H   UNL     1       9.422   2.809  21.864  0.00  0.00    +0.210 HD
ENDBRANCH  31  34
BRANCH  32  36
ATOM     36  O   UNL     1       8.740   4.449  23.084  0.00  0.00    -0.386 OA
ATOM     37  H   UNL     1       9.334   5.021  22.571  0.00  0.00    +0.210 HD
ENDBRANCH  32  36
BRANCH  33  38
ATOM     38  O   UNL     1       5.174   4.702  22.244  0.00  0.00    -0.387 OA
ATOM     39  H   UNL     1       5.515   4.567  21.340  0.00  0.00    +0.210 HD
ENDBRANCH  33  38
ENDBRANCH  26  30
ENDBRANCH   1  26
TORSDOF 10
ENDMDL
MODEL 3
REMARK VINA RESULT:      -7.6      2.609      9.551
REMARK  Name = 
REMARK  11 active torsions:
REMARK  status: ('A' for Active; 'I' for Inactive)
REMARK    1  A    between atoms: C_1  and  C_2
REMARK    2  A    between atoms: C_4  and  O_37
REMARK    3  A    between atoms: C_6  and  O_36
REMARK    4  A    between atoms: C_8  and  O_35
REMARK    5  A    between atoms: C_10  and  O_13
REMARK    6  A    between atoms: O_13  and  C_14
REMARK    7  A    between atoms: C_16  and  O_34
REMARK    8  A    between atoms: C_21  and  C_26
REMARK    9  A    between atoms: C_22  and  O_25
REMARK   10  A    between atoms: C_28  and  O_33
REMARK   11  A    between atoms: C_29  and  O_32
REMARK                            x       y       z     vdW  Elec       q    Type
REMARK                         _______ _______ _______ _____ _____    ______ ____
ROOT
ATOM      1  C   UNL     1       7.171   1.208  24.088  0.00  0.00    +0.131 A 
ATOM      2  C   UNL     1       6.519  -0.002  24.270  0.00  0.00    +0.093 A 
ATOM      3  C   UNL     1       7.242  -1.208  24.222  0.00  0.00    +0.147 A 
ATOM      4  O   UNL     1       6.519  -2.364  24.406  0.00  0.00    -0.451 OA
ATOM      5  C   UNL     1       7.184  -3.580  24.448  0.00  0.00    +0.181 A 
ATOM      6  C   UNL     1       8.500  -3.707  24.194  0.00  0.00    +0.208 A 
ATOM      7  C   UNL     1       9.306  -2.508  23.858  0.00  0.00    +0.238 A 
ATOM      8  O   UNL     1      10.457  -2.655  23.465  0.00  0.00    -0.283 OA
ATOM      9  C   UNL     1       8.619  -1.204  23.979  0.00  0.00    +0.109 A 
ATOM     10  C   UNL     1       9.277   0.030  23.843  0.00  0.00    +0.135 A 
ATOM     11  C   UNL     1       8.561   1.218  23.893  0.00  0.00    +0.092 A 
ENDROOT
BRANCH   5  12
ATOM     12  C   UNL     1       6.302  -4.757  24.678  0.00  0.00    +0.025 A 
ATOM     13  C   UNL     1       6.210  -5.348  25.950  0.00  0.00    +0.015 A 
ATOM     14  C   UNL     1       5.327  -6.409  26.194  0.00  0.00    +0.050 A 
ATOM     15  C   UNL     1       4.519  -6.872  25.168  0.00  0.00    +0.158 A 
ATOM     16  C   UNL     1       4.604  -6.318  23.898  0.00  0.00    +0.159 A 
ATOM     17  C   UNL     1       5.505  -5.290  23.642  0.00  0.00    +0.060 A 
BRANCH  15  18
ATOM     18  O   UNL     1       3.626  -7.875  25.413  0.00  0.00    -0.503 OA
ATOM     19  H   UNL     1       4.027  -8.385  26.145  0.00  0.00    +0.292 HD
ENDBRANCH  15  18
BRANCH  16  20
ATOM     20  O   UNL     1       3.770  -6.803  22.929  0.00  0.00    -0.503 OA
ATOM     21  H   UNL     1       3.472  -6.052  22.385  0.00  0.00    +0.292 HD
ENDBRANCH  16  20
ENDBRANCH   5  12
BRANCH   6  22
ATOM     22  O   UNL     1       9.123  -4.954  24.158  0.00  0.00    -0.501 OA
ATOM     23  H   UNL     1       8.508  -5.537  23.681  0.00  0.00    +0.292 HD
ENDBRANCH   6  22
BRANCH  10  24
ATOM     24  O   UNL     1      10.626   0.091  23.635  0.00  0.00    -0.506 OA
ATOM     25  H   UNL     1      10.829  -0.062  22.695  0.00  0.00    +0.292 HD
ENDBRANCH  10  24
BRANCH   1  26
ATOM     26  O   UNL     1       6.607   2.453  24.103  0.00  0.00    -0.461 OA
BRANCH  26  30
ATOM     27  C   UNL     1      10.123   4.983  23.858  0.00  0.00    +0.041 C 
ATOM     28  C   UNL     1       8.851   5.295  24.636  0.00  0.00    +0.150 C 
ATOM     29  O   UNL     1       8.063   4.125  24.871  0.00  0.00    -0.334 OA
ATOM     30  C   UNL     1       7.412   3.578  23.721  0.00  0.00    +0.339 C 
ATOM     31  C   UNL     1       6.464   4.613  23.071  0.00  0.00    +0.214 C 
ATOM     32  C   UNL     1       7.173   5.956  22.823  0.00  0.00    +0.180 C 
ATOM     33  C   UNL     1       7.971   6.410  24.050  0.00  0.00    +0.174 C 
BRANCH  31  34
ATOM     34  O   UNL     1       5.927   4.118  21.834  0.00  0.00    -0.383 OA
ATOM     35  H   UNL     1       6.333   3.247  21.659  0.00  0.00    +0.210 HD
ENDBRANCH  31  34
BRANCH  32  36
ATOM     36  O   UNL     1       7.980   5.891  21.638  0.00  0.00    -0.386 OA
ATOM     37  H   UNL     1       8.871   6.235  21.812  0.00  0.00    +0.210 HD
ENDBRANCH  32  36
BRANCH  33  38
ATOM     38  O   UNL     1       7.036   6.820  25.063  0.00  0.00    -0.387 OA
ATOM     39  H   UNL     1       7.395   6.556  25.932  0.00  0.00    +0.210 HD
ENDBRANCH  33  38
ENDBRANCH  26  30
ENDBRANCH   1  26
TORSDOF 10
ENDMDL
MODEL 4
REMARK VINA RESULT:      -7.5      2.149      2.863
REMARK  Name = 
REMARK  11 active torsions:
REMARK  status: ('A' for Active; 'I' for Inactive)
REMARK    1  A    between atoms: C_1  and  C_2
REMARK    2  A    between atoms: C_4  and  O_37
REMARK    3  A    between atoms: C_6  and  O_36
REMARK    4  A    between atoms: C_8  and  O_35
REMARK    5  A    between atoms: C_10  and  O_13
REMARK    6  A    between atoms: O_13  and  C_14
REMARK    7  A    between atoms: C_16  and  O_34
REMARK    8  A    between atoms: C_21  and  C_26
REMARK    9  A    between atoms: C_22  and  O_25
REMARK   10  A    between atoms: C_28  and  O_33
REMARK   11  A    between atoms: C_29  and  O_32
REMARK                            x       y       z     vdW  Elec       q    Type
REMARK                         _______ _______ _______ _____ _____    ______ ____
ROOT
ATOM      1  C   UNL     1       6.968  -3.130  26.569  0.00  0.00    +0.131 A 
ATOM      2  C   UNL     1       6.844  -1.860  26.026  0.00  0.00    +0.093 A 
ATOM      3  C   UNL     1       7.681  -1.459  24.968  0.00  0.00    +0.147 A 
ATOM      4  O   UNL     1       7.498  -0.182  24.491  0.00  0.00    -0.451 OA
ATOM      5  C   UNL     1       8.238   0.246  23.399  0.00  0.00    +0.181 A 
ATOM      6  C   UNL     1       9.225  -0.484  22.849  0.00  0.00    +0.208 A 
ATOM      7  C   UNL     1       9.558  -1.817  23.407  0.00  0.00    +0.238 A 
ATOM      8  O   UNL     1      10.562  -2.396  23.012  0.00  0.00    -0.283 OA
ATOM      9  C   UNL     1       8.654  -2.327  24.462  0.00  0.00    +0.109 A 
ATOM     10  C   UNL     1       8.740  -3.627  24.989  0.00  0.00    +0.135 A 
ATOM     11  C   UNL     1       7.910  -4.019  26.030  0.00  0.00    +0.092 A 
ENDROOT
BRANCH   5  12
ATOM     12  C   UNL     1       7.934   1.635  22.956  0.00  0.00    +0.025 A 
ATOM     13  C   UNL     1       6.738   1.927  22.278  0.00  0.00    +0.015 A 
ATOM     14  C   UNL     1       6.410   3.243  21.923  0.00  0.00    +0.050 A 
ATOM     15  C   UNL     1       7.271   4.275  22.260  0.00  0.00    +0.158 A 
ATOM     16  C   UNL     1       8.467   4.010  22.913  0.00  0.00    +0.159 A 
ATOM     17  C   UNL     1       8.814   2.703  23.235  0.00  0.00    +0.060 A 
BRANCH  15  18
ATOM     18  O   UNL     1       6.934   5.562  21.956  0.00  0.00    -0.503 OA
ATOM     19  H   UNL     1       5.974   5.525  21.773  0.00  0.00    +0.292 HD
ENDBRANCH  15  18
BRANCH  16  20
ATOM     20  O   UNL     1       9.270   5.069  23.237  0.00  0.00    -0.503 OA
ATOM     21  H   UNL     1       9.311   5.130  24.209  0.00  0.00    +0.292 HD
ENDBRANCH  16  20
ENDBRANCH   5  12
BRANCH   6  22
ATOM     22  O   UNL     1      10.010   0.011  21.807  0.00  0.00    -0.501 OA
ATOM     23  H   UNL     1      10.831  -0.508  21.833  0.00  0.00    +0.292 HD
ENDBRANCH   6  22
BRANCH  10  24
ATOM     24  O   UNL     1       9.652  -4.524  24.509  0.00  0.00    -0.506 OA
ATOM     25  H   UNL     1       9.984  -4.234  23.641  0.00  0.00    +0.292 HD
ENDBRANCH  10  24
BRANCH   1  26
ATOM     26  O   UNL     1       6.234  -3.657  27.595  0.00  0.00    -0.461 OA
BRANCH  26  30
ATOM     27  C   UNL     1       4.442  -7.005  25.496  0.00  0.00    +0.041 C 
ATOM     28  C   UNL     1       3.716  -6.044  26.429  0.00  0.00    +0.150 C 
ATOM     29  O   UNL     1       4.448  -4.831  26.627  0.00  0.00    -0.334 OA
ATOM     30  C   UNL     1       5.633  -4.948  27.418  0.00  0.00    +0.339 C 
ATOM     31  C   UNL     1       5.313  -5.495  28.828  0.00  0.00    +0.214 C 
ATOM     32  C   UNL     1       4.462  -6.775  28.762  0.00  0.00    +0.180 C 
ATOM     33  C   UNL     1       3.291  -6.628  27.785  0.00  0.00    +0.174 C 
BRANCH  31  34
ATOM     34  O   UNL     1       6.516  -5.755  29.570  0.00  0.00    -0.383 OA
ATOM     35  H   UNL     1       6.561  -6.716  29.738  0.00  0.00    +0.210 HD
ENDBRANCH  31  34
BRANCH  32  36
ATOM     36  O   UNL     1       5.284  -7.914  28.464  0.00  0.00    -0.386 OA
ATOM     37  H   UNL     1       5.841  -7.740  27.688  0.00  0.00    +0.210 HD
ENDBRANCH  32  36
BRANCH  33  38
ATOM     38  O   UNL     1       2.329  -5.735  28.374  0.00  0.00    -0.387 OA
ATOM     39  H   UNL     1       1.581  -5.643  27.753  0.00  0.00    +0.210 HD
ENDBRANCH  33  38
ENDBRANCH  26  30
ENDBRANCH   1  26
TORSDOF 10
ENDMDL
MODEL 5
REMARK VINA RESULT:      -7.3      2.510      3.662
REMARK  Name = 
REMARK  11 active torsions:
REMARK  status: ('A' for Active; 'I' for Inactive)
REMARK    1  A    between atoms: C_1  and  C_2
REMARK    2  A    between atoms: C_4  and  O_37
REMARK    3  A    between atoms: C_6  and  O_36
REMARK    4  A    between atoms: C_8  and  O_35
REMARK    5  A    between atoms: C_10  and  O_13
REMARK    6  A    between atoms: O_13  and  C_14
REMARK    7  A    between atoms: C_16  and  O_34
REMARK    8  A    between atoms: C_21  and  C_26
REMARK    9  A    between atoms: C_22  and  O_25
REMARK   10  A    between atoms: C_28  and  O_33
REMARK   11  A    between atoms: C_29  and  O_32
REMARK                            x       y       z     vdW  Elec       q    Type
REMARK                         _______ _______ _______ _____ _____    ______ ____
ROOT
ATOM      1  C   UNL     1       5.938  -3.930  25.809  0.00  0.00    +0.131 A 
ATOM      2  C   UNL     1       6.080  -2.578  25.535  0.00  0.00    +0.093 A 
ATOM      3  C   UNL     1       7.231  -2.108  24.877  0.00  0.00    +0.147 A 
ATOM      4  O   UNL     1       7.297  -0.753  24.648  0.00  0.00    -0.451 OA
ATOM      5  C   UNL     1       8.369  -0.236  23.936  0.00  0.00    +0.181 A 
ATOM      6  C   UNL     1       9.425  -0.980  23.557  0.00  0.00    +0.208 A 
ATOM      7  C   UNL     1       9.472  -2.423  23.894  0.00  0.00    +0.238 A 
ATOM      8  O   UNL     1      10.506  -3.049  23.696  0.00  0.00    -0.283 OA
ATOM      9  C   UNL     1       8.250  -2.991  24.506  0.00  0.00    +0.109 A 
ATOM     10  C   UNL     1       8.075  -4.364  24.748  0.00  0.00    +0.135 A 
ATOM     11  C   UNL     1       6.936  -4.824  25.394  0.00  0.00    +0.092 A 
ENDROOT
BRANCH   5  12
ATOM     12  C   UNL     1       8.318   1.237  23.728  0.00  0.00    +0.025 A 
ATOM     13  C   UNL     1       9.229   2.086  24.379  0.00  0.00    +0.015 A 
ATOM     14  C   UNL     1       9.236   3.466  24.132  0.00  0.00    +0.050 A 
ATOM     15  C   UNL     1       8.341   3.999  23.218  0.00  0.00    +0.158 A 
ATOM     16  C   UNL     1       7.420   3.184  22.575  0.00  0.00    +0.159 A 
ATOM     17  C   UNL     1       7.384   1.821  22.844  0.00  0.00    +0.060 A 
BRANCH  15  18
ATOM     18  O   UNL     1       8.375   5.335  22.942  0.00  0.00    -0.503 OA
ATOM     19  H   UNL     1       8.829   5.394  22.078  0.00  0.00    +0.292 HD
ENDBRANCH  15  18
BRANCH  16  20
ATOM     20  O   UNL     1       6.573   3.762  21.670  0.00  0.00    -0.503 OA
ATOM     21  H   UNL     1       7.089   4.390  21.133  0.00  0.00    +0.292 HD
ENDBRANCH  16  20
ENDBRANCH   5  12
BRANCH   6  22
ATOM     22  O   UNL     1      10.528  -0.414  22.919  0.00  0.00    -0.501 OA
ATOM     23  H   UNL     1      10.684   0.432  23.373  0.00  0.00    +0.292 HD
ENDBRANCH   6  22
BRANCH  10  24
ATOM     24  O   UNL     1       9.027  -5.272  24.377  0.00  0.00    -0.506 OA
ATOM     25  H   UNL     1       9.626  -4.881  23.717  0.00  0.00    +0.292 HD
ENDBRANCH  10  24
BRANCH   1  26
ATOM     26  O   UNL     1       4.885  -4.531  26.440  0.00  0.00    -0.461 OA
BRANCH  26  30
ATOM     27  C   UNL     1       2.706  -6.144  23.053  0.00  0.00    +0.041 C 
ATOM     28  C   UNL     1       2.087  -5.568  24.321  0.00  0.00    +0.150 C 
ATOM     29  O   UNL     1       3.010  -4.752  25.047  0.00  0.00    -0.334 OA
ATOM     30  C   UNL     1       4.073  -5.453  25.697  0.00  0.00    +0.339 C 
ATOM     31  C   UNL     1       3.525  -6.488  26.707  0.00  0.00    +0.214 C 
ATOM     32  C   UNL     1       2.461  -7.396  26.068  0.00  0.00    +0.180 C 
ATOM     33  C   UNL     1       1.435  -6.590  25.265  0.00  0.00    +0.174 C 
BRANCH  31  34
ATOM     34  O   UNL     1       4.583  -7.295  27.249  0.00  0.00    -0.383 OA
ATOM     35  H   UNL     1       4.516  -7.261  28.222  0.00  0.00    +0.210 HD
ENDBRANCH  31  34
BRANCH  32  36
ATOM     36  O   UNL     1       3.080  -8.428  25.285  0.00  0.00    -0.386 OA
ATOM     37  H   UNL     1       2.666  -9.288  25.465  0.00  0.00    +0.210 HD
ENDBRANCH  32  36
BRANCH  33  38
ATOM     38  O   UNL     1       0.605  -5.872  26.195  0.00  0.00    -0.387 OA
ATOM     39  H   UNL     1       0.813  -4.921  26.116  0.00  0.00    +0.210 HD
ENDBRANCH  33  38
ENDBRANCH  26  30
ENDBRANCH   1  26
TORSDOF 10
ENDMDL
MODEL 6
REMARK VINA RESULT:      -7.3      2.997      9.363
REMARK  Name = 
REMARK  11 active torsions:
REMARK  status: ('A' for Active; 'I' for Inactive)
REMARK    1  A    between atoms: C_1  and  C_2
REMARK    2  A    between atoms: C_4  and  O_37
REMARK    3  A    between atoms: C_6  and  O_36
REMARK    4  A    between atoms: C_8  and  O_35
REMARK    5  A    between atoms: C_10  and  O_13
REMARK    6  A    between atoms: O_13  and  C_14
REMARK    7  A    between atoms: C_16  and  O_34
REMARK    8  A    between atoms: C_21  and  C_26
REMARK    9  A    between atoms: C_22  and  O_25
REMARK   10  A    between atoms: C_28  and  O_33
REMARK   11  A    between atoms: C_29  and  O_32
REMARK                            x       y       z     vdW  Elec       q    Type
REMARK                         _______ _______ _______ _____ _____    ______ ____
ROOT
ATOM      1  C   UNL     1       7.360   0.467  22.612  0.00  0.00    +0.131 A 
ATOM      2  C   UNL     1       6.597  -0.636  22.960  0.00  0.00    +0.093 A 
ATOM      3  C   UNL     1       7.218  -1.793  23.466  0.00  0.00    +0.147 A 
ATOM      4  O   UNL     1       6.389  -2.846  23.782  0.00  0.00    -0.451 OA
ATOM      5  C   UNL     1       6.931  -3.986  24.357  0.00  0.00    +0.181 A 
ATOM      6  C   UNL     1       8.255  -4.171  24.514  0.00  0.00    +0.208 A 
ATOM      7  C   UNL     1       9.206  -3.124  24.068  0.00  0.00    +0.238 A 
ATOM      8  O   UNL     1      10.405  -3.372  24.059  0.00  0.00    -0.283 OA
ATOM      9  C   UNL     1       8.608  -1.850  23.611  0.00  0.00    +0.109 A 
ATOM     10  C   UNL     1       9.366  -0.710  23.298  0.00  0.00    +0.135 A 
ATOM     11  C   UNL     1       8.750   0.430  22.801  0.00  0.00    +0.092 A 
ENDROOT
BRANCH   5  12
ATOM     12  C   UNL     1       5.936  -5.045  24.680  0.00  0.00    +0.025 A 
ATOM     13  C   UNL     1       5.057  -5.528  23.695  0.00  0.00    +0.015 A 
ATOM     14  C   UNL     1       4.168  -6.576  23.969  0.00  0.00    +0.050 A 
ATOM     15  C   UNL     1       4.167  -7.157  25.227  0.00  0.00    +0.158 A 
ATOM     16  C   UNL     1       5.012  -6.687  26.222  0.00  0.00    +0.159 A 
ATOM     17  C   UNL     1       5.870  -5.623  25.966  0.00  0.00    +0.060 A 
BRANCH  15  18
ATOM     18  O   UNL     1       3.334  -8.208  25.484  0.00  0.00    -0.503 OA
ATOM     19  H   UNL     1       2.841  -7.937  26.284  0.00  0.00    +0.292 HD
ENDBRANCH  15  18
BRANCH  16  20
ATOM     20  O   UNL     1       4.981  -7.310  27.439  0.00  0.00    -0.503 OA
ATOM     21  H   UNL     1       4.509  -6.729  28.062  0.00  0.00    +0.292 HD
ENDBRANCH  16  20
ENDBRANCH   5  12
BRANCH   6  22
ATOM     22  O   UNL     1       8.773  -5.365  25.015  0.00  0.00    -0.501 OA
ATOM     23  H   UNL     1       9.709  -5.371  24.753  0.00  0.00    +0.292 HD
ENDBRANCH   6  22
BRANCH  10  24
ATOM     24  O   UNL     1      10.724  -0.703  23.450  0.00  0.00    -0.506 OA
ATOM     25  H   UNL     1      10.957  -0.728  24.395  0.00  0.00    +0.292 HD
ENDBRANCH  10  24
BRANCH   1  26
ATOM     26  O   UNL     1       6.903   1.653  22.107  0.00  0.00    -0.461 OA
BRANCH  26  30
ATOM     27  C   UNL     1       4.789   3.464  25.435  0.00  0.00    +0.041 C 
ATOM     28  C   UNL     1       4.529   3.735  23.958  0.00  0.00    +0.150 C 
ATOM     29  O   UNL     1       5.069   2.709  23.120  0.00  0.00    -0.334 OA
ATOM     30  C   UNL     1       6.495   2.679  23.024  0.00  0.00    +0.339 C 
ATOM     31  C   UNL     1       7.047   4.017  22.479  0.00  0.00    +0.214 C 
ATOM     32  C   UNL     1       6.487   5.221  23.255  0.00  0.00    +0.180 C 
ATOM     33  C   UNL     1       4.970   5.116  23.448  0.00  0.00    +0.174 C 
BRANCH  31  34
ATOM     34  O   UNL     1       8.483   4.043  22.524  0.00  0.00    -0.383 OA
ATOM     35  H   UNL     1       8.751   4.184  23.453  0.00  0.00    +0.210 HD
ENDBRANCH  31  34
BRANCH  32  36
ATOM     36  O   UNL     1       7.186   5.392  24.497  0.00  0.00    -0.386 OA
ATOM     37  H   UNL     1       6.634   5.871  25.137  0.00  0.00    +0.210 HD
ENDBRANCH  32  36
BRANCH  33  38
ATOM     38  O   UNL     1       4.342   5.342  22.174  0.00  0.00    -0.387 OA
ATOM     39  H   UNL     1       4.490   4.554  21.618  0.00  0.00    +0.210 HD
ENDBRANCH  33  38
ENDBRANCH  26  30
ENDBRANCH   1  26
TORSDOF 10
ENDMDL
MODEL 7
REMARK VINA RESULT:      -7.3      2.316      3.236
REMARK  Name = 
REMARK  11 active torsions:
REMARK  status: ('A' for Active; 'I' for Inactive)
REMARK    1  A    between atoms: C_1  and  C_2
REMARK    2  A    between atoms: C_4  and  O_37
REMARK    3  A    between atoms: C_6  and  O_36
REMARK    4  A    between atoms: C_8  and  O_35
REMARK    5  A    between atoms: C_10  and  O_13
REMARK    6  A    between atoms: O_13  and  C_14
REMARK    7  A    between atoms: C_16  and  O_34
REMARK    8  A    between atoms: C_21  and  C_26
REMARK    9  A    between atoms: C_22  and  O_25
REMARK   10  A    between atoms: C_28  and  O_33
REMARK   11  A    between atoms: C_29  and  O_32
REMARK                            x       y       z     vdW  Elec       q    Type
REMARK                         _______ _______ _______ _____ _____    ______ ____
ROOT
ATOM      1  C   UNL     1       5.682  -4.155  24.840  0.00  0.00    +0.131 A 
ATOM      2  C   UNL     1       5.803  -2.798  24.586  0.00  0.00    +0.093 A 
ATOM      3  C   UNL     1       7.041  -2.263  24.183  0.00  0.00    +0.147 A 
ATOM      4  O   UNL     1       7.079  -0.906  23.957  0.00  0.00    -0.451 OA
ATOM      5  C   UNL     1       8.248  -0.330  23.483  0.00  0.00    +0.181 A 
ATOM      6  C   UNL     1       9.400  -1.013  23.346  0.00  0.00    +0.208 A 
ATOM      7  C   UNL     1       9.453  -2.451  23.701  0.00  0.00    +0.238 A 
ATOM      8  O   UNL     1      10.539  -3.017  23.735  0.00  0.00    -0.283 OA
ATOM      9  C   UNL     1       8.163  -3.087  24.047  0.00  0.00    +0.109 A 
ATOM     10  C   UNL     1       8.016  -4.468  24.262  0.00  0.00    +0.135 A 
ATOM     11  C   UNL     1       6.793  -4.992  24.657  0.00  0.00    +0.092 A 
ENDROOT
BRANCH   5  12
ATOM     12  C   UNL     1       8.161   1.138  23.251  0.00  0.00    +0.025 A 
ATOM     13  C   UNL     1       7.620   1.646  22.057  0.00  0.00    +0.015 A 
ATOM     14  C   UNL     1       7.466   3.024  21.861  0.00  0.00    +0.050 A 
ATOM     15  C   UNL     1       7.837   3.902  22.867  0.00  0.00    +0.158 A 
ATOM     16  C   UNL     1       8.390   3.427  24.049  0.00  0.00    +0.159 A 
ATOM     17  C   UNL     1       8.579   2.062  24.233  0.00  0.00    +0.060 A 
BRANCH  15  18
ATOM     18  O   UNL     1       7.647   5.243  22.698  0.00  0.00    -0.503 OA
ATOM     19  H   UNL     1       7.433   5.574  23.593  0.00  0.00    +0.292 HD
ENDBRANCH  15  18
BRANCH  16  20
ATOM     20  O   UNL     1       8.721   4.337  25.014  0.00  0.00    -0.503 OA
ATOM     21  H   UNL     1       9.031   5.147  24.570  0.00  0.00    +0.292 HD
ENDBRANCH  16  20
ENDBRANCH   5  12
BRANCH   6  22
ATOM     22  O   UNL     1      10.580  -0.385  22.950  0.00  0.00    -0.501 OA
ATOM     23  H   UNL     1      10.843  -0.824  22.124  0.00  0.00    +0.292 HD
ENDBRANCH   6  22
BRANCH  10  24
ATOM     24  O   UNL     1       9.073  -5.321  24.112  0.00  0.00    -0.506 OA
ATOM     25  H   UNL     1       9.697  -5.216  24.852  0.00  0.00    +0.292 HD
ENDBRANCH  10  24
BRANCH   1  26
ATOM     26  O   UNL     1       4.553  -4.816  25.240  0.00  0.00    -0.461 OA
BRANCH  26  30
ATOM     27  C   UNL     1       4.023  -4.320  29.518  0.00  0.00    +0.041 C 
ATOM     28  C   UNL     1       5.318  -4.717  28.819  0.00  0.00    +0.150 C 
ATOM     29  O   UNL     1       5.297  -4.393  27.426  0.00  0.00    -0.334 OA
ATOM     30  C   UNL     1       4.432  -5.197  26.619  0.00  0.00    +0.339 C 
ATOM     31  C   UNL     1       4.813  -6.693  26.710  0.00  0.00    +0.214 C 
ATOM     32  C   UNL     1       4.938  -7.160  28.170  0.00  0.00    +0.180 C 
ATOM     33  C   UNL     1       5.757  -6.176  29.012  0.00  0.00    +0.174 C 
BRANCH  31  34
ATOM     34  O   UNL     1       3.855  -7.515  26.022  0.00  0.00    -0.383 OA
ATOM     35  H   UNL     1       4.251  -8.400  25.905  0.00  0.00    +0.210 HD
ENDBRANCH  31  34
BRANCH  32  36
ATOM     36  O   UNL     1       3.641  -7.415  28.732  0.00  0.00    -0.386 OA
ATOM     37  H   UNL     1       3.588  -8.324  29.070  0.00  0.00    +0.210 HD
ENDBRANCH  32  36
BRANCH  33  38
ATOM     38  O   UNL     1       7.134  -6.285  28.611  0.00  0.00    -0.387 OA
ATOM     39  H   UNL     1       7.424  -7.204  28.766  0.00  0.00    +0.210 HD
ENDBRANCH  33  38
ENDBRANCH  26  30
ENDBRANCH   1  26
TORSDOF 10
ENDMDL
MODEL 8
REMARK VINA RESULT:      -7.2      2.267      4.106
REMARK  Name = 
REMARK  11 active torsions:
REMARK  status: ('A' for Active; 'I' for Inactive)
REMARK    1  A    between atoms: C_1  and  C_2
REMARK    2  A    between atoms: C_4  and  O_37
REMARK    3  A    between atoms: C_6  and  O_36
REMARK    4  A    between atoms: C_8  and  O_35
REMARK    5  A    between atoms: C_10  and  O_13
REMARK    6  A    between atoms: O_13  and  C_14
REMARK    7  A    between atoms: C_16  and  O_34
REMARK    8  A    between atoms: C_21  and  C_26
REMARK    9  A    between atoms: C_22  and  O_25
REMARK   10  A    between atoms: C_28  and  O_33
REMARK   11  A    between atoms: C_29  and  O_32
REMARK                            x       y       z     vdW  Elec       q    Type
REMARK                         _______ _______ _______ _____ _____    ______ ____
ROOT
ATOM      1  C   UNL     1       6.107  -4.339  27.550  0.00  0.00    +0.131 A 
ATOM      2  C   UNL     1       6.318  -3.098  26.971  0.00  0.00    +0.093 A 
ATOM      3  C   UNL     1       7.377  -2.913  26.063  0.00  0.00    +0.147 A 
ATOM      4  O   UNL     1       7.522  -1.650  25.537  0.00  0.00    -0.451 OA
ATOM      5  C   UNL     1       8.498  -1.422  24.579  0.00  0.00    +0.181 A 
ATOM      6  C   UNL     1       9.403  -2.350  24.217  0.00  0.00    +0.208 A 
ATOM      7  C   UNL     1       9.379  -3.691  24.849  0.00  0.00    +0.238 A 
ATOM      8  O   UNL     1      10.305  -4.466  24.639  0.00  0.00    -0.283 OA
ATOM      9  C   UNL     1       8.235  -3.971  25.745  0.00  0.00    +0.109 A 
ATOM     10  C   UNL     1       7.983  -5.236  26.302  0.00  0.00    +0.135 A 
ATOM     11  C   UNL     1       6.936  -5.414  27.195  0.00  0.00    +0.092 A 
ENDROOT
BRANCH   5  12
ATOM     12  C   UNL     1       8.542  -0.025  24.065  0.00  0.00    +0.025 A 
ATOM     13  C   UNL     1       8.987   1.027  24.884  0.00  0.00    +0.015 A 
ATOM     14  C   UNL     1       9.102   2.333  24.387  0.00  0.00    +0.050 A 
ATOM     15  C   UNL     1       8.788   2.587  23.061  0.00  0.00    +0.158 A 
ATOM     16  C   UNL     1       8.330   1.569  22.237  0.00  0.00    +0.159 A 
ATOM     17  C   UNL     1       8.179   0.280  22.735  0.00  0.00    +0.060 A 
BRANCH  15  18
ATOM     18  O   UNL     1       8.942   3.848  22.562  0.00  0.00    -0.503 OA
ATOM     19  H   UNL     1       8.546   3.806  21.668  0.00  0.00    +0.292 HD
ENDBRANCH  15  18
BRANCH  16  20
ATOM     20  O   UNL     1       8.053   1.874  20.933  0.00  0.00    -0.503 OA
ATOM     21  H   UNL     1       7.129   2.182  20.886  0.00  0.00    +0.292 HD
ENDBRANCH  16  20
ENDBRANCH   5  12
BRANCH   6  22
ATOM     22  O   UNL     1      10.427  -2.062  23.315  0.00  0.00    -0.501 OA
ATOM     23  H   UNL     1      10.145  -1.255  22.852  0.00  0.00    +0.292 HD
ENDBRANCH   6  22
BRANCH  10  24
ATOM     24  O   UNL     1       8.773  -6.309  26.000  0.00  0.00    -0.506 OA
ATOM     25  H   UNL     1       8.390  -6.810  25.258  0.00  0.00    +0.292 HD
ENDBRANCH  10  24
BRANCH   1  26
ATOM     26  O   UNL     1       5.129  -4.669  28.446  0.00  0.00    -0.461 OA
BRANCH  26  30
ATOM     27  C   UNL     1       1.548  -5.075  26.029  0.00  0.00    +0.041 C 
ATOM     28  C   UNL     1       1.589  -4.754  27.519  0.00  0.00    +0.150 C 
ATOM     29  O   UNL     1       2.873  -4.278  27.931  0.00  0.00    -0.334 OA
ATOM     30  C   UNL     1       3.915  -5.257  27.955  0.00  0.00    +0.339 C 
ATOM     31  C   UNL     1       3.562  -6.426  28.904  0.00  0.00    +0.214 C 
ATOM     32  C   UNL     1       2.163  -6.993  28.611  0.00  0.00    +0.180 C 
ATOM     33  C   UNL     1       1.121  -5.880  28.454  0.00  0.00    +0.174 C 
BRANCH  31  34
ATOM     34  O   UNL     1       4.536  -7.479  28.813  0.00  0.00    -0.383 OA
ATOM     35  H   UNL     1       5.398  -7.072  28.601  0.00  0.00    +0.210 HD
ENDBRANCH  31  34
BRANCH  32  36
ATOM     36  O   UNL     1       2.200  -7.872  27.477  0.00  0.00    -0.386 OA
ATOM     37  H   UNL     1       3.112  -8.143  27.283  0.00  0.00    +0.210 HD
ENDBRANCH  32  36
BRANCH  33  38
ATOM     38  O   UNL     1       0.879  -5.310  29.752  0.00  0.00    -0.387 OA
ATOM     39  H   UNL     1       0.309  -5.925  30.252  0.00  0.00    +0.210 HD
ENDBRANCH  33  38
ENDBRANCH  26  30
ENDBRANCH   1  26
TORSDOF 10
ENDMDL
MODEL 9
REMARK VINA RESULT:      -7.1      3.103      4.553
REMARK  Name = 
REMARK  11 active torsions:
REMARK  status: ('A' for Active; 'I' for Inactive)
REMARK    1  A    between atoms: C_1  and  C_2
REMARK    2  A    between atoms: C_4  and  O_37
REMARK    3  A    between atoms: C_6  and  O_36
REMARK    4  A    between atoms: C_8  and  O_35
REMARK    5  A    between atoms: C_10  and  O_13
REMARK    6  A    between atoms: O_13  and  C_14
REMARK    7  A    between atoms: C_16  and  O_34
REMARK    8  A    between atoms: C_21  and  C_26
REMARK    9  A    between atoms: C_22  and  O_25
REMARK   10  A    between atoms: C_28  and  O_33
REMARK   11  A    between atoms: C_29  and  O_32
REMARK                            x       y       z     vdW  Elec       q    Type
REMARK                         _______ _______ _______ _____ _____    ______ ____
ROOT
ATOM      1  C   UNL     1       5.315  -4.433  22.828  0.00  0.00    +0.131 A 
ATOM      2  C   UNL     1       5.521  -3.063  22.821  0.00  0.00    +0.093 A 
ATOM      3  C   UNL     1       6.804  -2.540  23.069  0.00  0.00    +0.147 A 
ATOM      4  O   UNL     1       6.923  -1.169  23.049  0.00  0.00    -0.451 OA
ATOM      5  C   UNL     1       8.175  -0.595  23.209  0.00  0.00    +0.181 A 
ATOM      6  C   UNL     1       9.277  -1.308  23.509  0.00  0.00    +0.208 A 
ATOM      7  C   UNL     1       9.184  -2.778  23.674  0.00  0.00    +0.238 A 
ATOM      8  O   UNL     1      10.150  -3.392  24.110  0.00  0.00    -0.283 OA
ATOM      9  C   UNL     1       7.880  -3.392  23.338  0.00  0.00    +0.109 A 
ATOM     10  C   UNL     1       7.669  -4.780  23.298  0.00  0.00    +0.135 A 
ATOM     11  C   UNL     1       6.402  -5.292  23.050  0.00  0.00    +0.092 A 
ENDROOT
BRANCH   5  12
ATOM     12  C   UNL     1       8.183   0.892  23.144  0.00  0.00    +0.025 A 
ATOM     13  C   UNL     1       7.992   1.558  21.920  0.00  0.00    +0.015 A 
ATOM     14  C   UNL     1       7.924   2.956  21.860  0.00  0.00    +0.050 A 
ATOM     15  C   UNL     1       8.031   3.695  23.028  0.00  0.00    +0.158 A 
ATOM     16  C   UNL     1       8.238   3.062  24.246  0.00  0.00    +0.159 A 
ATOM     17  C   UNL     1       8.343   1.677  24.306  0.00  0.00    +0.060 A 
BRANCH  15  18
ATOM     18  O   UNL     1       7.921   5.054  22.979  0.00  0.00    -0.503 OA
ATOM     19  H   UNL     1       6.974   5.229  23.153  0.00  0.00    +0.292 HD
ENDBRANCH  15  18
BRANCH  16  20
ATOM     20  O   UNL     1       8.318   3.840  25.368  0.00  0.00    -0.503 OA
ATOM     21  H   UNL     1       8.996   3.456  25.953  0.00  0.00    +0.292 HD
ENDBRANCH  16  20
ENDBRANCH   5  12
BRANCH   6  22
ATOM     22  O   UNL     1      10.505  -0.691  23.750  0.00  0.00    -0.501 OA
ATOM     23  H   UNL     1      11.156  -1.202  23.240  0.00  0.00    +0.292 HD
ENDBRANCH   6  22
BRANCH  10  24
ATOM     24  O   UNL     1       8.693  -5.657  23.524  0.00  0.00    -0.506 OA
ATOM     25  H   UNL     1       9.449  -5.194  23.926  0.00  0.00    +0.292 HD
ENDBRANCH  10  24
BRANCH   1  26
ATOM     26  O   UNL     1       4.133  -5.084  22.610  0.00  0.00    -0.461 OA
BRANCH  26  30
ATOM     27  C   UNL     1       3.541  -6.599  26.633  0.00  0.00    +0.041 C 
ATOM     28  C   UNL     1       3.511  -7.427  25.353  0.00  0.00    +0.150 C 
ATOM     29  O   UNL     1       4.142  -6.751  24.262  0.00  0.00    -0.334 OA
ATOM     30  C   UNL     1       3.429  -5.629  23.737  0.00  0.00    +0.339 C 
ATOM     31  C   UNL     1       2.025  -6.042  23.236  0.00  0.00    +0.214 C 
ATOM     32  C   UNL     1       1.256  -6.843  24.300  0.00  0.00    +0.180 C 
ATOM     33  C   UNL     1       2.127  -7.938  24.925  0.00  0.00    +0.174 C 
BRANCH  31  34
ATOM     34  O   UNL     1       1.254  -4.893  22.849  0.00  0.00    -0.383 OA
ATOM     35  H   UNL     1       1.576  -4.597  21.976  0.00  0.00    +0.210 HD
ENDBRANCH  31  34
BRANCH  32  36
ATOM     36  O   UNL     1       0.690  -5.965  25.285  0.00  0.00    -0.386 OA
ATOM     37  H   UNL     1      -0.043  -6.400  25.750  0.00  0.00    +0.210 HD
ENDBRANCH  32  36
BRANCH  33  38
ATOM     38  O   UNL     1       2.318  -8.971  23.942  0.00  0.00    -0.387 OA
ATOM     39  H   UNL     1       1.610  -8.890  23.275  0.00  0.00    +0.210 HD
ENDBRANCH  33  38
ENDBRANCH  26  30
ENDBRANCH   1  26
TORSDOF 10
ENDMDL
