MODEL 1
REMARK VINA RESULT:      -7.8      0.000      0.000
REMARK  Name = 
REMARK  12 active torsions:
REMARK  status: ('A' for Active; 'I' for Inactive)
REMARK    1  A    between atoms: C_3  and  O_37
REMARK    2  A    between atoms: C_4  and  O_36
REMARK    3  A    between atoms: C_6  and  C_7
REMARK    4  A    between atoms: C_8  and  O_35
REMARK    5  A    between atoms: C_12  and  O_34
REMARK    6  A    between atoms: C_14  and  O_18
REMARK    7  A    between atoms: O_18  and  C_19
REMARK    8  A    between atoms: C_20  and  O_33
REMARK    9  A    between atoms: C_22  and  O_32
REMARK   10  A    between atoms: C_24  and  O_31
REMARK   11  A    between atoms: C_26  and  C_29
REMARK   12  A    between atoms: C_29  and  O_30
REMARK                            x       y       z     vdW  Elec       q    Type
REMARK                         _______ _______ _______ _____ _____    ______ ____
ROOT
ATOM      1  C   UNL     1       6.975  -4.120  24.250  0.00  0.00    +0.181 A 
ATOM      2  O   UNL     1       6.324  -2.892  24.023  0.00  0.00    -0.451 OA
ATOM      3  C   UNL     1       7.072  -1.790  23.654  0.00  0.00    +0.147 A 
ATOM      4  C   UNL     1       8.463  -1.842  23.601  0.00  0.00    +0.109 A 
ATOM      5  C   UNL     1       9.208  -0.721  23.244  0.00  0.00    +0.135 A 
ATOM      6  C   UNL     1       8.569   0.465  22.938  0.00  0.00    +0.092 A 
ATOM      7  C   UNL     1       7.174   0.575  23.006  0.00  0.00    +0.131 A 
ATOM      8  C   UNL     1       9.153  -3.090  23.912  0.00  0.00    +0.238 A 
ATOM      9  O   UNL     1      10.381  -3.137  23.933  0.00  0.00    -0.283 OA
ATOM     10  C   UNL     1       6.425  -0.576  23.340  0.00  0.00    +0.093 A 
ATOM     11  C   UNL     1       8.314  -4.281  24.147  0.00  0.00    +0.208 A 
ENDROOT
BRANCH   1  13
ATOM     12  C   UNL     1       5.229  -5.853  23.603  0.00  0.00    +0.015 A 
ATOM     13  C   UNL     1       6.073  -5.268  24.579  0.00  0.00    +0.025 A 
ATOM     14  C   UNL     1       6.008  -5.782  25.880  0.00  0.00    +0.060 A 
ATOM     15  C   UNL     1       5.064  -6.760  26.196  0.00  0.00    +0.159 A 
ATOM     16  C   UNL     1       4.171  -7.244  25.243  0.00  0.00    +0.158 A 
ATOM     17  C   UNL     1       4.258  -6.807  23.933  0.00  0.00    +0.050 A 
BRANCH  15  18
ATOM     18  O   UNL     1       5.002  -7.236  27.475  0.00  0.00    -0.503 OA
ATOM     19  H   UNL     1       5.229  -6.467  28.036  0.00  0.00    +0.292 HD
ENDBRANCH  15  18
BRANCH  16  20
ATOM     20  O   UNL     1       3.228  -8.147  25.643  0.00  0.00    -0.503 OA
ATOM     21  H   UNL     1       2.886  -7.873  26.512  0.00  0.00    +0.292 HD
ENDBRANCH  16  20
ENDBRANCH   1  13
BRANCH   5  22
ATOM     22  O   UNL     1      10.576  -0.702  23.189  0.00  0.00    -0.506 OA
ATOM     23  H   UNL     1      10.900  -1.633  23.186  0.00  0.00    +0.292 HD
ENDBRANCH   5  22
BRANCH  11  24
ATOM     24  O   UNL     1       8.993  -5.482  24.229  0.00  0.00    -0.501 OA
ATOM     25  H   UNL     1       8.806  -5.879  25.096  0.00  0.00    +0.292 HD
ENDBRANCH  11  24
BRANCH   7  26
ATOM     26  O   UNL     1       6.490   1.774  22.795  0.00  0.00    -0.461 OA
BRANCH  26  27
ATOM     27  C   UNL     1       7.131   2.926  23.397  0.00  0.00    +0.339 C 
ATOM     28  O   UNL     1       6.260   3.572  24.333  0.00  0.00    -0.331 OA
ATOM     29  C   UNL     1       5.314   4.495  23.782  0.00  0.00    +0.179 C 
ATOM     30  C   UNL     1       6.088   5.660  23.176  0.00  0.00    +0.177 C 
ATOM     31  C   UNL     1       6.985   5.168  22.036  0.00  0.00    +0.180 C 
ATOM     32  C   UNL     1       7.835   3.952  22.453  0.00  0.00    +0.214 C 
BRANCH  30  33
ATOM     33  O   UNL     1       5.206   6.689  22.729  0.00  0.00    -0.386 OA
ATOM     34  H   UNL     1       4.752   6.322  21.944  0.00  0.00    +0.210 HD
ENDBRANCH  30  33
BRANCH  31  35
ATOM     35  O   UNL     1       7.810   6.279  21.621  0.00  0.00    -0.386 OA
ATOM     36  H   UNL     1       7.353   6.696  20.862  0.00  0.00    +0.210 HD
ENDBRANCH  31  35
BRANCH  32  37
ATOM     37  O   UNL     1       8.994   4.502  23.147  0.00  0.00    -0.383 OA
ATOM     38  H   UNL     1       9.027   5.460  22.959  0.00  0.00    +0.210 HD
ENDBRANCH  32  37
BRANCH  29  39
ATOM     39  C   UNL     1       4.245   3.884  22.844  0.00  0.00    +0.190 C 
BRANCH  39  40
ATOM     40  O   UNL     1       3.714   2.638  23.288  0.00  0.00    -0.392 OA
ATOM     41  H   UNL     1       3.619   2.067  22.502  0.00  0.00    +0.210 HD
ENDBRANCH  39  40
ENDBRANCH  29  39
ENDBRANCH  26  27
ENDBRANCH   7  26
TORSDOF 12
ENDMDL
MODEL 2
REMARK VINA RESULT:      -7.3      2.103      9.228
REMARK  Name = 
REMARK  12 active torsions:
REMARK  status: ('A' for Active; 'I' for Inactive)
REMARK    1  A    between atoms: C_3  and  O_37
REMARK    2  A    between atoms: C_4  and  O_36
REMARK    3  A    between atoms: C_6  and  C_7
REMARK    4  A    between atoms: C_8  and  O_35
REMARK    5  A    between atoms: C_12  and  O_34
REMARK    6  A    between atoms: C_14  and  O_18
REMARK    7  A    between atoms: O_18  and  C_19
REMARK    8  A    between atoms: C_20  and  O_33
REMARK    9  A    between atoms: C_22  and  O_32
REMARK   10  A    between atoms: C_24  and  O_31
REMARK   11  A    between atoms: C_26  and  C_29
REMARK   12  A    between atoms: C_29  and  O_30
REMARK                            x       y       z     vdW  Elec       q    Type
REMARK                         _______ _______ _______ _____ _____    ______ ____
ROOT
ATOM      1  C   UNL     1       8.371  -0.094  23.814  0.00  0.00    +0.181 A 
ATOM      2  O   UNL     1       7.491  -0.675  24.748  0.00  0.00    -0.451 OA
ATOM      3  C   UNL     1       7.778  -1.929  25.255  0.00  0.00    +0.147 A 
ATOM      4  C   UNL     1       8.860  -2.671  24.787  0.00  0.00    +0.109 A 
ATOM      5  C   UNL     1       9.130  -3.939  25.292  0.00  0.00    +0.135 A 
ATOM      6  C   UNL     1       8.318  -4.481  26.271  0.00  0.00    +0.092 A 
ATOM      7  C   UNL     1       7.201  -3.786  26.752  0.00  0.00    +0.131 A 
ATOM      8  C   UNL     1       9.733  -2.109  23.761  0.00  0.00    +0.238 A 
ATOM      9  O   UNL     1      10.653  -2.774  23.290  0.00  0.00    -0.283 OA
ATOM     10  C   UNL     1       6.953  -2.487  26.254  0.00  0.00    +0.093 A 
ATOM     11  C   UNL     1       9.486  -0.710  23.360  0.00  0.00    +0.208 A 
ENDROOT
BRANCH   1  13
ATOM     12  C   UNL     1       7.016   1.524  22.393  0.00  0.00    +0.015 A 
ATOM     13  C   UNL     1       8.011   1.290  23.376  0.00  0.00    +0.025 A 
ATOM     14  C   UNL     1       8.673   2.406  23.900  0.00  0.00    +0.060 A 
ATOM     15  C   UNL     1       8.418   3.676  23.380  0.00  0.00    +0.159 A 
ATOM     16  C   UNL     1       7.513   3.867  22.339  0.00  0.00    +0.158 A 
ATOM     17  C   UNL     1       6.791   2.794  21.848  0.00  0.00    +0.050 A 
BRANCH  15  18
ATOM     18  O   UNL     1       9.088   4.752  23.891  0.00  0.00    -0.503 OA
ATOM     19  H   UNL     1       9.855   4.365  24.361  0.00  0.00    +0.292 HD
ENDBRANCH  15  18
BRANCH  16  20
ATOM     20  O   UNL     1       7.369   5.128  21.833  0.00  0.00    -0.503 OA
ATOM     21  H   UNL     1       6.468   5.217  21.477  0.00  0.00    +0.292 HD
ENDBRANCH  16  20
ENDBRANCH   1  13
BRANCH   5  22
ATOM     22  O   UNL     1      10.166  -4.726  24.864  0.00  0.00    -0.506 OA
ATOM     23  H   UNL     1      10.516  -4.348  24.023  0.00  0.00    +0.292 HD
ENDBRANCH   5  22
BRANCH  11  24
ATOM     24  O   UNL     1      10.451  -0.143  22.549  0.00  0.00    -0.501 OA
ATOM     25  H   UNL     1      10.187  -0.277  21.624  0.00  0.00    +0.292 HD
ENDBRANCH  11  24
BRANCH   7  26
ATOM     26  O   UNL     1       6.301  -4.327  27.672  0.00  0.00    -0.461 OA
BRANCH  26  27
ATOM     27  C   UNL     1       5.982  -5.720  27.427  0.00  0.00    +0.339 C 
ATOM     28  O   UNL     1       5.367  -5.891  26.145  0.00  0.00    -0.331 OA
ATOM     29  C   UNL     1       3.958  -5.647  26.084  0.00  0.00    +0.179 C 
ATOM     30  C   UNL     1       3.259  -6.696  26.941  0.00  0.00    +0.177 C 
ATOM     31  C   UNL     1       3.696  -6.567  28.403  0.00  0.00    +0.180 C 
ATOM     32  C   UNL     1       5.229  -6.509  28.544  0.00  0.00    +0.214 C 
BRANCH  30  33
ATOM     33  O   UNL     1       1.840  -6.601  26.818  0.00  0.00    -0.386 OA
ATOM     34  H   UNL     1       1.625  -5.660  26.975  0.00  0.00    +0.210 HD
ENDBRANCH  30  33
BRANCH  31  35
ATOM     35  O   UNL     1       3.134  -7.685  29.125  0.00  0.00    -0.386 OA
ATOM     36  H   UNL     1       2.465  -8.090  28.535  0.00  0.00    +0.210 HD
ENDBRANCH  31  35
BRANCH  32  37
ATOM     37  O   UNL     1       5.679  -7.897  28.518  0.00  0.00    -0.383 OA
ATOM     38  H   UNL     1       5.689  -8.224  29.438  0.00  0.00    +0.210 HD
ENDBRANCH  32  37
BRANCH  29  39
ATOM     39  C   UNL     1       3.513  -4.193  26.369  0.00  0.00    +0.190 C 
BRANCH  39  40
ATOM     40  O   UNL     1       2.269  -3.830  25.774  0.00  0.00    -0.392 OA
ATOM     41  H   UNL     1       1.561  -4.159  26.359  0.00  0.00    +0.210 HD
ENDBRANCH  39  40
ENDBRANCH  29  39
ENDBRANCH  26  27
ENDBRANCH   7  26
TORSDOF 12
ENDMDL
MODEL 3
REMARK VINA RESULT:      -7.2      0.992      2.423
REMARK  Name = 
REMARK  12 active torsions:
REMARK  status: ('A' for Active; 'I' for Inactive)
REMARK    1  A    between atoms: C_3  and  O_37
REMARK    2  A    between atoms: C_4  and  O_36
REMARK    3  A    between atoms: C_6  and  C_7
REMARK    4  A    between atoms: C_8  and  O_35
REMARK    5  A    between atoms: C_12  and  O_34
REMARK    6  A    between atoms: C_14  and  O_18
REMARK    7  A    between atoms: O_18  and  C_19
REMARK    8  A    between atoms: C_20  and  O_33
REMARK    9  A    between atoms: C_22  and  O_32
REMARK   10  A    between atoms: C_24  and  O_31
REMARK   11  A    between atoms: C_26  and  C_29
REMARK   12  A    between atoms: C_29  and  O_30
REMARK                            x       y       z     vdW  Elec       q    Type
REMARK                         _______ _______ _______ _____ _____    ______ ____
ROOT
ATOM      1  C   UNL     1       6.746  -3.777  24.484  0.00  0.00    +0.181 A 
ATOM      2  O   UNL     1       6.216  -2.477  24.592  0.00  0.00    -0.451 OA
ATOM      3  C   UNL     1       7.034  -1.391  24.343  0.00  0.00    +0.147 A 
ATOM      4  C   UNL     1       8.395  -1.552  24.089  0.00  0.00    +0.109 A 
ATOM      5  C   UNL     1       9.214  -0.451  23.855  0.00  0.00    +0.135 A 
ATOM      6  C   UNL     1       8.681   0.824  23.877  0.00  0.00    +0.092 A 
ATOM      7  C   UNL     1       7.326   1.039  24.158  0.00  0.00    +0.131 A 
ATOM      8  C   UNL     1       8.971  -2.892  24.053  0.00  0.00    +0.238 A 
ATOM      9  O   UNL     1      10.179  -3.049  23.893  0.00  0.00    -0.283 OA
ATOM     10  C   UNL     1       6.497  -0.087  24.363  0.00  0.00    +0.093 A 
ATOM     11  C   UNL     1       8.036  -4.029  24.167  0.00  0.00    +0.208 A 
ENDROOT
BRANCH   1  13
ATOM     12  C   UNL     1       5.695  -5.578  25.941  0.00  0.00    +0.015 A 
ATOM     13  C   UNL     1       5.766  -4.885  24.707  0.00  0.00    +0.025 A 
ATOM     14  C   UNL     1       4.904  -5.300  23.685  0.00  0.00    +0.060 A 
ATOM     15  C   UNL     1       4.094  -6.421  23.868  0.00  0.00    +0.159 A 
ATOM     16  C   UNL     1       4.121  -7.151  25.054  0.00  0.00    +0.158 A 
ATOM     17  C   UNL     1       4.910  -6.725  26.107  0.00  0.00    +0.050 A 
BRANCH  15  18
ATOM     18  O   UNL     1       3.273  -6.822  22.852  0.00  0.00    -0.503 OA
ATOM     19  H   UNL     1       2.394  -6.927  23.271  0.00  0.00    +0.292 HD
ENDBRANCH  15  18
BRANCH  16  20
ATOM     20  O   UNL     1       3.355  -8.279  25.133  0.00  0.00    -0.503 OA
ATOM     21  H   UNL     1       3.737  -8.865  25.810  0.00  0.00    +0.292 HD
ENDBRANCH  16  20
ENDBRANCH   1  13
BRANCH   5  22
ATOM     22  O   UNL     1      10.559  -0.539  23.616  0.00  0.00    -0.506 OA
ATOM     23  H   UNL     1      10.963   0.345  23.784  0.00  0.00    +0.292 HD
ENDBRANCH   5  22
BRANCH  11  24
ATOM     24  O   UNL     1       8.580  -5.275  23.919  0.00  0.00    -0.501 OA
ATOM     25  H   UNL     1       9.134  -5.521  24.679  0.00  0.00    +0.292 HD
ENDBRANCH  11  24
BRANCH   7  26
ATOM     26  O   UNL     1       6.762   2.310  24.280  0.00  0.00    -0.461 OA
BRANCH  26  27
ATOM     27  C   UNL     1       6.213   2.827  23.041  0.00  0.00    +0.339 C 
ATOM     28  O   UNL     1       7.248   3.086  22.086  0.00  0.00    -0.331 OA
ATOM     29  C   UNL     1       7.921   4.343  22.211  0.00  0.00    +0.179 C 
ATOM     30  C   UNL     1       6.912   5.451  21.930  0.00  0.00    +0.177 C 
ATOM     31  C   UNL     1       5.782   5.416  22.964  0.00  0.00    +0.180 C 
ATOM     32  C   UNL     1       5.190   4.004  23.125  0.00  0.00    +0.214 C 
BRANCH  30  33
ATOM     33  O   UNL     1       7.544   6.730  21.901  0.00  0.00    -0.386 OA
ATOM     34  H   UNL     1       8.477   6.567  22.145  0.00  0.00    +0.210 HD
ENDBRANCH  30  33
BRANCH  31  35
ATOM     35  O   UNL     1       4.782   6.371  22.546  0.00  0.00    -0.386 OA
ATOM     36  H   UNL     1       4.688   6.269  21.577  0.00  0.00    +0.210 HD
ENDBRANCH  31  35
BRANCH  32  37
ATOM     37  O   UNL     1       4.223   3.857  22.043  0.00  0.00    -0.383 OA
ATOM     38  H   UNL     1       3.410   4.331  22.304  0.00  0.00    +0.210 HD
ENDBRANCH  32  37
BRANCH  29  39
ATOM     39  C   UNL     1       8.740   4.543  23.509  0.00  0.00    +0.190 C 
BRANCH  39  40
ATOM     40  O   UNL     1       9.811   5.477  23.393  0.00  0.00    -0.392 OA
ATOM     41  H   UNL     1      10.592   5.076  23.817  0.00  0.00    +0.210 HD
ENDBRANCH  39  40
ENDBRANCH  29  39
ENDBRANCH  26  27
ENDBRANCH   7  26
TORSDOF 12
ENDMDL
MODEL 4
REMARK VINA RESULT:      -7.2      1.864      8.904
REMARK  Name = 
REMARK  12 active torsions:
REMARK  status: ('A' for Active; 'I' for Inactive)
REMARK    1  A    between atoms: C_3  and  O_37
REMARK    2  A    between atoms: C_4  and  O_36
REMARK    3  A    between atoms: C_6  and  C_7
REMARK    4  A    between atoms: C_8  and  O_35
REMARK    5  A    between atoms: C_12  and  O_34
REMARK    6  A    between atoms: C_14  and  O_18
REMARK    7  A    between atoms: O_18  and  C_19
REMARK    8  A    between atoms: C_20  and  O_33
REMARK    9  A    between atoms: C_22  and  O_32
REMARK   10  A    between atoms: C_24  and  O_31
REMARK   11  A    between atoms: C_26  and  C_29
REMARK   12  A    between atoms: C_29  and  O_30
REMARK                            x       y       z     vdW  Elec       q    Type
REMARK                         _______ _______ _______ _____ _____    ______ ____
ROOT
ATOM      1  C   UNL     1       7.210   2.164  23.188  0.00  0.00    +0.181 A 
ATOM      2  O   UNL     1       6.513   0.965  23.433  0.00  0.00    -0.451 OA
ATOM      3  C   UNL     1       7.126  -0.242  23.154  0.00  0.00    +0.147 A 
ATOM      4  C   UNL     1       8.376  -0.295  22.539  0.00  0.00    +0.109 A 
ATOM      5  C   UNL     1       8.977  -1.516  22.247  0.00  0.00    +0.135 A 
ATOM      6  C   UNL     1       8.334  -2.697  22.563  0.00  0.00    +0.092 A 
ATOM      7  C   UNL     1       7.064  -2.695  23.153  0.00  0.00    +0.131 A 
ATOM      8  C   UNL     1       9.072   0.943  22.208  0.00  0.00    +0.238 A 
ATOM      9  O   UNL     1      10.145   0.916  21.609  0.00  0.00    -0.283 OA
ATOM     10  C   UNL     1       6.475  -1.452  23.474  0.00  0.00    +0.093 A 
ATOM     11  C   UNL     1       8.456   2.205  22.665  0.00  0.00    +0.208 A 
ENDROOT
BRANCH   1  13
ATOM     12  C   UNL     1       6.393   3.817  24.940  0.00  0.00    +0.015 A 
ATOM     13  C   UNL     1       6.488   3.412  23.585  0.00  0.00    +0.025 A 
ATOM     14  C   UNL     1       5.849   4.210  22.629  0.00  0.00    +0.060 A 
ATOM     15  C   UNL     1       5.069   5.294  23.034  0.00  0.00    +0.159 A 
ATOM     16  C   UNL     1       4.904   5.608  24.380  0.00  0.00    +0.158 A 
ATOM     17  C   UNL     1       5.579   4.881  25.345  0.00  0.00    +0.050 A 
BRANCH  15  18
ATOM     18  O   UNL     1       4.437   6.050  22.087  0.00  0.00    -0.503 OA
ATOM     19  H   UNL     1       5.034   6.813  21.941  0.00  0.00    +0.292 HD
ENDBRANCH  15  18
BRANCH  16  20
ATOM     20  O   UNL     1       4.067   6.638  24.704  0.00  0.00    -0.503 OA
ATOM     21  H   UNL     1       3.175   6.425  24.379  0.00  0.00    +0.292 HD
ENDBRANCH  16  20
ENDBRANCH   1  13
BRANCH   5  22
ATOM     22  O   UNL     1      10.194  -1.637  21.630  0.00  0.00    -0.506 OA
ATOM     23  H   UNL     1      10.328  -2.584  21.390  0.00  0.00    +0.292 HD
ENDBRANCH   5  22
BRANCH  11  24
ATOM     24  O   UNL     1       9.238   3.336  22.523  0.00  0.00    -0.501 OA
ATOM     25  H   UNL     1      10.170   3.061  22.509  0.00  0.00    +0.292 HD
ENDBRANCH  11  24
BRANCH   7  26
ATOM     26  O   UNL     1       6.337  -3.860  23.408  0.00  0.00    -0.461 OA
BRANCH  26  27
ATOM     27  C   UNL     1       7.135  -4.939  23.955  0.00  0.00    +0.339 C 
ATOM     28  O   UNL     1       6.313  -5.900  24.627  0.00  0.00    -0.331 OA
ATOM     29  C   UNL     1       5.959  -5.592  25.980  0.00  0.00    +0.179 C 
ATOM     30  C   UNL     1       7.235  -5.592  26.814  0.00  0.00    +0.177 C 
ATOM     31  C   UNL     1       8.194  -4.505  26.319  0.00  0.00    +0.180 C 
ATOM     32  C   UNL     1       8.399  -4.566  24.794  0.00  0.00    +0.214 C 
BRANCH  30  33
ATOM     33  O   UNL     1       6.944  -5.428  28.202  0.00  0.00    -0.386 OA
ATOM     34  H   UNL     1       6.940  -4.462  28.357  0.00  0.00    +0.210 HD
ENDBRANCH  30  33
BRANCH  31  35
ATOM     35  O   UNL     1       9.440  -4.666  27.033  0.00  0.00    -0.386 OA
ATOM     36  H   UNL     1      10.055  -3.994  26.675  0.00  0.00    +0.210 HD
ENDBRANCH  31  35
BRANCH  32  37
ATOM     37  O   UNL     1       9.419  -5.586  24.575  0.00  0.00    -0.383 OA
ATOM     38  H   UNL     1       9.381  -6.211  25.324  0.00  0.00    +0.210 HD
ENDBRANCH  32  37
BRANCH  29  39
ATOM     39  C   UNL     1       5.070  -4.341  26.175  0.00  0.00    +0.190 C 
BRANCH  39  40
ATOM     40  O   UNL     1       4.009  -4.218  25.230  0.00  0.00    -0.392 OA
ATOM     41  H   UNL     1       3.206  -3.973  25.726  0.00  0.00    +0.210 HD
ENDBRANCH  39  40
ENDBRANCH  29  39
ENDBRANCH  26  27
ENDBRANCH   7  26
TORSDOF 12
ENDMDL
MODEL 5
REMARK VINA RESULT:      -7.2      2.000      9.332
REMARK  Name = 
REMARK  12 active torsions:
REMARK  status: ('A' for Active; 'I' for Inactive)
REMARK    1  A    between atoms: C_3  and  O_37
REMARK    2  A    between atoms: C_4  and  O_36
REMARK    3  A    between atoms: C_6  and  C_7
REMARK    4  A    between atoms: C_8  and  O_35
REMARK    5  A    between atoms: C_12  and  O_34
REMARK    6  A    between atoms: C_14  and  O_18
REMARK    7  A    between atoms: O_18  and  C_19
REMARK    8  A    between atoms: C_20  and  O_33
REMARK    9  A    between atoms: C_22  and  O_32
REMARK   10  A    between atoms: C_24  and  O_31
REMARK   11  A    between atoms: C_26  and  C_29
REMARK   12  A    between atoms: C_29  and  O_30
REMARK                            x       y       z     vdW  Elec       q    Type
REMARK                         _______ _______ _______ _____ _____    ______ ____
ROOT
ATOM      1  C   UNL     1       8.322  -0.253  23.848  0.00  0.00    +0.181 A 
ATOM      2  O   UNL     1       7.272  -0.890  24.537  0.00  0.00    -0.451 OA
ATOM      3  C   UNL     1       7.431  -2.201  24.947  0.00  0.00    +0.147 A 
ATOM      4  C   UNL     1       8.565  -2.935  24.605  0.00  0.00    +0.109 A 
ATOM      5  C   UNL     1       8.707  -4.259  25.009  0.00  0.00    +0.135 A 
ATOM      6  C   UNL     1       7.716  -4.864  25.757  0.00  0.00    +0.092 A 
ATOM      7  C   UNL     1       6.545  -4.177  26.100  0.00  0.00    +0.131 A 
ATOM      8  C   UNL     1       9.625  -2.307  23.823  0.00  0.00    +0.238 A 
ATOM      9  O   UNL     1      10.601  -2.958  23.459  0.00  0.00    -0.283 OA
ATOM     10  C   UNL     1       6.422  -2.824  25.711  0.00  0.00    +0.093 A 
ATOM     11  C   UNL     1       9.488  -0.865  23.541  0.00  0.00    +0.208 A 
ENDROOT
BRANCH   1  13
ATOM     12  C   UNL     1       7.356   1.560  22.348  0.00  0.00    +0.015 A 
ATOM     13  C   UNL     1       8.080   1.183  23.507  0.00  0.00    +0.025 A 
ATOM     14  C   UNL     1       8.596   2.210  24.306  0.00  0.00    +0.060 A 
ATOM     15  C   UNL     1       8.475   3.540  23.898  0.00  0.00    +0.159 A 
ATOM     16  C   UNL     1       7.852   3.878  22.700  0.00  0.00    +0.158 A 
ATOM     17  C   UNL     1       7.271   2.892  21.923  0.00  0.00    +0.050 A 
BRANCH  15  18
ATOM     18  O   UNL     1       9.002   4.527  24.682  0.00  0.00    -0.503 OA
ATOM     19  H   UNL     1       9.056   5.308  24.094  0.00  0.00    +0.292 HD
ENDBRANCH  15  18
BRANCH  16  20
ATOM     20  O   UNL     1       7.837   5.193  22.330  0.00  0.00    -0.503 OA
ATOM     21  H   UNL     1       7.638   5.733  23.115  0.00  0.00    +0.292 HD
ENDBRANCH  16  20
ENDBRANCH   1  13
BRANCH   5  22
ATOM     22  O   UNL     1       9.787  -5.040  24.693  0.00  0.00    -0.506 OA
ATOM     23  H   UNL     1       9.654  -5.931  25.095  0.00  0.00    +0.292 HD
ENDBRANCH   5  22
BRANCH  11  24
ATOM     24  O   UNL     1      10.599  -0.258  22.987  0.00  0.00    -0.501 OA
ATOM     25  H   UNL     1      10.562   0.691  23.193  0.00  0.00    +0.292 HD
ENDBRANCH  11  24
BRANCH   7  26
ATOM     26  O   UNL     1       5.478  -4.772  26.776  0.00  0.00    -0.461 OA
BRANCH  26  27
ATOM     27  C   UNL     1       4.283  -4.919  25.967  0.00  0.00    +0.339 C 
ATOM     28  O   UNL     1       3.109  -4.968  26.786  0.00  0.00    -0.331 OA
ATOM     29  C   UNL     1       2.782  -6.245  27.344  0.00  0.00    +0.179 C 
ATOM     30  C   UNL     1       2.439  -7.190  26.198  0.00  0.00    +0.177 C 
ATOM     31  C   UNL     1       3.652  -7.374  25.280  0.00  0.00    +0.180 C 
ATOM     32  C   UNL     1       4.272  -6.026  24.866  0.00  0.00    +0.214 C 
BRANCH  30  33
ATOM     33  O   UNL     1       1.969  -8.445  26.688  0.00  0.00    -0.386 OA
ATOM     34  H   UNL     1       1.938  -8.352  27.661  0.00  0.00    +0.210 HD
ENDBRANCH  30  33
BRANCH  31  35
ATOM     35  O   UNL     1       3.216  -8.137  24.133  0.00  0.00    -0.386 OA
ATOM     36  H   UNL     1       3.630  -7.722  23.349  0.00  0.00    +0.210 HD
ENDBRANCH  31  35
BRANCH  32  37
ATOM     37  O   UNL     1       3.474  -5.555  23.740  0.00  0.00    -0.383 OA
ATOM     38  H   UNL     1       4.064  -5.484  22.966  0.00  0.00    +0.210 HD
ENDBRANCH  32  37
BRANCH  29  39
ATOM     39  C   UNL     1       3.801  -6.817  28.358  0.00  0.00    +0.190 C 
BRANCH  39  40
ATOM     40  O   UNL     1       3.287  -7.855  29.189  0.00  0.00    -0.392 OA
ATOM     41  H   UNL     1       2.528  -8.251  28.722  0.00  0.00    +0.210 HD
ENDBRANCH  39  40
ENDBRANCH  29  39
ENDBRANCH  26  27
ENDBRANCH   7  26
TORSDOF 12
ENDMDL
MODEL 6
REMARK VINA RESULT:      -7.1      1.758      9.142
REMARK  Name = 
REMARK  12 active torsions:
REMARK  status: ('A' for Active; 'I' for Inactive)
REMARK    1  A    between atoms: C_3  and  O_37
REMARK    2  A    between atoms: C_4  and  O_36
REMARK    3  A    between atoms: C_6  and  C_7
REMARK    4  A    between atoms: C_8  and  O_35
REMARK    5  A    between atoms: C_12  and  O_34
REMARK    6  A    between atoms: C_14  and  O_18
REMARK    7  A    between atoms: O_18  and  C_19
REMARK    8  A    between atoms: C_20  and  O_33
REMARK    9  A    between atoms: C_22  and  O_32
REMARK   10  A    between atoms: C_24  and  O_31
REMARK   11  A    between atoms: C_26  and  C_29
REMARK   12  A    between atoms: C_29  and  O_30
REMARK                            x       y       z     vdW  Elec       q    Type
REMARK                         _______ _______ _______ _____ _____    ______ ____
ROOT
ATOM      1  C   UNL     1       6.998   2.099  23.003  0.00  0.00    +0.181 A 
ATOM      2  O   UNL     1       6.376   0.874  23.313  0.00  0.00    -0.451 OA
ATOM      3  C   UNL     1       7.077  -0.304  23.131  0.00  0.00    +0.147 A 
ATOM      4  C   UNL     1       8.345  -0.311  22.553  0.00  0.00    +0.109 A 
ATOM      5  C   UNL     1       9.035  -1.504  22.359  0.00  0.00    +0.135 A 
ATOM      6  C   UNL     1       8.464  -2.703  22.739  0.00  0.00    +0.092 A 
ATOM      7  C   UNL     1       7.180  -2.750  23.297  0.00  0.00    +0.131 A 
ATOM      8  C   UNL     1       8.966   0.948  22.155  0.00  0.00    +0.238 A 
ATOM      9  O   UNL     1      10.056   0.955  21.586  0.00  0.00    -0.283 OA
ATOM     10  C   UNL     1       6.500  -1.532  23.517  0.00  0.00    +0.093 A 
ATOM     11  C   UNL     1       8.254   2.191  22.510  0.00  0.00    +0.208 A 
ENDROOT
BRANCH   1  13
ATOM     12  C   UNL     1       6.336   4.041  24.507  0.00  0.00    +0.015 A 
ATOM     13  C   UNL     1       6.184   3.319  23.297  0.00  0.00    +0.025 A 
ATOM     14  C   UNL     1       5.212   3.770  22.396  0.00  0.00    +0.060 A 
ATOM     15  C   UNL     1       4.371   4.827  22.748  0.00  0.00    +0.159 A 
ATOM     16  C   UNL     1       4.470   5.452  23.988  0.00  0.00    +0.158 A 
ATOM     17  C   UNL     1       5.465   5.075  24.872  0.00  0.00    +0.050 A 
BRANCH  15  18
ATOM     18  O   UNL     1       3.417   5.241  21.862  0.00  0.00    -0.503 OA
ATOM     19  H   UNL     1       3.912   5.737  21.179  0.00  0.00    +0.292 HD
ENDBRANCH  15  18
BRANCH  16  20
ATOM     20  O   UNL     1       3.566   6.429  24.291  0.00  0.00    -0.503 OA
ATOM     21  H   UNL     1       2.699   6.014  24.442  0.00  0.00    +0.292 HD
ENDBRANCH  16  20
ENDBRANCH   1  13
BRANCH   5  22
ATOM     22  O   UNL     1      10.275  -1.582  21.783  0.00  0.00    -0.506 OA
ATOM     23  H   UNL     1      10.511  -0.691  21.433  0.00  0.00    +0.292 HD
ENDBRANCH   5  22
BRANCH  11  24
ATOM     24  O   UNL     1       8.962   3.361  22.311  0.00  0.00    -0.501 OA
ATOM     25  H   UNL     1       8.888   3.901  23.115  0.00  0.00    +0.292 HD
ENDBRANCH  11  24
BRANCH   7  26
ATOM     26  O   UNL     1       6.525  -3.942  23.612  0.00  0.00    -0.461 OA
BRANCH  26  27
ATOM     27  C   UNL     1       5.845  -3.914  24.892  0.00  0.00    +0.339 C 
ATOM     28  O   UNL     1       6.703  -3.409  25.922  0.00  0.00    -0.331 OA
ATOM     29  C   UNL     1       7.599  -4.354  26.517  0.00  0.00    +0.179 C 
ATOM     30  C   UNL     1       6.766  -5.399  27.249  0.00  0.00    +0.177 C 
ATOM     31  C   UNL     1       5.873  -6.155  26.261  0.00  0.00    +0.180 C 
ATOM     32  C   UNL     1       5.083  -5.199  25.348  0.00  0.00    +0.214 C 
BRANCH  30  33
ATOM     33  O   UNL     1       7.596  -6.298  27.984  0.00  0.00    -0.386 OA
ATOM     34  H   UNL     1       7.315  -7.195  27.714  0.00  0.00    +0.210 HD
ENDBRANCH  30  33
BRANCH  31  35
ATOM     35  O   UNL     1       4.995  -7.006  27.032  0.00  0.00    -0.386 OA
ATOM     36  H   UNL     1       5.560  -7.697  27.434  0.00  0.00    +0.210 HD
ENDBRANCH  31  35
BRANCH  32  37
ATOM     37  O   UNL     1       3.912  -4.795  26.120  0.00  0.00    -0.383 OA
ATOM     38  H   UNL     1       3.795  -5.442  26.842  0.00  0.00    +0.210 HD
ENDBRANCH  32  37
BRANCH  29  39
ATOM     39  C   UNL     1       8.678  -4.943  25.577  0.00  0.00    +0.190 C 
BRANCH  39  40
ATOM     40  O   UNL     1       9.828  -5.453  26.246  0.00  0.00    -0.392 OA
ATOM     41  H   UNL     1       9.581  -6.315  26.631  0.00  0.00    +0.210 HD
ENDBRANCH  39  40
ENDBRANCH  29  39
ENDBRANCH  26  27
ENDBRANCH   7  26
TORSDOF 12
ENDMDL
MODEL 7
REMARK VINA RESULT:      -7.0      0.930      1.424
REMARK  Name = 
REMARK  12 active torsions:
REMARK  status: ('A' for Active; 'I' for Inactive)
REMARK    1  A    between atoms: C_3  and  O_37
REMARK    2  A    between atoms: C_4  and  O_36
REMARK    3  A    between atoms: C_6  and  C_7
REMARK    4  A    between atoms: C_8  and  O_35
REMARK    5  A    between atoms: C_12  and  O_34
REMARK    6  A    between atoms: C_14  and  O_18
REMARK    7  A    between atoms: O_18  and  C_19
REMARK    8  A    between atoms: C_20  and  O_33
REMARK    9  A    between atoms: C_22  and  O_32
REMARK   10  A    between atoms: C_24  and  O_31
REMARK   11  A    between atoms: C_26  and  C_29
REMARK   12  A    between atoms: C_29  and  O_30
REMARK                            x       y       z     vdW  Elec       q    Type
REMARK                         _______ _______ _______ _____ _____    ______ ____
ROOT
ATOM      1  C   UNL     1       6.669  -3.954  24.492  0.00  0.00    +0.181 A 
ATOM      2  O   UNL     1       6.104  -2.665  24.440  0.00  0.00    -0.451 OA
ATOM      3  C   UNL     1       6.908  -1.588  24.116  0.00  0.00    +0.147 A 
ATOM      4  C   UNL     1       8.283  -1.736  23.941  0.00  0.00    +0.109 A 
ATOM      5  C   UNL     1       9.086  -0.643  23.632  0.00  0.00    +0.135 A 
ATOM      6  C   UNL     1       8.523   0.612  23.496  0.00  0.00    +0.092 A 
ATOM      7  C   UNL     1       7.151   0.816  23.692  0.00  0.00    +0.131 A 
ATOM      8  C   UNL     1       8.891  -3.056  24.071  0.00  0.00    +0.238 A 
ATOM      9  O   UNL     1      10.109  -3.195  23.984  0.00  0.00    -0.283 OA
ATOM     10  C   UNL     1       6.340  -0.305  23.976  0.00  0.00    +0.093 A 
ATOM     11  C   UNL     1       7.979  -4.201  24.261  0.00  0.00    +0.208 A 
ENDROOT
BRANCH   1  13
ATOM     12  C   UNL     1       5.644  -5.675  26.059  0.00  0.00    +0.015 A 
ATOM     13  C   UNL     1       5.706  -5.061  24.784  0.00  0.00    +0.025 A 
ATOM     14  C   UNL     1       4.851  -5.552  23.790  0.00  0.00    +0.060 A 
ATOM     15  C   UNL     1       4.058  -6.672  24.044  0.00  0.00    +0.159 A 
ATOM     16  C   UNL     1       4.095  -7.325  25.274  0.00  0.00    +0.158 A 
ATOM     17  C   UNL     1       4.876  -6.822  26.298  0.00  0.00    +0.050 A 
BRANCH  15  18
ATOM     18  O   UNL     1       3.244  -7.149  23.056  0.00  0.00    -0.503 OA
ATOM     19  H   UNL     1       2.959  -6.352  22.564  0.00  0.00    +0.292 HD
ENDBRANCH  15  18
BRANCH  16  20
ATOM     20  O   UNL     1       3.346  -8.458  25.425  0.00  0.00    -0.503 OA
ATOM     21  H   UNL     1       3.261  -8.891  24.558  0.00  0.00    +0.292 HD
ENDBRANCH  16  20
ENDBRANCH   1  13
BRANCH   5  22
ATOM     22  O   UNL     1      10.443  -0.717  23.464  0.00  0.00    -0.506 OA
ATOM     23  H   UNL     1      10.872  -0.582  24.341  0.00  0.00    +0.292 HD
ENDBRANCH   5  22
BRANCH  11  24
ATOM     24  O   UNL     1       8.563  -5.451  24.169  0.00  0.00    -0.501 OA
ATOM     25  H   UNL     1       7.979  -6.092  24.608  0.00  0.00    +0.292 HD
ENDBRANCH  11  24
BRANCH   7  26
ATOM     26  O   UNL     1       6.552   2.077  23.656  0.00  0.00    -0.461 OA
BRANCH  26  27
ATOM     27  C   UNL     1       7.476   3.169  23.894  0.00  0.00    +0.339 C 
ATOM     28  O   UNL     1       7.031   3.994  24.978  0.00  0.00    -0.331 OA
ATOM     29  C   UNL     1       6.064   4.998  24.651  0.00  0.00    +0.179 C 
ATOM     30  C   UNL     1       6.720   5.998  23.707  0.00  0.00    +0.177 C 
ATOM     31  C   UNL     1       7.139   5.307  22.406  0.00  0.00    +0.180 C 
ATOM     32  C   UNL     1       7.941   4.019  22.669  0.00  0.00    +0.214 C 
BRANCH  30  33
ATOM     33  O   UNL     1       5.857   7.105  23.447  0.00  0.00    -0.386 OA
ATOM     34  H   UNL     1       6.439   7.818  23.114  0.00  0.00    +0.210 HD
ENDBRANCH  30  33
BRANCH  31  35
ATOM     35  O   UNL     1       7.899   6.261  21.632  0.00  0.00    -0.386 OA
ATOM     36  H   UNL     1       8.648   5.768  21.239  0.00  0.00    +0.210 HD
ENDBRANCH  31  35
BRANCH  32  37
ATOM     37  O   UNL     1       9.316   4.451  22.898  0.00  0.00    -0.383 OA
ATOM     38  H   UNL     1       9.894   3.670  22.798  0.00  0.00    +0.210 HD
ENDBRANCH  32  37
BRANCH  29  39
ATOM     39  C   UNL     1       4.689   4.476  24.170  0.00  0.00    +0.190 C 
BRANCH  39  40
ATOM     40  O   UNL     1       3.721   5.497  23.932  0.00  0.00    -0.392 OA
ATOM     41  H   UNL     1       2.887   5.054  23.690  0.00  0.00    +0.210 HD
ENDBRANCH  39  40
ENDBRANCH  29  39
ENDBRANCH  26  27
ENDBRANCH   7  26
TORSDOF 12
ENDMDL
MODEL 8
REMARK VINA RESULT:      -6.9      1.773      9.492
REMARK  Name = 
REMARK  12 active torsions:
REMARK  status: ('A' for Active; 'I' for Inactive)
REMARK    1  A    between atoms: C_3  and  O_37
REMARK    2  A    between atoms: C_4  and  O_36
REMARK    3  A    between atoms: C_6  and  C_7
REMARK    4  A    between atoms: C_8  and  O_35
REMARK    5  A    between atoms: C_12  and  O_34
REMARK    6  A    between atoms: C_14  and  O_18
REMARK    7  A    between atoms: O_18  and  C_19
REMARK    8  A    between atoms: C_20  and  O_33
REMARK    9  A    between atoms: C_22  and  O_32
REMARK   10  A    between atoms: C_24  and  O_31
REMARK   11  A    between atoms: C_26  and  C_29
REMARK   12  A    between atoms: C_29  and  O_30
REMARK                            x       y       z     vdW  Elec       q    Type
REMARK                         _______ _______ _______ _____ _____    ______ ____
ROOT
ATOM      1  C   UNL     1       8.241  -0.136  23.943  0.00  0.00    +0.181 A 
ATOM      2  O   UNL     1       7.019  -0.809  24.136  0.00  0.00    -0.451 OA
ATOM      3  C   UNL     1       7.021  -2.185  24.276  0.00  0.00    +0.147 A 
ATOM      4  C   UNL     1       8.191  -2.927  24.128  0.00  0.00    +0.109 A 
ATOM      5  C   UNL     1       8.179  -4.313  24.254  0.00  0.00    +0.135 A 
ATOM      6  C   UNL     1       6.996  -4.972  24.527  0.00  0.00    +0.092 A 
ATOM      7  C   UNL     1       5.789  -4.273  24.655  0.00  0.00    +0.131 A 
ATOM      8  C   UNL     1       9.450  -2.245  23.849  0.00  0.00    +0.238 A 
ATOM      9  O   UNL     1      10.479  -2.888  23.652  0.00  0.00    -0.283 OA
ATOM     10  C   UNL     1       5.816  -2.864  24.555  0.00  0.00    +0.093 A 
ATOM     11  C   UNL     1       9.434  -0.769  23.864  0.00  0.00    +0.208 A 
ENDROOT
BRANCH   1  13
ATOM     12  C   UNL     1       8.479   2.177  24.974  0.00  0.00    +0.015 A 
ATOM     13  C   UNL     1       8.142   1.355  23.871  0.00  0.00    +0.025 A 
ATOM     14  C   UNL     1       7.677   1.989  22.713  0.00  0.00    +0.060 A 
ATOM     15  C   UNL     1       7.464   3.369  22.711  0.00  0.00    +0.159 A 
ATOM     16  C   UNL     1       7.701   4.142  23.845  0.00  0.00    +0.158 A 
ATOM     17  C   UNL     1       8.227   3.554  24.982  0.00  0.00    +0.050 A 
BRANCH  15  18
ATOM     18  O   UNL     1       6.992   3.968  21.578  0.00  0.00    -0.503 OA
ATOM     19  H   UNL     1       6.573   4.796  21.892  0.00  0.00    +0.292 HD
ENDBRANCH  15  18
BRANCH  16  20
ATOM     20  O   UNL     1       7.400   5.473  23.792  0.00  0.00    -0.503 OA
ATOM     21  H   UNL     1       7.922   5.880  23.079  0.00  0.00    +0.292 HD
ENDBRANCH  16  20
ENDBRANCH   1  13
BRANCH   5  22
ATOM     22  O   UNL     1       9.288  -5.102  24.104  0.00  0.00    -0.506 OA
ATOM     23  H   UNL     1      10.065  -4.617  24.471  0.00  0.00    +0.292 HD
ENDBRANCH   5  22
BRANCH  11  24
ATOM     24  O   UNL     1      10.672  -0.158  23.807  0.00  0.00    -0.501 OA
ATOM     25  H   UNL     1      10.579   0.672  23.310  0.00  0.00    +0.292 HD
ENDBRANCH  11  24
BRANCH   7  26
ATOM     26  O   UNL     1       4.556  -4.901  24.840  0.00  0.00    -0.461 OA
BRANCH  26  27
ATOM     27  C   UNL     1       4.658  -6.232  25.406  0.00  0.00    +0.339 C 
ATOM     28  O   UNL     1       4.236  -7.227  24.466  0.00  0.00    -0.331 OA
ATOM     29  C   UNL     1       2.826  -7.463  24.387  0.00  0.00    +0.179 C 
ATOM     30  C   UNL     1       2.367  -8.038  25.722  0.00  0.00    +0.177 C 
ATOM     31  C   UNL     1       2.613  -7.030  26.849  0.00  0.00    +0.180 C 
ATOM     32  C   UNL     1       4.050  -6.476  26.824  0.00  0.00    +0.214 C 
BRANCH  30  33
ATOM     33  O   UNL     1       0.995  -8.428  25.671  0.00  0.00    -0.386 OA
ATOM     34  H   UNL     1       0.898  -8.941  24.844  0.00  0.00    +0.210 HD
ENDBRANCH  30  33
BRANCH  31  35
ATOM     35  O   UNL     1       2.317  -7.694  28.098  0.00  0.00    -0.386 OA
ATOM     36  H   UNL     1       2.069  -6.992  28.734  0.00  0.00    +0.210 HD
ENDBRANCH  31  35
BRANCH  32  37
ATOM     37  O   UNL     1       4.866  -7.469  27.515  0.00  0.00    -0.383 OA
ATOM     38  H   UNL     1       4.857  -7.252  28.467  0.00  0.00    +0.210 HD
ENDBRANCH  32  37
BRANCH  29  39
ATOM     39  C   UNL     1       1.972  -6.277  23.877  0.00  0.00    +0.190 C 
BRANCH  39  40
ATOM     40  O   UNL     1       2.540  -5.573  22.775  0.00  0.00    -0.392 OA
ATOM     41  H   UNL     1       1.998  -4.774  22.631  0.00  0.00    +0.210 HD
ENDBRANCH  39  40
ENDBRANCH  29  39
ENDBRANCH  26  27
ENDBRANCH   7  26
TORSDOF 12
ENDMDL
MODEL 9
REMARK VINA RESULT:      -6.9      2.006      9.174
REMARK  Name = 
REMARK  12 active torsions:
REMARK  status: ('A' for Active; 'I' for Inactive)
REMARK    1  A    between atoms: C_3  and  O_37
REMARK    2  A    between atoms: C_4  and  O_36
REMARK    3  A    between atoms: C_6  and  C_7
REMARK    4  A    between atoms: C_8  and  O_35
REMARK    5  A    between atoms: C_12  and  O_34
REMARK    6  A    between atoms: C_14  and  O_18
REMARK    7  A    between atoms: O_18  and  C_19
REMARK    8  A    between atoms: C_20  and  O_33
REMARK    9  A    between atoms: C_22  and  O_32
REMARK   10  A    between atoms: C_24  and  O_31
REMARK   11  A    between atoms: C_26  and  C_29
REMARK   12  A    between atoms: C_29  and  O_30
REMARK                            x       y       z     vdW  Elec       q    Type
REMARK                         _______ _______ _______ _____ _____    ______ ____
ROOT
ATOM      1  C   UNL     1       7.700   2.047  24.100  0.00  0.00    +0.181 A 
ATOM      2  O   UNL     1       7.203   0.830  24.605  0.00  0.00    -0.451 OA
ATOM      3  C   UNL     1       7.695  -0.360  24.103  0.00  0.00    +0.147 A 
ATOM      4  C   UNL     1       8.595  -0.382  23.039  0.00  0.00    +0.109 A 
ATOM      5  C   UNL     1       9.072  -1.587  22.530  0.00  0.00    +0.135 A 
ATOM      6  C   UNL     1       8.651  -2.783  23.078  0.00  0.00    +0.092 A 
ATOM      7  C   UNL     1       7.725  -2.814  24.129  0.00  0.00    +0.131 A 
ATOM      8  C   UNL     1       9.056   0.873  22.456  0.00  0.00    +0.238 A 
ATOM      9  O   UNL     1       9.799   0.872  21.477  0.00  0.00    -0.283 OA
ATOM     10  C   UNL     1       7.270  -1.586  24.658  0.00  0.00    +0.093 A 
ATOM     11  C   UNL     1       8.630   2.121  23.121  0.00  0.00    +0.208 A 
ENDROOT
BRANCH   1  13
ATOM     12  C   UNL     1       5.993   3.926  24.264  0.00  0.00    +0.015 A 
ATOM     13  C   UNL     1       7.155   3.278  24.753  0.00  0.00    +0.025 A 
ATOM     14  C   UNL     1       7.800   3.854  25.854  0.00  0.00    +0.060 A 
ATOM     15  C   UNL     1       7.353   5.074  26.363  0.00  0.00    +0.159 A 
ATOM     16  C   UNL     1       6.273   5.746  25.797  0.00  0.00    +0.158 A 
ATOM     17  C   UNL     1       5.573   5.169  24.753  0.00  0.00    +0.050 A 
BRANCH  15  18
ATOM     18  O   UNL     1       8.006   5.630  27.427  0.00  0.00    -0.503 OA
ATOM     19  H   UNL     1       7.701   5.115  28.201  0.00  0.00    +0.292 HD
ENDBRANCH  15  18
BRANCH  16  20
ATOM     20  O   UNL     1       5.939   6.971  26.302  0.00  0.00    -0.503 OA
ATOM     21  H   UNL     1       5.120   7.270  25.872  0.00  0.00    +0.292 HD
ENDBRANCH  16  20
ENDBRANCH   1  13
BRANCH   5  22
ATOM     22  O   UNL     1       9.943  -1.678  21.478  0.00  0.00    -0.506 OA
ATOM     23  H   UNL     1       9.896  -2.593  21.114  0.00  0.00    +0.292 HD
ENDBRANCH   5  22
BRANCH  11  24
ATOM     24  O   UNL     1       9.249   3.274  22.677  0.00  0.00    -0.501 OA
ATOM     25  H   UNL     1      10.106   3.353  23.129  0.00  0.00    +0.292 HD
ENDBRANCH  11  24
BRANCH   7  26
ATOM     26  O   UNL     1       7.202  -3.997  24.654  0.00  0.00    -0.461 OA
BRANCH  26  27
ATOM     27  C   UNL     1       5.777  -4.152  24.440  0.00  0.00    +0.339 C 
ATOM     28  O   UNL     1       5.053  -4.015  25.669  0.00  0.00    -0.331 OA
ATOM     29  C   UNL     1       4.969  -5.188  26.486  0.00  0.00    +0.179 C 
ATOM     30  C   UNL     1       4.162  -6.236  25.728  0.00  0.00    +0.177 C 
ATOM     31  C   UNL     1       4.874  -6.618  24.427  0.00  0.00    +0.180 C 
ATOM     32  C   UNL     1       5.287  -5.380  23.609  0.00  0.00    +0.214 C 
BRANCH  30  33
ATOM     33  O   UNL     1       3.919  -7.385  26.539  0.00  0.00    -0.386 OA
ATOM     34  H   UNL     1       3.005  -7.282  26.872  0.00  0.00    +0.210 HD
ENDBRANCH  30  33
BRANCH  31  35
ATOM     35  O   UNL     1       3.985  -7.479  23.682  0.00  0.00    -0.386 OA
ATOM     36  H   UNL     1       4.546  -8.169  23.271  0.00  0.00    +0.210 HD
ENDBRANCH  31  35
BRANCH  32  37
ATOM     37  O   UNL     1       4.097  -4.989  22.860  0.00  0.00    -0.383 OA
ATOM     38  H   UNL     1       3.428  -5.690  22.978  0.00  0.00    +0.210 HD
ENDBRANCH  32  37
BRANCH  29  39
ATOM     39  C   UNL     1       6.310  -5.707  27.057  0.00  0.00    +0.190 C 
BRANCH  39  40
ATOM     40  O   UNL     1       7.180  -4.686  27.541  0.00  0.00    -0.392 OA
ATOM     41  H   UNL     1       8.094  -5.007  27.425  0.00  0.00    +0.210 HD
ENDBRANCH  39  40
ENDBRANCH  29  39
ENDBRANCH  26  27
ENDBRANCH   7  26
TORSDOF 12
ENDMDL
