MODEL 1
REMARK VINA RESULT:      -7.1      0.000      0.000
REMARK  Name = 
REMARK  18 active torsions:
REMARK  status: ('A' for Active; 'I' for Inactive)
REMARK    1  A    between atoms: C_3  and  O_54
REMARK    2  A    between atoms: C_4  and  O_53
REMARK    3  A    between atoms: C_6  and  C_7
REMARK    4  A    between atoms: C_8  and  O_20
REMARK    5  A    between atoms: C_12  and  O_19
REMARK    6  A    between atoms: C_14  and  O_18
REMARK    7  A    between atoms: O_20  and  C_21
REMARK    8  A    between atoms: C_23  and  O_36
REMARK    9  A    between atoms: C_25  and  O_35
REMARK   10  A    between atoms: C_27  and  O_34
REMARK   11  A    between atoms: C_29  and  C_32
REMARK   12  A    between atoms: C_32  and  O_33
REMARK   13  A    between atoms: O_36  and  C_37
REMARK   14  A    between atoms: C_39  and  O_52
REMARK   15  A    between atoms: C_41  and  O_51
REMARK   16  A    between atoms: C_43  and  O_50
REMARK   17  A    between atoms: C_45  and  C_48
REMARK   18  A    between atoms: C_48  and  O_49
REMARK                            x       y       z     vdW  Elec       q    Type
REMARK                         _______ _______ _______ _____ _____    ______ ____
ROOT
ATOM      1  C   UNL     1       6.529  -2.588  24.550  0.00  0.00    +0.340 C 
ATOM      2  O   UNL     1       5.437  -3.106  23.775  0.00  0.00    -0.331 OA
ATOM      3  C   UNL     1       5.623  -4.282  23.001  0.00  0.00    +0.179 C 
ATOM      4  C   UNL     1       6.940  -4.227  22.227  0.00  0.00    +0.177 C 
ATOM      5  C   UNL     1       8.162  -3.859  23.079  0.00  0.00    +0.180 C 
ATOM      6  C   UNL     1       7.980  -2.613  23.951  0.00  0.00    +0.221 C 
ENDROOT
BRANCH   5   7
ATOM      7  O   UNL     1       8.566  -4.979  23.878  0.00  0.00    -0.386 OA
ATOM      8  H   UNL     1       8.439  -4.755  24.829  0.00  0.00    +0.210 HD
ENDBRANCH   5   7
BRANCH   4   9
ATOM      9  O   UNL     1       7.191  -5.465  21.559  0.00  0.00    -0.386 OA
ATOM     10  H   UNL     1       7.776  -5.978  22.159  0.00  0.00    +0.210 HD
ENDBRANCH   4   9
BRANCH   6  11
ATOM     11  O   UNL     1       8.292  -1.366  23.264  0.00  0.00    -0.337 OA
BRANCH  11  12
ATOM     12  C   UNL     1       9.056  -0.398  24.023  0.00  0.00    +0.282 C 
ATOM     13  O   UNL     1       8.432   0.893  24.163  0.00  0.00    -0.341 OA
ATOM     14  C   UNL     1       8.238   1.702  22.981  0.00  0.00    +0.178 C 
ATOM     15  C   UNL     1       9.388   1.671  21.944  0.00  0.00    +0.177 C 
ATOM     16  C   UNL     1      10.110   0.318  21.887  0.00  0.00    +0.179 C 
ATOM     17  C   UNL     1      10.404  -0.166  23.323  0.00  0.00    +0.201 C 
BRANCH  17  18
ATOM     18  O   UNL     1      11.218   0.804  24.015  0.00  0.00    -0.384 OA
ATOM     19  H   UNL     1      10.634   1.545  24.282  0.00  0.00    +0.210 HD
ENDBRANCH  17  18
BRANCH  16  20
ATOM     20  O   UNL     1       9.369  -0.631  21.122  0.00  0.00    -0.386 OA
ATOM     21  H   UNL     1       8.911  -0.177  20.401  0.00  0.00    +0.210 HD
ENDBRANCH  16  20
BRANCH  15  22
ATOM     22  O   UNL     1      10.328   2.719  22.256  0.00  0.00    -0.386 OA
ATOM     23  H   UNL     1      10.940   2.387  22.944  0.00  0.00    +0.210 HD
ENDBRANCH  15  22
BRANCH  14  24
ATOM     24  C   UNL     1       6.892   1.373  22.329  0.00  0.00    +0.190 C 
BRANCH  24  25
ATOM     25  O   UNL     1       5.996   0.718  23.227  0.00  0.00    -0.392 OA
ATOM     26  H   UNL     1       5.751   1.354  23.923  0.00  0.00    +0.210 HD
ENDBRANCH  24  25
ENDBRANCH  14  24
ENDBRANCH  11  12
ENDBRANCH   6  11
BRANCH   3  27
ATOM     27  C   UNL     1       5.337  -5.562  23.796  0.00  0.00    +0.190 C 
BRANCH  27  28
ATOM     28  O   UNL     1       4.952  -6.621  22.934  0.00  0.00    -0.392 OA
ATOM     29  H   UNL     1       5.589  -6.581  22.194  0.00  0.00    +0.210 HD
ENDBRANCH  27  28
ENDBRANCH   3  27
BRANCH   1  30
ATOM     30  O   UNL     1       6.561  -3.196  25.870  0.00  0.00    -0.453 OA
BRANCH  30  41
ATOM     31  C   UNL     1       5.003  -2.649  27.676  0.00  0.00    +0.181 A 
ATOM     32  O   UNL     1       4.394  -1.590  28.426  0.00  0.00    -0.451 OA
ATOM     33  C   UNL     1       4.780  -0.275  28.161  0.00  0.00    +0.147 A 
ATOM     34  C   UNL     1       5.996   0.008  27.561  0.00  0.00    +0.109 A 
ATOM     35  C   UNL     1       6.417   1.313  27.264  0.00  0.00    +0.135 A 
ATOM     36  C   UNL     1       5.606   2.387  27.577  0.00  0.00    +0.091 A 
ATOM     37  C   UNL     1       4.390   2.129  28.208  0.00  0.00    +0.124 A 
ATOM     38  C   UNL     1       6.809  -1.128  27.216  0.00  0.00    +0.238 A 
ATOM     39  O   UNL     1       8.022  -1.005  27.123  0.00  0.00    -0.283 OA
ATOM     40  C   UNL     1       3.972   0.815  28.505  0.00  0.00    +0.092 A 
ATOM     41  C   UNL     1       6.083  -2.388  26.892  0.00  0.00    +0.214 A 
BRANCH  31  43
ATOM     42  C   UNL     1       2.943  -4.221  27.770  0.00  0.00    +0.015 A 
ATOM     43  C   UNL     1       4.345  -4.027  27.838  0.00  0.00    +0.025 A 
ATOM     44  C   UNL     1       5.078  -5.193  28.164  0.00  0.00    +0.060 A 
ATOM     45  C   UNL     1       4.481  -6.459  28.275  0.00  0.00    +0.159 A 
ATOM     46  C   UNL     1       3.107  -6.610  28.192  0.00  0.00    +0.158 A 
ATOM     47  C   UNL     1       2.329  -5.490  27.959  0.00  0.00    +0.050 A 
BRANCH  46  48
ATOM     48  O   UNL     1       2.604  -7.870  28.373  0.00  0.00    -0.503 OA
ATOM     49  H   UNL     1       2.488  -8.032  29.326  0.00  0.00    +0.292 HD
ENDBRANCH  46  48
BRANCH  45  50
ATOM     50  O   UNL     1       5.259  -7.564  28.485  0.00  0.00    -0.503 OA
ATOM     51  H   UNL     1       6.169  -7.217  28.594  0.00  0.00    +0.292 HD
ENDBRANCH  45  50
ENDBRANCH  31  43
BRANCH  37  52
ATOM     52  O   UNL     1       3.581   3.173  28.547  0.00  0.00    -0.507 OA
ATOM     53  H   UNL     1       4.123   3.983  28.589  0.00  0.00    +0.292 HD
ENDBRANCH  37  52
BRANCH  35  54
ATOM     54  O   UNL     1       7.600   1.602  26.645  0.00  0.00    -0.506 OA
ATOM     55  H   UNL     1       7.699   2.585  26.626  0.00  0.00    +0.292 HD
ENDBRANCH  35  54
ENDBRANCH  30  41
ENDBRANCH   1  30
TORSDOF 18
ENDMDL
MODEL 2
REMARK VINA RESULT:      -6.9      2.518      5.398
REMARK  Name = 
REMARK  18 active torsions:
REMARK  status: ('A' for Active; 'I' for Inactive)
REMARK    1  A    between atoms: C_3  and  O_54
REMARK    2  A    between atoms: C_4  and  O_53
REMARK    3  A    between atoms: C_6  and  C_7
REMARK    4  A    between atoms: C_8  and  O_20
REMARK    5  A    between atoms: C_12  and  O_19
REMARK    6  A    between atoms: C_14  and  O_18
REMARK    7  A    between atoms: O_20  and  C_21
REMARK    8  A    between atoms: C_23  and  O_36
REMARK    9  A    between atoms: C_25  and  O_35
REMARK   10  A    between atoms: C_27  and  O_34
REMARK   11  A    between atoms: C_29  and  C_32
REMARK   12  A    between atoms: C_32  and  O_33
REMARK   13  A    between atoms: O_36  and  C_37
REMARK   14  A    between atoms: C_39  and  O_52
REMARK   15  A    between atoms: C_41  and  O_51
REMARK   16  A    between atoms: C_43  and  O_50
REMARK   17  A    between atoms: C_45  and  C_48
REMARK   18  A    between atoms: C_48  and  O_49
REMARK                            x       y       z     vdW  Elec       q    Type
REMARK                         _______ _______ _______ _____ _____    ______ ____
ROOT
ATOM      1  C   UNL     1       7.572   0.416  23.900  0.00  0.00    +0.340 C 
ATOM      2  O   UNL     1       7.722   0.118  22.505  0.00  0.00    -0.331 OA
ATOM      3  C   UNL     1       8.897   0.534  21.822  0.00  0.00    +0.179 C 
ATOM      4  C   UNL     1       9.253   1.978  22.173  0.00  0.00    +0.177 C 
ATOM      5  C   UNL     1       9.286   2.276  23.678  0.00  0.00    +0.180 C 
ATOM      6  C   UNL     1       8.046   1.809  24.447  0.00  0.00    +0.221 C 
ENDROOT
BRANCH   5   7
ATOM      7  O   UNL     1      10.476   1.737  24.266  0.00  0.00    -0.386 OA
ATOM      8  H   UNL     1      11.108   2.472  24.441  0.00  0.00    +0.210 HD
ENDBRANCH   5   7
BRANCH   4   9
ATOM      9  O   UNL     1      10.506   2.349  21.596  0.00  0.00    -0.386 OA
ATOM     10  H   UNL     1      10.419   2.174  20.634  0.00  0.00    +0.210 HD
ENDBRANCH   4   9
BRANCH   6  11
ATOM     11  O   UNL     1       6.957   2.778  24.449  0.00  0.00    -0.337 OA
BRANCH  11  12
ATOM     12  C   UNL     1       5.850   2.488  23.563  0.00  0.00    +0.282 C 
ATOM     13  O   UNL     1       5.908   3.149  22.283  0.00  0.00    -0.341 OA
ATOM     14  C   UNL     1       5.803   4.589  22.240  0.00  0.00    +0.178 C 
ATOM     15  C   UNL     1       4.792   5.224  23.226  0.00  0.00    +0.177 C 
ATOM     16  C   UNL     1       4.665   4.444  24.542  0.00  0.00    +0.179 C 
ATOM     17  C   UNL     1       4.542   2.936  24.234  0.00  0.00    +0.201 C 
BRANCH  17  18
ATOM     18  O   UNL     1       3.390   2.695  23.399  0.00  0.00    -0.384 OA
ATOM     19  H   UNL     1       2.597   2.992  23.894  0.00  0.00    +0.210 HD
ENDBRANCH  17  18
BRANCH  16  20
ATOM     20  O   UNL     1       5.744   4.744  25.426  0.00  0.00    -0.386 OA
ATOM     21  H   UNL     1       6.523   4.993  24.910  0.00  0.00    +0.210 HD
ENDBRANCH  16  20
BRANCH  15  22
ATOM     22  O   UNL     1       3.505   5.316  22.582  0.00  0.00    -0.386 OA
ATOM     23  H   UNL     1       3.434   6.199  22.164  0.00  0.00    +0.210 HD
ENDBRANCH  15  22
BRANCH  14  24
ATOM     24  C   UNL     1       7.189   5.226  22.379  0.00  0.00    +0.190 C 
BRANCH  24  25
ATOM     25  O   UNL     1       7.489   6.117  21.305  0.00  0.00    -0.392 OA
ATOM     26  H   UNL     1       7.393   7.029  21.634  0.00  0.00    +0.210 HD
ENDBRANCH  24  25
ENDBRANCH  14  24
ENDBRANCH  11  12
ENDBRANCH   6  11
BRANCH   3  27
ATOM     27  C   UNL     1      10.025  -0.501  21.908  0.00  0.00    +0.190 C 
BRANCH  27  28
ATOM     28  O   UNL     1       9.510  -1.797  22.164  0.00  0.00    -0.392 OA
ATOM     29  H   UNL     1       9.037  -2.041  21.344  0.00  0.00    +0.210 HD
ENDBRANCH  27  28
ENDBRANCH   3  27
BRANCH   1  30
ATOM     30  O   UNL     1       8.162  -0.630  24.720  0.00  0.00    -0.453 OA
BRANCH  30  41
ATOM     31  C   UNL     1       6.487  -2.266  25.433  0.00  0.00    +0.181 A 
ATOM     32  O   UNL     1       5.391  -2.519  26.320  0.00  0.00    -0.451 OA
ATOM     33  C   UNL     1       5.042  -1.538  27.249  0.00  0.00    +0.147 A 
ATOM     34  C   UNL     1       5.952  -0.570  27.645  0.00  0.00    +0.109 A 
ATOM     35  C   UNL     1       5.639   0.442  28.565  0.00  0.00    +0.135 A 
ATOM     36  C   UNL     1       4.377   0.499  29.124  0.00  0.00    +0.091 A 
ATOM     37  C   UNL     1       3.455  -0.482  28.764  0.00  0.00    +0.124 A 
ATOM     38  C   UNL     1       7.248  -0.633  27.026  0.00  0.00    +0.238 A 
ATOM     39  O   UNL     1       8.222  -0.163  27.599  0.00  0.00    -0.283 OA
ATOM     40  C   UNL     1       3.774  -1.497  27.839  0.00  0.00    +0.092 A 
ATOM     41  C   UNL     1       7.298  -1.196  25.647  0.00  0.00    +0.214 A 
BRANCH  31  43
ATOM     42  C   UNL     1       7.397  -4.461  24.395  0.00  0.00    +0.015 A 
ATOM     43  C   UNL     1       6.640  -3.269  24.280  0.00  0.00    +0.025 A 
ATOM     44  C   UNL     1       6.120  -3.034  22.985  0.00  0.00    +0.060 A 
ATOM     45  C   UNL     1       6.228  -3.967  21.941  0.00  0.00    +0.159 A 
ATOM     46  C   UNL     1       6.969  -5.127  22.095  0.00  0.00    +0.158 A 
ATOM     47  C   UNL     1       7.574  -5.371  23.315  0.00  0.00    +0.050 A 
BRANCH  46  48
ATOM     48  O   UNL     1       7.073  -5.952  21.008  0.00  0.00    -0.503 OA
ATOM     49  H   UNL     1       7.991  -6.268  20.936  0.00  0.00    +0.292 HD
ENDBRANCH  46  48
BRANCH  45  50
ATOM     50  O   UNL     1       5.611  -3.728  20.744  0.00  0.00    -0.503 OA
ATOM     51  H   UNL     1       6.009  -4.371  20.120  0.00  0.00    +0.292 HD
ENDBRANCH  45  50
ENDBRANCH  31  43
BRANCH  37  52
ATOM     52  O   UNL     1       2.208  -0.460  29.318  0.00  0.00    -0.507 OA
ATOM     53  H   UNL     1       2.011   0.454  29.597  0.00  0.00    +0.292 HD
ENDBRANCH  37  52
BRANCH  35  54
ATOM     54  O   UNL     1       6.517   1.418  28.940  0.00  0.00    -0.506 OA
ATOM     55  H   UNL     1       6.725   1.960  28.140  0.00  0.00    +0.292 HD
ENDBRANCH  35  54
ENDBRANCH  30  41
ENDBRANCH   1  30
TORSDOF 18
ENDMDL
MODEL 3
REMARK VINA RESULT:      -6.8      1.893      7.552
REMARK  Name = 
REMARK  18 active torsions:
REMARK  status: ('A' for Active; 'I' for Inactive)
REMARK    1  A    between atoms: C_3  and  O_54
REMARK    2  A    between atoms: C_4  and  O_53
REMARK    3  A    between atoms: C_6  and  C_7
REMARK    4  A    between atoms: C_8  and  O_20
REMARK    5  A    between atoms: C_12  and  O_19
REMARK    6  A    between atoms: C_14  and  O_18
REMARK    7  A    between atoms: O_20  and  C_21
REMARK    8  A    between atoms: C_23  and  O_36
REMARK    9  A    between atoms: C_25  and  O_35
REMARK   10  A    between atoms: C_27  and  O_34
REMARK   11  A    between atoms: C_29  and  C_32
REMARK   12  A    between atoms: C_32  and  O_33
REMARK   13  A    between atoms: O_36  and  C_37
REMARK   14  A    between atoms: C_39  and  O_52
REMARK   15  A    between atoms: C_41  and  O_51
REMARK   16  A    between atoms: C_43  and  O_50
REMARK   17  A    between atoms: C_45  and  C_48
REMARK   18  A    between atoms: C_48  and  O_49
REMARK                            x       y       z     vdW  Elec       q    Type
REMARK                         _______ _______ _______ _____ _____    ______ ____
ROOT
ATOM      1  C   UNL     1       7.051  -2.766  25.979  0.00  0.00    +0.340 C 
ATOM      2  O   UNL     1       8.463  -2.814  26.230  0.00  0.00    -0.331 OA
ATOM      3  C   UNL     1       9.285  -3.671  25.450  0.00  0.00    +0.179 C 
ATOM      4  C   UNL     1       8.650  -5.054  25.302  0.00  0.00    +0.177 C 
ATOM      5  C   UNL     1       7.185  -5.034  24.847  0.00  0.00    +0.180 C 
ATOM      6  C   UNL     1       6.280  -4.093  25.648  0.00  0.00    +0.221 C 
ENDROOT
BRANCH   5   7
ATOM      7  O   UNL     1       7.103  -4.740  23.446  0.00  0.00    -0.386 OA
ATOM      8  H   UNL     1       7.461  -3.836  23.288  0.00  0.00    +0.210 HD
ENDBRANCH   5   7
BRANCH   4   9
ATOM      9  O   UNL     1       9.406  -5.869  24.406  0.00  0.00    -0.386 OA
ATOM     10  H   UNL     1       8.786  -6.559  24.084  0.00  0.00    +0.210 HD
ENDBRANCH   4   9
BRANCH   6  11
ATOM     11  O   UNL     1       5.723  -4.697  26.852  0.00  0.00    -0.337 OA
BRANCH  11  12
ATOM     12  C   UNL     1       4.410  -5.290  26.715  0.00  0.00    +0.282 C 
ATOM     13  O   UNL     1       3.473  -4.936  27.751  0.00  0.00    -0.341 OA
ATOM     14  C   UNL     1       3.732  -5.378  29.102  0.00  0.00    +0.178 C 
ATOM     15  C   UNL     1       4.314  -6.805  29.247  0.00  0.00    +0.177 C 
ATOM     16  C   UNL     1       5.225  -7.204  28.079  0.00  0.00    +0.179 C 
ATOM     17  C   UNL     1       4.547  -6.820  26.746  0.00  0.00    +0.201 C 
BRANCH  17  18
ATOM     18  O   UNL     1       3.271  -7.485  26.632  0.00  0.00    -0.384 OA
ATOM     19  H   UNL     1       3.300  -8.046  25.828  0.00  0.00    +0.210 HD
ENDBRANCH  17  18
BRANCH  16  20
ATOM     20  O   UNL     1       6.527  -6.638  28.222  0.00  0.00    -0.386 OA
ATOM     21  H   UNL     1       6.455  -5.764  28.629  0.00  0.00    +0.210 HD
ENDBRANCH  16  20
BRANCH  15  22
ATOM     22  O   UNL     1       3.227  -7.744  29.367  0.00  0.00    -0.386 OA
ATOM     23  H   UNL     1       3.303  -8.194  30.233  0.00  0.00    +0.210 HD
ENDBRANCH  15  22
BRANCH  14  24
ATOM     24  C   UNL     1       4.592  -4.348  29.841  0.00  0.00    +0.190 C 
BRANCH  24  25
ATOM     25  O   UNL     1       5.719  -4.942  30.485  0.00  0.00    -0.392 OA
ATOM     26  H   UNL     1       6.072  -4.300  31.126  0.00  0.00    +0.210 HD
ENDBRANCH  24  25
ENDBRANCH  14  24
ENDBRANCH  11  12
ENDBRANCH   6  11
BRANCH   3  27
ATOM     27  C   UNL     1       9.790  -2.998  24.168  0.00  0.00    +0.190 C 
BRANCH  27  28
ATOM     28  O   UNL     1       9.788  -1.586  24.300  0.00  0.00    -0.392 OA
ATOM     29  H   UNL     1       9.083  -1.283  23.695  0.00  0.00    +0.210 HD
ENDBRANCH  27  28
ENDBRANCH   3  27
BRANCH   1  30
ATOM     30  O   UNL     1       6.740  -1.781  24.955  0.00  0.00    -0.453 OA
BRANCH  30  41
ATOM     31  C   UNL     1       6.460   0.621  25.337  0.00  0.00    +0.181 A 
ATOM     32  O   UNL     1       5.842   1.618  26.160  0.00  0.00    -0.451 OA
ATOM     33  C   UNL     1       4.986   1.206  27.181  0.00  0.00    +0.147 A 
ATOM     34  C   UNL     1       4.372  -0.036  27.145  0.00  0.00    +0.109 A 
ATOM     35  C   UNL     1       3.516  -0.496  28.157  0.00  0.00    +0.135 A 
ATOM     36  C   UNL     1       3.246   0.306  29.249  0.00  0.00    +0.091 A 
ATOM     37  C   UNL     1       3.828   1.572  29.292  0.00  0.00    +0.124 A 
ATOM     38  C   UNL     1       4.693  -0.865  26.014  0.00  0.00    +0.238 A 
ATOM     39  O   UNL     1       3.907  -1.728  25.646  0.00  0.00    -0.283 OA
ATOM     40  C   UNL     1       4.688   2.029  28.273  0.00  0.00    +0.092 A 
ATOM     41  C   UNL     1       6.042  -0.671  25.411  0.00  0.00    +0.214 A 
BRANCH  31  43
ATOM     42  C   UNL     1       8.770   1.718  24.912  0.00  0.00    +0.015 A 
ATOM     43  C   UNL     1       7.579   1.132  24.417  0.00  0.00    +0.025 A 
ATOM     44  C   UNL     1       7.466   1.146  23.007  0.00  0.00    +0.060 A 
ATOM     45  C   UNL     1       8.504   1.578  22.165  0.00  0.00    +0.159 A 
ATOM     46  C   UNL     1       9.659   2.137  22.687  0.00  0.00    +0.158 A 
ATOM     47  C   UNL     1       9.790   2.228  24.061  0.00  0.00    +0.050 A 
BRANCH  46  48
ATOM     48  O   UNL     1      10.593   2.589  21.795  0.00  0.00    -0.503 OA
ATOM     49  H   UNL     1      11.444   2.700  22.255  0.00  0.00    +0.292 HD
ENDBRANCH  46  48
BRANCH  45  50
ATOM     50  O   UNL     1       8.375   1.466  20.809  0.00  0.00    -0.503 OA
ATOM     51  H   UNL     1       7.419   1.307  20.657  0.00  0.00    +0.292 HD
ENDBRANCH  45  50
ENDBRANCH  31  43
BRANCH  37  52
ATOM     52  O   UNL     1       3.561   2.391  30.350  0.00  0.00    -0.507 OA
ATOM     53  H   UNL     1       3.580   1.857  31.166  0.00  0.00    +0.292 HD
ENDBRANCH  37  52
BRANCH  35  54
ATOM     54  O   UNL     1       2.930  -1.730  28.146  0.00  0.00    -0.506 OA
ATOM     55  H   UNL     1       2.174  -1.700  27.512  0.00  0.00    +0.292 HD
ENDBRANCH  35  54
ENDBRANCH  30  41
ENDBRANCH   1  30
TORSDOF 18
ENDMDL
MODEL 4
REMARK VINA RESULT:      -6.8      2.029      3.336
REMARK  Name = 
REMARK  18 active torsions:
REMARK  status: ('A' for Active; 'I' for Inactive)
REMARK    1  A    between atoms: C_3  and  O_54
REMARK    2  A    between atoms: C_4  and  O_53
REMARK    3  A    between atoms: C_6  and  C_7
REMARK    4  A    between atoms: C_8  and  O_20
REMARK    5  A    between atoms: C_12  and  O_19
REMARK    6  A    between atoms: C_14  and  O_18
REMARK    7  A    between atoms: O_20  and  C_21
REMARK    8  A    between atoms: C_23  and  O_36
REMARK    9  A    between atoms: C_25  and  O_35
REMARK   10  A    between atoms: C_27  and  O_34
REMARK   11  A    between atoms: C_29  and  C_32
REMARK   12  A    between atoms: C_32  and  O_33
REMARK   13  A    between atoms: O_36  and  C_37
REMARK   14  A    between atoms: C_39  and  O_52
REMARK   15  A    between atoms: C_41  and  O_51
REMARK   16  A    between atoms: C_43  and  O_50
REMARK   17  A    between atoms: C_45  and  C_48
REMARK   18  A    between atoms: C_48  and  O_49
REMARK                            x       y       z     vdW  Elec       q    Type
REMARK                         _______ _______ _______ _____ _____    ______ ____
ROOT
ATOM      1  C   UNL     1       7.402  -0.541  24.465  0.00  0.00    +0.340 C 
ATOM      2  O   UNL     1       6.900  -0.927  23.178  0.00  0.00    -0.331 OA
ATOM      3  C   UNL     1       7.740  -1.646  22.285  0.00  0.00    +0.179 C 
ATOM      4  C   UNL     1       9.137  -1.028  22.229  0.00  0.00    +0.177 C 
ATOM      5  C   UNL     1       9.777  -0.780  23.601  0.00  0.00    +0.180 C 
ATOM      6  C   UNL     1       8.883  -0.035  24.597  0.00  0.00    +0.221 C 
ENDROOT
BRANCH   5   7
ATOM      7  O   UNL     1      10.240  -2.014  24.164  0.00  0.00    -0.386 OA
ATOM      8  H   UNL     1       9.495  -2.447  24.641  0.00  0.00    +0.210 HD
ENDBRANCH   5   7
BRANCH   4   9
ATOM      9  O   UNL     1      10.018  -1.830  21.440  0.00  0.00    -0.386 OA
ATOM     10  H   UNL     1      10.911  -1.440  21.557  0.00  0.00    +0.210 HD
ENDBRANCH   4   9
BRANCH   6  11
ATOM     11  O   UNL     1       8.960   1.416  24.484  0.00  0.00    -0.337 OA
BRANCH  11  12
ATOM     12  C   UNL     1       7.793   2.149  24.929  0.00  0.00    +0.282 C 
ATOM     13  O   UNL     1       6.773   2.333  23.928  0.00  0.00    -0.341 OA
ATOM     14  C   UNL     1       7.072   3.150  22.775  0.00  0.00    +0.178 C 
ATOM     15  C   UNL     1       7.920   4.418  23.044  0.00  0.00    +0.177 C 
ATOM     16  C   UNL     1       8.927   4.236  24.187  0.00  0.00    +0.179 C 
ATOM     17  C   UNL     1       8.228   3.552  25.382  0.00  0.00    +0.201 C 
BRANCH  17  18
ATOM     18  O   UNL     1       7.112   4.352  25.825  0.00  0.00    -0.384 OA
ATOM     19  H   UNL     1       6.380   3.740  26.053  0.00  0.00    +0.210 HD
ENDBRANCH  17  18
BRANCH  16  20
ATOM     20  O   UNL     1      10.087   3.531  23.746  0.00  0.00    -0.386 OA
ATOM     21  H   UNL     1      10.660   3.348  24.504  0.00  0.00    +0.210 HD
ENDBRANCH  16  20
BRANCH  15  22
ATOM     22  O   UNL     1       7.036   5.518  23.338  0.00  0.00    -0.386 OA
ATOM     23  H   UNL     1       6.640   5.827  22.497  0.00  0.00    +0.210 HD
ENDBRANCH  15  22
BRANCH  14  24
ATOM     24  C   UNL     1       7.690   2.294  21.664  0.00  0.00    +0.190 C 
BRANCH  24  25
ATOM     25  O   UNL     1       9.099   2.490  21.546  0.00  0.00    -0.392 OA
ATOM     26  H   UNL     1       9.249   3.301  21.028  0.00  0.00    +0.210 HD
ENDBRANCH  24  25
ENDBRANCH  14  24
ENDBRANCH  11  12
ENDBRANCH   6  11
BRANCH   3  27
ATOM     27  C   UNL     1       7.660  -3.164  22.493  0.00  0.00    +0.190 C 
BRANCH  27  28
ATOM     28  O   UNL     1       8.022  -3.515  23.819  0.00  0.00    -0.392 OA
ATOM     29  H   UNL     1       8.006  -2.671  24.311  0.00  0.00    +0.210 HD
ENDBRANCH  27  28
ENDBRANCH   3  27
BRANCH   1  30
ATOM     30  O   UNL     1       7.183  -1.593  25.444  0.00  0.00    -0.453 OA
BRANCH  30  41
ATOM     31  C   UNL     1       4.960  -2.172  26.290  0.00  0.00    +0.181 A 
ATOM     32  O   UNL     1       3.760  -1.669  26.892  0.00  0.00    -0.451 OA
ATOM     33  C   UNL     1       3.701  -0.317  27.235  0.00  0.00    +0.147 A 
ATOM     34  C   UNL     1       4.856   0.423  27.435  0.00  0.00    +0.109 A 
ATOM     35  C   UNL     1       4.842   1.786  27.768  0.00  0.00    +0.135 A 
ATOM     36  C   UNL     1       3.637   2.447  27.915  0.00  0.00    +0.091 A 
ATOM     37  C   UNL     1       2.463   1.716  27.747  0.00  0.00    +0.124 A 
ATOM     38  C   UNL     1       6.096  -0.280  27.246  0.00  0.00    +0.238 A 
ATOM     39  O   UNL     1       7.109   0.104  27.815  0.00  0.00    -0.283 OA
ATOM     40  C   UNL     1       2.482   0.346  27.414  0.00  0.00    +0.092 A 
ATOM     41  C   UNL     1       6.079  -1.401  26.265  0.00  0.00    +0.214 A 
BRANCH  31  43
ATOM     42  C   UNL     1       5.286  -4.741  26.409  0.00  0.00    +0.015 A 
ATOM     43  C   UNL     1       4.854  -3.589  25.707  0.00  0.00    +0.025 A 
ATOM     44  C   UNL     1       4.408  -3.845  24.388  0.00  0.00    +0.060 A 
ATOM     45  C   UNL     1       4.277  -5.143  23.868  0.00  0.00    +0.159 A 
ATOM     46  C   UNL     1       4.702  -6.246  24.590  0.00  0.00    +0.158 A 
ATOM     47  C   UNL     1       5.226  -6.051  25.855  0.00  0.00    +0.050 A 
BRANCH  46  48
ATOM     48  O   UNL     1       4.593  -7.469  23.984  0.00  0.00    -0.503 OA
ATOM     49  H   UNL     1       5.474  -7.753  23.682  0.00  0.00    +0.292 HD
ENDBRANCH  46  48
BRANCH  45  50
ATOM     50  O   UNL     1       3.738  -5.329  22.626  0.00  0.00    -0.503 OA
ATOM     51  H   UNL     1       3.908  -6.272  22.414  0.00  0.00    +0.292 HD
ENDBRANCH  45  50
ENDBRANCH  31  43
BRANCH  37  52
ATOM     52  O   UNL     1       1.261   2.341  27.908  0.00  0.00    -0.507 OA
ATOM     53  H   UNL     1       0.563   1.661  27.948  0.00  0.00    +0.292 HD
ENDBRANCH  37  52
BRANCH  35  54
ATOM     54  O   UNL     1       5.972   2.532  27.938  0.00  0.00    -0.506 OA
ATOM     55  H   UNL     1       6.205   2.514  28.898  0.00  0.00    +0.292 HD
ENDBRANCH  35  54
ENDBRANCH  30  41
ENDBRANCH   1  30
TORSDOF 18
ENDMDL
MODEL 5
REMARK VINA RESULT:      -6.7      1.908      8.616
REMARK  Name = 
REMARK  18 active torsions:
REMARK  status: ('A' for Active; 'I' for Inactive)
REMARK    1  A    between atoms: C_3  and  O_54
REMARK    2  A    between atoms: C_4  and  O_53
REMARK    3  A    between atoms: C_6  and  C_7
REMARK    4  A    between atoms: C_8  and  O_20
REMARK    5  A    between atoms: C_12  and  O_19
REMARK    6  A    between atoms: C_14  and  O_18
REMARK    7  A    between atoms: O_20  and  C_21
REMARK    8  A    between atoms: C_23  and  O_36
REMARK    9  A    between atoms: C_25  and  O_35
REMARK   10  A    between atoms: C_27  and  O_34
REMARK   11  A    between atoms: C_29  and  C_32
REMARK   12  A    between atoms: C_32  and  O_33
REMARK   13  A    between atoms: O_36  and  C_37
REMARK   14  A    between atoms: C_39  and  O_52
REMARK   15  A    between atoms: C_41  and  O_51
REMARK   16  A    between atoms: C_43  and  O_50
REMARK   17  A    between atoms: C_45  and  C_48
REMARK   18  A    between atoms: C_48  and  O_49
REMARK                            x       y       z     vdW  Elec       q    Type
REMARK                         _______ _______ _______ _____ _____    ______ ____
ROOT
ATOM      1  C   UNL     1       5.799  -0.824  26.160  0.00  0.00    +0.340 C 
ATOM      2  O   UNL     1       5.533   0.305  25.313  0.00  0.00    -0.331 OA
ATOM      3  C   UNL     1       5.616   1.618  25.850  0.00  0.00    +0.179 C 
ATOM      4  C   UNL     1       4.916   1.701  27.206  0.00  0.00    +0.177 C 
ATOM      5  C   UNL     1       5.328   0.609  28.202  0.00  0.00    +0.180 C 
ATOM      6  C   UNL     1       5.282  -0.815  27.642  0.00  0.00    +0.221 C 
ENDROOT
BRANCH   5   7
ATOM      7  O   UNL     1       6.624   0.895  28.744  0.00  0.00    -0.386 OA
ATOM      8  H   UNL     1       6.818   1.853  28.623  0.00  0.00    +0.210 HD
ENDBRANCH   5   7
BRANCH   4   9
ATOM      9  O   UNL     1       5.118   2.982  27.806  0.00  0.00    -0.386 OA
ATOM     10  H   UNL     1       4.263   3.217  28.227  0.00  0.00    +0.210 HD
ENDBRANCH   4   9
BRANCH   6  11
ATOM     11  O   UNL     1       3.972  -1.446  27.750  0.00  0.00    -0.337 OA
BRANCH  11  12
ATOM     12  C   UNL     1       3.659  -2.436  26.741  0.00  0.00    +0.282 C 
ATOM     13  O   UNL     1       2.478  -2.158  25.964  0.00  0.00    -0.341 OA
ATOM     14  C   UNL     1       1.194  -2.164  26.627  0.00  0.00    +0.178 C 
ATOM     15  C   UNL     1       0.992  -3.259  27.703  0.00  0.00    +0.177 C 
ATOM     16  C   UNL     1       2.287  -3.618  28.446  0.00  0.00    +0.179 C 
ATOM     17  C   UNL     1       3.432  -3.793  27.424  0.00  0.00    +0.201 C 
BRANCH  17  18
ATOM     18  O   UNL     1       3.096  -4.831  26.479  0.00  0.00    -0.384 OA
ATOM     19  H   UNL     1       2.898  -4.398  25.622  0.00  0.00    +0.210 HD
ENDBRANCH  17  18
BRANCH  16  20
ATOM     20  O   UNL     1       2.586  -2.655  29.456  0.00  0.00    -0.386 OA
ATOM     21  H   UNL     1       3.448  -2.256  29.273  0.00  0.00    +0.210 HD
ENDBRANCH  16  20
BRANCH  15  22
ATOM     22  O   UNL     1       0.443  -4.435  27.075  0.00  0.00    -0.386 OA
ATOM     23  H   UNL     1       1.185  -5.013  26.803  0.00  0.00    +0.210 HD
ENDBRANCH  15  22
BRANCH  14  24
ATOM     24  C   UNL     1       0.880  -0.772  27.186  0.00  0.00    +0.190 C 
BRANCH  24  25
ATOM     25  O   UNL     1       1.731   0.238  26.644  0.00  0.00    -0.392 OA
ATOM     26  H   UNL     1       1.950   0.862  27.359  0.00  0.00    +0.210 HD
ENDBRANCH  24  25
ENDBRANCH  14  24
ENDBRANCH  11  12
ENDBRANCH   6  11
BRANCH   3  27
ATOM     27  C   UNL     1       7.031   2.202  25.761  0.00  0.00    +0.190 C 
BRANCH  27  28
ATOM     28  O   UNL     1       7.949   1.431  26.518  0.00  0.00    -0.392 OA
ATOM     29  H   UNL     1       7.393   0.783  26.994  0.00  0.00    +0.210 HD
ENDBRANCH  27  28
ENDBRANCH   3  27
BRANCH   1  30
ATOM     30  O   UNL     1       7.217  -1.144  26.165  0.00  0.00    -0.453 OA
BRANCH  30  41
ATOM     31  C   UNL     1       8.243  -1.774  24.033  0.00  0.00    +0.181 A 
ATOM     32  O   UNL     1       8.256  -2.735  22.971  0.00  0.00    -0.451 OA
ATOM     33  C   UNL     1       7.425  -3.853  23.070  0.00  0.00    +0.147 A 
ATOM     34  C   UNL     1       6.956  -4.290  24.299  0.00  0.00    +0.109 A 
ATOM     35  C   UNL     1       6.108  -5.399  24.442  0.00  0.00    +0.135 A 
ATOM     36  C   UNL     1       5.711  -6.112  23.327  0.00  0.00    +0.091 A 
ATOM     37  C   UNL     1       6.196  -5.709  22.084  0.00  0.00    +0.124 A 
ATOM     38  C   UNL     1       7.357  -3.512  25.440  0.00  0.00    +0.238 A 
ATOM     39  O   UNL     1       7.399  -4.030  26.548  0.00  0.00    -0.283 OA
ATOM     40  C   UNL     1       7.047  -4.594  21.945  0.00  0.00    +0.092 A 
ATOM     41  C   UNL     1       7.607  -2.063  25.200  0.00  0.00    +0.214 A 
BRANCH  31  43
ATOM     42  C   UNL     1      10.135  -0.048  24.438  0.00  0.00    +0.015 A 
ATOM     43  C   UNL     1       8.976  -0.458  23.734  0.00  0.00    +0.025 A 
ATOM     44  C   UNL     1       8.497   0.492  22.800  0.00  0.00    +0.060 A 
ATOM     45  C   UNL     1       9.187   1.677  22.499  0.00  0.00    +0.159 A 
ATOM     46  C   UNL     1      10.324   2.039  23.205  0.00  0.00    +0.158 A 
ATOM     47  C   UNL     1      10.792   1.190  24.190  0.00  0.00    +0.050 A 
BRANCH  46  48
ATOM     48  O   UNL     1      10.899   3.240  22.888  0.00  0.00    -0.503 OA
ATOM     49  H   UNL     1      11.771   3.078  22.487  0.00  0.00    +0.292 HD
ENDBRANCH  46  48
BRANCH  45  50
ATOM     50  O   UNL     1       8.729   2.502  21.510  0.00  0.00    -0.503 OA
ATOM     51  H   UNL     1       8.069   3.080  21.947  0.00  0.00    +0.292 HD
ENDBRANCH  45  50
ENDBRANCH  31  43
BRANCH  37  52
ATOM     52  O   UNL     1       5.836  -6.410  20.970  0.00  0.00    -0.507 OA
ATOM     53  H   UNL     1       6.622  -6.509  20.401  0.00  0.00    +0.292 HD
ENDBRANCH  37  52
BRANCH  35  54
ATOM     54  O   UNL     1       5.615  -5.820  25.644  0.00  0.00    -0.506 OA
ATOM     55  H   UNL     1       5.413  -6.784  25.566  0.00  0.00    +0.292 HD
ENDBRANCH  35  54
ENDBRANCH  30  41
ENDBRANCH   1  30
TORSDOF 18
ENDMDL
MODEL 6
REMARK VINA RESULT:      -6.7      1.960      6.589
REMARK  Name = 
REMARK  18 active torsions:
REMARK  status: ('A' for Active; 'I' for Inactive)
REMARK    1  A    between atoms: C_3  and  O_54
REMARK    2  A    between atoms: C_4  and  O_53
REMARK    3  A    between atoms: C_6  and  C_7
REMARK    4  A    between atoms: C_8  and  O_20
REMARK    5  A    between atoms: C_12  and  O_19
REMARK    6  A    between atoms: C_14  and  O_18
REMARK    7  A    between atoms: O_20  and  C_21
REMARK    8  A    between atoms: C_23  and  O_36
REMARK    9  A    between atoms: C_25  and  O_35
REMARK   10  A    between atoms: C_27  and  O_34
REMARK   11  A    between atoms: C_29  and  C_32
REMARK   12  A    between atoms: C_32  and  O_33
REMARK   13  A    between atoms: O_36  and  C_37
REMARK   14  A    between atoms: C_39  and  O_52
REMARK   15  A    between atoms: C_41  and  O_51
REMARK   16  A    between atoms: C_43  and  O_50
REMARK   17  A    between atoms: C_45  and  C_48
REMARK   18  A    between atoms: C_48  and  O_49
REMARK                            x       y       z     vdW  Elec       q    Type
REMARK                         _______ _______ _______ _____ _____    ______ ____
ROOT
ATOM      1  C   UNL     1       5.877  -0.592  25.822  0.00  0.00    +0.340 C 
ATOM      2  O   UNL     1       5.801  -0.371  27.238  0.00  0.00    -0.331 OA
ATOM      3  C   UNL     1       5.028   0.711  27.738  0.00  0.00    +0.179 C 
ATOM      4  C   UNL     1       5.291   1.987  26.941  0.00  0.00    +0.177 C 
ATOM      5  C   UNL     1       5.189   1.818  25.419  0.00  0.00    +0.180 C 
ATOM      6  C   UNL     1       5.986   0.639  24.854  0.00  0.00    +0.221 C 
ENDROOT
BRANCH   5   7
ATOM      7  O   UNL     1       3.815   1.736  25.019  0.00  0.00    -0.386 OA
ATOM      8  H   UNL     1       3.599   2.516  24.457  0.00  0.00    +0.210 HD
ENDBRANCH   5   7
BRANCH   4   9
ATOM      9  O   UNL     1       4.414   3.037  27.354  0.00  0.00    -0.386 OA
ATOM     10  H   UNL     1       3.533   2.619  27.466  0.00  0.00    +0.210 HD
ENDBRANCH   4   9
BRANCH   6  11
ATOM     11  O   UNL     1       7.377   0.958  24.557  0.00  0.00    -0.337 OA
BRANCH  11  12
ATOM     12  C   UNL     1       7.628   1.564  23.267  0.00  0.00    +0.282 C 
ATOM     13  O   UNL     1       8.893   1.220  22.669  0.00  0.00    -0.341 OA
ATOM     14  C   UNL     1      10.108   1.660  23.315  0.00  0.00    +0.178 C 
ATOM     15  C   UNL     1      10.072   3.082  23.929  0.00  0.00    +0.177 C 
ATOM     16  C   UNL     1       8.687   3.471  24.463  0.00  0.00    +0.179 C 
ATOM     17  C   UNL     1       7.612   3.093  23.421  0.00  0.00    +0.201 C 
BRANCH  17  18
ATOM     18  O   UNL     1       7.873   3.771  22.174  0.00  0.00    -0.384 OA
ATOM     19  H   UNL     1       7.501   4.675  22.245  0.00  0.00    +0.210 HD
ENDBRANCH  17  18
BRANCH  16  20
ATOM     20  O   UNL     1       8.446   2.891  25.745  0.00  0.00    -0.386 OA
ATOM     21  H   UNL     1       9.003   3.327  26.405  0.00  0.00    +0.210 HD
ENDBRANCH  16  20
BRANCH  15  22
ATOM     22  O   UNL     1      10.501   4.032  22.933  0.00  0.00    -0.386 OA
ATOM     23  H   UNL     1      11.232   3.631  22.420  0.00  0.00    +0.210 HD
ENDBRANCH  15  22
BRANCH  14  24
ATOM     24  C   UNL     1      10.567   0.622  24.344  0.00  0.00    +0.190 C 
BRANCH  24  25
ATOM     25  O   UNL     1       9.867   0.736  25.583  0.00  0.00    -0.392 OA
ATOM     26  H   UNL     1       9.910  -0.127  26.033  0.00  0.00    +0.210 HD
ENDBRANCH  24  25
ENDBRANCH  14  24
ENDBRANCH  11  12
ENDBRANCH   6  11
BRANCH   3  27
ATOM     27  C   UNL     1       3.562   0.328  27.973  0.00  0.00    +0.190 C 
BRANCH  27  28
ATOM     28  O   UNL     1       2.965  -0.158  26.781  0.00  0.00    -0.392 OA
ATOM     29  H   UNL     1       2.077  -0.459  27.055  0.00  0.00    +0.210 HD
ENDBRANCH  27  28
ENDBRANCH   3  27
BRANCH   1  30
ATOM     30  O   UNL     1       4.786  -1.442  25.371  0.00  0.00    -0.453 OA
BRANCH  30  41
ATOM     31  C   UNL     1       5.862  -3.551  24.750  0.00  0.00    +0.181 A 
ATOM     32  O   UNL     1       5.736  -4.979  24.739  0.00  0.00    -0.451 OA
ATOM     33  C   UNL     1       4.609  -5.555  25.325  0.00  0.00    +0.147 A 
ATOM     34  C   UNL     1       3.869  -4.874  26.279  0.00  0.00    +0.109 A 
ATOM     35  C   UNL     1       2.722  -5.411  26.883  0.00  0.00    +0.135 A 
ATOM     36  C   UNL     1       2.289  -6.677  26.538  0.00  0.00    +0.091 A 
ATOM     37  C   UNL     1       3.035  -7.393  25.604  0.00  0.00    +0.124 A 
ATOM     38  C   UNL     1       4.322  -3.547  26.598  0.00  0.00    +0.238 A 
ATOM     39  O   UNL     1       4.059  -3.058  27.688  0.00  0.00    -0.283 OA
ATOM     40  C   UNL     1       4.187  -6.849  24.999  0.00  0.00    +0.092 A 
ATOM     41  C   UNL     1       5.017  -2.804  25.510  0.00  0.00    +0.214 A 
BRANCH  31  43
ATOM     42  C   UNL     1       6.729  -2.279  22.664  0.00  0.00    +0.015 A 
ATOM     43  C   UNL     1       6.983  -2.985  23.866  0.00  0.00    +0.025 A 
ATOM     44  C   UNL     1       8.355  -3.209  24.130  0.00  0.00    +0.060 A 
ATOM     45  C   UNL     1       9.380  -2.661  23.342  0.00  0.00    +0.159 A 
ATOM     46  C   UNL     1       9.091  -1.967  22.178  0.00  0.00    +0.158 A 
ATOM     47  C   UNL     1       7.767  -1.789  21.822  0.00  0.00    +0.050 A 
BRANCH  46  48
ATOM     48  O   UNL     1      10.152  -1.519  21.438  0.00  0.00    -0.503 OA
ATOM     49  H   UNL     1       9.973  -1.683  20.495  0.00  0.00    +0.292 HD
ENDBRANCH  46  48
BRANCH  45  50
ATOM     50  O   UNL     1      10.686  -2.823  23.711  0.00  0.00    -0.503 OA
ATOM     51  H   UNL     1      10.685  -2.754  24.689  0.00  0.00    +0.292 HD
ENDBRANCH  45  50
ENDBRANCH  31  43
BRANCH  37  52
ATOM     52  O   UNL     1       2.641  -8.653  25.261  0.00  0.00    -0.507 OA
ATOM     53  H   UNL     1       3.367  -9.081  24.771  0.00  0.00    +0.292 HD
ENDBRANCH  37  52
BRANCH  35  54
ATOM     54  O   UNL     1       1.968  -4.737  27.801  0.00  0.00    -0.506 OA
ATOM     55  H   UNL     1       1.437  -5.402  28.303  0.00  0.00    +0.292 HD
ENDBRANCH  35  54
ENDBRANCH  30  41
ENDBRANCH   1  30
TORSDOF 18
ENDMDL
MODEL 7
REMARK VINA RESULT:      -6.6      2.478      5.390
REMARK  Name = 
REMARK  18 active torsions:
REMARK  status: ('A' for Active; 'I' for Inactive)
REMARK    1  A    between atoms: C_3  and  O_54
REMARK    2  A    between atoms: C_4  and  O_53
REMARK    3  A    between atoms: C_6  and  C_7
REMARK    4  A    between atoms: C_8  and  O_20
REMARK    5  A    between atoms: C_12  and  O_19
REMARK    6  A    between atoms: C_14  and  O_18
REMARK    7  A    between atoms: O_20  and  C_21
REMARK    8  A    between atoms: C_23  and  O_36
REMARK    9  A    between atoms: C_25  and  O_35
REMARK   10  A    between atoms: C_27  and  O_34
REMARK   11  A    between atoms: C_29  and  C_32
REMARK   12  A    between atoms: C_32  and  O_33
REMARK   13  A    between atoms: O_36  and  C_37
REMARK   14  A    between atoms: C_39  and  O_52
REMARK   15  A    between atoms: C_41  and  O_51
REMARK   16  A    between atoms: C_43  and  O_50
REMARK   17  A    between atoms: C_45  and  C_48
REMARK   18  A    between atoms: C_48  and  O_49
REMARK                            x       y       z     vdW  Elec       q    Type
REMARK                         _______ _______ _______ _____ _____    ______ ____
ROOT
ATOM      1  C   UNL     1       7.524   0.581  24.007  0.00  0.00    +0.340 C 
ATOM      2  O   UNL     1       7.565   0.305  22.599  0.00  0.00    -0.331 OA
ATOM      3  C   UNL     1       8.722   0.650  21.851  0.00  0.00    +0.179 C 
ATOM      4  C   UNL     1       9.205   2.056  22.205  0.00  0.00    +0.177 C 
ATOM      5  C   UNL     1       9.353   2.317  23.709  0.00  0.00    +0.180 C 
ATOM      6  C   UNL     1       8.133   1.924  24.548  0.00  0.00    +0.221 C 
ENDROOT
BRANCH   5   7
ATOM      7  O   UNL     1      10.535   1.680  24.211  0.00  0.00    -0.386 OA
ATOM      8  H   UNL     1      10.328   0.739  24.416  0.00  0.00    +0.210 HD
ENDBRANCH   5   7
BRANCH   4   9
ATOM      9  O   UNL     1      10.444   2.348  21.556  0.00  0.00    -0.386 OA
ATOM     10  H   UNL     1      10.428   1.847  20.712  0.00  0.00    +0.210 HD
ENDBRANCH   4   9
BRANCH   6  11
ATOM     11  O   UNL     1       7.120   2.968  24.636  0.00  0.00    -0.337 OA
BRANCH  11  12
ATOM     12  C   UNL     1       6.045   2.732  25.577  0.00  0.00    +0.282 C 
ATOM     13  O   UNL     1       4.758   2.483  24.980  0.00  0.00    -0.341 OA
ATOM     14  C   UNL     1       4.120   3.548  24.239  0.00  0.00    +0.178 C 
ATOM     15  C   UNL     1       4.269   4.970  24.833  0.00  0.00    +0.177 C 
ATOM     16  C   UNL     1       5.605   5.180  25.559  0.00  0.00    +0.179 C 
ATOM     17  C   UNL     1       5.886   3.969  26.475  0.00  0.00    +0.201 C 
BRANCH  17  18
ATOM     18  O   UNL     1       4.817   3.815  27.432  0.00  0.00    -0.384 OA
ATOM     19  H   UNL     1       3.977   3.751  26.931  0.00  0.00    +0.210 HD
ENDBRANCH  17  18
BRANCH  16  20
ATOM     20  O   UNL     1       6.662   5.434  24.635  0.00  0.00    -0.386 OA
ATOM     21  H   UNL     1       6.912   6.367  24.680  0.00  0.00    +0.210 HD
ENDBRANCH  16  20
BRANCH  15  22
ATOM     22  O   UNL     1       3.174   5.218  25.736  0.00  0.00    -0.386 OA
ATOM     23  H   UNL     1       3.190   4.533  26.435  0.00  0.00    +0.210 HD
ENDBRANCH  15  22
BRANCH  14  24
ATOM     24  C   UNL     1       4.557   3.509  22.772  0.00  0.00    +0.190 C 
BRANCH  24  25
ATOM     25  O   UNL     1       5.195   2.280  22.426  0.00  0.00    -0.392 OA
ATOM     26  H   UNL     1       4.682   1.552  22.820  0.00  0.00    +0.210 HD
ENDBRANCH  24  25
ENDBRANCH  14  24
ENDBRANCH  11  12
ENDBRANCH   6  11
BRANCH   3  27
ATOM     27  C   UNL     1       9.775  -0.466  21.846  0.00  0.00    +0.190 C 
BRANCH  27  28
ATOM     28  O   UNL     1       9.182  -1.727  22.111  0.00  0.00    -0.392 OA
ATOM     29  H   UNL     1       8.220  -1.559  22.076  0.00  0.00    +0.210 HD
ENDBRANCH  27  28
ENDBRANCH   3  27
BRANCH   1  30
ATOM     30  O   UNL     1       8.085  -0.523  24.769  0.00  0.00    -0.453 OA
BRANCH  30  41
ATOM     31  C   UNL     1       6.430  -2.183  25.473  0.00  0.00    +0.181 A 
ATOM     32  O   UNL     1       5.323  -2.446  26.345  0.00  0.00    -0.451 OA
ATOM     33  C   UNL     1       4.938  -1.459  27.253  0.00  0.00    +0.147 A 
ATOM     34  C   UNL     1       5.821  -0.468  27.652  0.00  0.00    +0.109 A 
ATOM     35  C   UNL     1       5.471   0.550  28.552  0.00  0.00    +0.135 A 
ATOM     36  C   UNL     1       4.198   0.590  29.087  0.00  0.00    +0.091 A 
ATOM     37  C   UNL     1       3.302  -0.414  28.724  0.00  0.00    +0.124 A 
ATOM     38  C   UNL     1       7.129  -0.513  27.057  0.00  0.00    +0.238 A 
ATOM     39  O   UNL     1       8.083  -0.016  27.641  0.00  0.00    -0.283 OA
ATOM     40  C   UNL     1       3.658  -1.435  27.819  0.00  0.00    +0.092 A 
ATOM     41  C   UNL     1       7.216  -1.094  25.688  0.00  0.00    +0.214 A 
BRANCH  31  43
ATOM     42  C   UNL     1       7.438  -4.350  24.469  0.00  0.00    +0.015 A 
ATOM     43  C   UNL     1       6.625  -3.198  24.337  0.00  0.00    +0.025 A 
ATOM     44  C   UNL     1       6.086  -3.011  23.042  0.00  0.00    +0.060 A 
ATOM     45  C   UNL     1       6.233  -3.957  22.014  0.00  0.00    +0.159 A 
ATOM     46  C   UNL     1       7.029  -5.077  22.185  0.00  0.00    +0.158 A 
ATOM     47  C   UNL     1       7.651  -5.270  23.405  0.00  0.00    +0.050 A 
BRANCH  46  48
ATOM     48  O   UNL     1       7.166  -5.916  21.111  0.00  0.00    -0.503 OA
ATOM     49  H   UNL     1       7.114  -6.837  21.420  0.00  0.00    +0.292 HD
ENDBRANCH  46  48
BRANCH  45  50
ATOM     50  O   UNL     1       5.599  -3.769  20.818  0.00  0.00    -0.503 OA
ATOM     51  H   UNL     1       5.944  -2.917  20.478  0.00  0.00    +0.292 HD
ENDBRANCH  45  50
ENDBRANCH  31  43
BRANCH  37  52
ATOM     52  O   UNL     1       2.045  -0.410  29.255  0.00  0.00    -0.507 OA
ATOM     53  H   UNL     1       1.994  -1.111  29.931  0.00  0.00    +0.292 HD
ENDBRANCH  37  52
BRANCH  35  54
ATOM     54  O   UNL     1       6.322   1.549  28.929  0.00  0.00    -0.506 OA
ATOM     55  H   UNL     1       7.232   1.168  28.978  0.00  0.00    +0.292 HD
ENDBRANCH  35  54
ENDBRANCH  30  41
ENDBRANCH   1  30
TORSDOF 18
ENDMDL
MODEL 8
REMARK VINA RESULT:      -6.6      2.178      7.283
REMARK  Name = 
REMARK  18 active torsions:
REMARK  status: ('A' for Active; 'I' for Inactive)
REMARK    1  A    between atoms: C_3  and  O_54
REMARK    2  A    between atoms: C_4  and  O_53
REMARK    3  A    between atoms: C_6  and  C_7
REMARK    4  A    between atoms: C_8  and  O_20
REMARK    5  A    between atoms: C_12  and  O_19
REMARK    6  A    between atoms: C_14  and  O_18
REMARK    7  A    between atoms: O_20  and  C_21
REMARK    8  A    between atoms: C_23  and  O_36
REMARK    9  A    between atoms: C_25  and  O_35
REMARK   10  A    between atoms: C_27  and  O_34
REMARK   11  A    between atoms: C_29  and  C_32
REMARK   12  A    between atoms: C_32  and  O_33
REMARK   13  A    between atoms: O_36  and  C_37
REMARK   14  A    between atoms: C_39  and  O_52
REMARK   15  A    between atoms: C_41  and  O_51
REMARK   16  A    between atoms: C_43  and  O_50
REMARK   17  A    between atoms: C_45  and  C_48
REMARK   18  A    between atoms: C_48  and  O_49
REMARK                            x       y       z     vdW  Elec       q    Type
REMARK                         _______ _______ _______ _____ _____    ______ ____
ROOT
ATOM      1  C   UNL     1       4.608  -2.062  25.581  0.00  0.00    +0.340 C 
ATOM      2  O   UNL     1       3.818  -1.069  26.251  0.00  0.00    -0.331 OA
ATOM      3  C   UNL     1       3.542  -1.212  27.637  0.00  0.00    +0.179 C 
ATOM      4  C   UNL     1       3.122  -2.643  27.969  0.00  0.00    +0.177 C 
ATOM      5  C   UNL     1       4.063  -3.724  27.421  0.00  0.00    +0.180 C 
ATOM      6  C   UNL     1       4.405  -3.578  25.935  0.00  0.00    +0.221 C 
ENDROOT
BRANCH   5   7
ATOM      7  O   UNL     1       5.258  -3.789  28.209  0.00  0.00    -0.386 OA
ATOM      8  H   UNL     1       5.433  -4.729  28.448  0.00  0.00    +0.210 HD
ENDBRANCH   5   7
BRANCH   4   9
ATOM      9  O   UNL     1       2.980  -2.819  29.380  0.00  0.00    -0.386 OA
ATOM     10  H   UNL     1       3.819  -2.498  29.775  0.00  0.00    +0.210 HD
ENDBRANCH   4   9
BRANCH   6  11
ATOM     11  O   UNL     1       3.437  -4.206  25.045  0.00  0.00    -0.337 OA
BRANCH  11  12
ATOM     12  C   UNL     1       3.975  -5.142  24.081  0.00  0.00    +0.282 C 
ATOM     13  O   UNL     1       3.173  -5.324  22.898  0.00  0.00    -0.341 OA
ATOM     14  C   UNL     1       1.869  -5.931  23.031  0.00  0.00    +0.178 C 
ATOM     15  C   UNL     1       1.765  -7.099  24.042  0.00  0.00    +0.177 C 
ATOM     16  C   UNL     1       2.707  -6.939  25.243  0.00  0.00    +0.179 C 
ATOM     17  C   UNL     1       4.107  -6.522  24.744  0.00  0.00    +0.201 C 
BRANCH  17  18
ATOM     18  O   UNL     1       4.624  -7.517  23.835  0.00  0.00    -0.384 OA
ATOM     19  H   UNL     1       4.509  -7.174  22.923  0.00  0.00    +0.210 HD
ENDBRANCH  17  18
BRANCH  16  20
ATOM     20  O   UNL     1       2.169  -6.033  26.205  0.00  0.00    -0.386 OA
ATOM     21  H   UNL     1       2.718  -6.045  27.001  0.00  0.00    +0.210 HD
ENDBRANCH  16  20
BRANCH  15  22
ATOM     22  O   UNL     1       2.044  -8.337  23.359  0.00  0.00    -0.386 OA
ATOM     23  H   UNL     1       2.541  -8.130  22.541  0.00  0.00    +0.210 HD
ENDBRANCH  15  22
BRANCH  14  24
ATOM     24  C   UNL     1       0.811  -4.858  23.310  0.00  0.00    +0.190 C 
BRANCH  24  25
ATOM     25  O   UNL     1       0.462  -4.783  24.692  0.00  0.00    -0.392 OA
ATOM     26  H   UNL     1       0.962  -4.047  25.088  0.00  0.00    +0.210 HD
ENDBRANCH  24  25
ENDBRANCH  14  24
ENDBRANCH  11  12
ENDBRANCH   6  11
BRANCH   3  27
ATOM     27  C   UNL     1       4.627  -0.584  28.521  0.00  0.00    +0.190 C 
BRANCH  27  28
ATOM     28  O   UNL     1       5.491   0.242  27.758  0.00  0.00    -0.392 OA
ATOM     29  H   UNL     1       4.920   0.616  27.058  0.00  0.00    +0.210 HD
ENDBRANCH  27  28
ENDBRANCH   3  27
BRANCH   1  30
ATOM     30  O   UNL     1       6.025  -1.748  25.677  0.00  0.00    -0.453 OA
BRANCH  30  41
ATOM     31  C   UNL     1       7.152  -1.603  23.510  0.00  0.00    +0.181 A 
ATOM     32  O   UNL     1       7.960  -0.783  22.655  0.00  0.00    -0.451 OA
ATOM     33  C   UNL     1       8.284   0.507  23.076  0.00  0.00    +0.147 A 
ATOM     34  C   UNL     1       7.517   1.165  24.025  0.00  0.00    +0.109 A 
ATOM     35  C   UNL     1       7.815   2.456  24.487  0.00  0.00    +0.135 A 
ATOM     36  C   UNL     1       8.913   3.130  23.988  0.00  0.00    +0.091 A 
ATOM     37  C   UNL     1       9.681   2.500  23.011  0.00  0.00    +0.124 A 
ATOM     38  C   UNL     1       6.399   0.430  24.552  0.00  0.00    +0.238 A 
ATOM     39  O   UNL     1       5.435   1.029  25.010  0.00  0.00    -0.283 OA
ATOM     40  C   UNL     1       9.378   1.203  22.550  0.00  0.00    +0.092 A 
ATOM     41  C   UNL     1       6.539  -1.053  24.592  0.00  0.00    +0.214 A 
BRANCH  31  43
ATOM     42  C   UNL     1       7.634  -4.125  23.868  0.00  0.00    +0.015 A 
ATOM     43  C   UNL     1       7.059  -3.080  23.102  0.00  0.00    +0.025 A 
ATOM     44  C   UNL     1       6.479  -3.505  21.884  0.00  0.00    +0.060 A 
ATOM     45  C   UNL     1       6.361  -4.859  21.529  0.00  0.00    +0.159 A 
ATOM     46  C   UNL     1       6.928  -5.853  22.310  0.00  0.00    +0.158 A 
ATOM     47  C   UNL     1       7.583  -5.491  23.472  0.00  0.00    +0.050 A 
BRANCH  46  48
ATOM     48  O   UNL     1       6.818  -7.141  21.859  0.00  0.00    -0.503 OA
ATOM     49  H   UNL     1       6.248  -7.152  21.069  0.00  0.00    +0.292 HD
ENDBRANCH  46  48
BRANCH  45  50
ATOM     50  O   UNL     1       5.693  -5.210  20.389  0.00  0.00    -0.503 OA
ATOM     51  H   UNL     1       5.464  -4.361  19.956  0.00  0.00    +0.292 HD
ENDBRANCH  45  50
ENDBRANCH  31  43
BRANCH  37  52
ATOM     52  O   UNL     1      10.758   3.153  22.486  0.00  0.00    -0.507 OA
ATOM     53  H   UNL     1      11.207   2.555  21.860  0.00  0.00    +0.292 HD
ENDBRANCH  37  52
BRANCH  35  54
ATOM     54  O   UNL     1       7.085   3.102  25.444  0.00  0.00    -0.506 OA
ATOM     55  H   UNL     1       6.931   4.026  25.132  0.00  0.00    +0.292 HD
ENDBRANCH  35  54
ENDBRANCH  30  41
ENDBRANCH   1  30
TORSDOF 18
ENDMDL
MODEL 9
REMARK VINA RESULT:      -6.5      2.429      6.700
REMARK  Name = 
REMARK  18 active torsions:
REMARK  status: ('A' for Active; 'I' for Inactive)
REMARK    1  A    between atoms: C_3  and  O_54
REMARK    2  A    between atoms: C_4  and  O_53
REMARK    3  A    between atoms: C_6  and  C_7
REMARK    4  A    between atoms: C_8  and  O_20
REMARK    5  A    between atoms: C_12  and  O_19
REMARK    6  A    between atoms: C_14  and  O_18
REMARK    7  A    between atoms: O_20  and  C_21
REMARK    8  A    between atoms: C_23  and  O_36
REMARK    9  A    between atoms: C_25  and  O_35
REMARK   10  A    between atoms: C_27  and  O_34
REMARK   11  A    between atoms: C_29  and  C_32
REMARK   12  A    between atoms: C_32  and  O_33
REMARK   13  A    between atoms: O_36  and  C_37
REMARK   14  A    between atoms: C_39  and  O_52
REMARK   15  A    between atoms: C_41  and  O_51
REMARK   16  A    between atoms: C_43  and  O_50
REMARK   17  A    between atoms: C_45  and  C_48
REMARK   18  A    between atoms: C_48  and  O_49
REMARK                            x       y       z     vdW  Elec       q    Type
REMARK                         _______ _______ _______ _____ _____    ______ ____
ROOT
ATOM      1  C   UNL     1       7.316   0.561  23.341  0.00  0.00    +0.340 C 
ATOM      2  O   UNL     1       7.851   0.495  22.011  0.00  0.00    -0.331 OA
ATOM      3  C   UNL     1       9.201   0.872  21.780  0.00  0.00    +0.179 C 
ATOM      4  C   UNL     1       9.538   2.176  22.502  0.00  0.00    +0.177 C 
ATOM      5  C   UNL     1       9.145   2.201  23.985  0.00  0.00    +0.180 C 
ATOM      6  C   UNL     1       7.704   1.766  24.270  0.00  0.00    +0.221 C 
ENDROOT
BRANCH   5   7
ATOM      7  O   UNL     1      10.067   1.421  24.757  0.00  0.00    -0.386 OA
ATOM      8  H   UNL     1      10.861   1.228  24.207  0.00  0.00    +0.210 HD
ENDBRANCH   5   7
BRANCH   4   9
ATOM      9  O   UNL     1      10.929   2.481  22.382  0.00  0.00    -0.386 OA
ATOM     10  H   UNL     1      11.230   2.712  23.288  0.00  0.00    +0.210 HD
ENDBRANCH   4   9
BRANCH   6  11
ATOM     11  O   UNL     1       6.733   2.849  24.167  0.00  0.00    -0.337 OA
BRANCH  11  12
ATOM     12  C   UNL     1       6.090   3.005  22.879  0.00  0.00    +0.282 C 
ATOM     13  O   UNL     1       6.765   3.895  21.968  0.00  0.00    -0.341 OA
ATOM     14  C   UNL     1       6.846   5.298  22.302  0.00  0.00    +0.178 C 
ATOM     15  C   UNL     1       5.585   5.913  22.957  0.00  0.00    +0.177 C 
ATOM     16  C   UNL     1       4.820   4.916  23.840  0.00  0.00    +0.179 C 
ATOM     17  C   UNL     1       4.679   3.573  23.091  0.00  0.00    +0.201 C 
BRANCH  17  18
ATOM     18  O   UNL     1       3.979   3.774  21.845  0.00  0.00    -0.384 OA
ATOM     19  H   UNL     1       4.097   4.712  21.586  0.00  0.00    +0.210 HD
ENDBRANCH  17  18
BRANCH  16  20
ATOM     20  O   UNL     1       5.440   4.776  25.117  0.00  0.00    -0.386 OA
ATOM     21  H   UNL     1       5.754   5.640  25.419  0.00  0.00    +0.210 HD
ENDBRANCH  16  20
BRANCH  15  22
ATOM     22  O   UNL     1       4.719   6.419  21.922  0.00  0.00    -0.386 OA
ATOM     23  H   UNL     1       3.849   6.624  22.322  0.00  0.00    +0.210 HD
ENDBRANCH  15  22
BRANCH  14  24
ATOM     24  C   UNL     1       8.098   5.572  23.140  0.00  0.00    +0.190 C 
BRANCH  24  25
ATOM     25  O   UNL     1       7.834   6.429  24.251  0.00  0.00    -0.392 OA
ATOM     26  H   UNL     1       8.648   6.496  24.780  0.00  0.00    +0.210 HD
ENDBRANCH  24  25
ENDBRANCH  14  24
ENDBRANCH  11  12
ENDBRANCH   6  11
BRANCH   3  27
ATOM     27  C   UNL     1      10.179  -0.295  21.962  0.00  0.00    +0.190 C 
BRANCH  27  28
ATOM     28  O   UNL     1       9.557  -1.533  21.656  0.00  0.00    -0.392 OA
ATOM     29  H   UNL     1       9.106  -1.378  20.803  0.00  0.00    +0.210 HD
ENDBRANCH  27  28
ENDBRANCH   3  27
BRANCH   1  30
ATOM     30  O   UNL     1       7.562  -0.678  24.061  0.00  0.00    -0.453 OA
BRANCH  30  41
ATOM     31  C   UNL     1       5.555  -1.535  25.169  0.00  0.00    +0.181 A 
ATOM     32  O   UNL     1       4.703  -2.674  25.345  0.00  0.00    -0.451 OA
ATOM     33  C   UNL     1       4.976  -3.833  24.619  0.00  0.00    +0.147 A 
ATOM     34  C   UNL     1       5.719  -3.788  23.449  0.00  0.00    +0.109 A 
ATOM     35  C   UNL     1       6.029  -4.930  22.696  0.00  0.00    +0.135 A 
ATOM     36  C   UNL     1       5.583  -6.171  23.109  0.00  0.00    +0.091 A 
ATOM     37  C   UNL     1       4.808  -6.237  24.266  0.00  0.00    +0.124 A 
ATOM     38  C   UNL     1       6.199  -2.490  23.057  0.00  0.00    +0.238 A 
ATOM     39  O   UNL     1       6.443  -2.259  21.881  0.00  0.00    -0.283 OA
ATOM     40  C   UNL     1       4.499  -5.086  25.020  0.00  0.00    +0.092 A 
ATOM     41  C   UNL     1       6.464  -1.521  24.157  0.00  0.00    +0.214 A 
BRANCH  31  43
ATOM     42  C   UNL     1       5.870  -0.449  27.502  0.00  0.00    +0.015 A 
ATOM     43  C   UNL     1       5.351  -0.402  26.185  0.00  0.00    +0.025 A 
ATOM     44  C   UNL     1       4.549   0.733  25.917  0.00  0.00    +0.060 A 
ATOM     45  C   UNL     1       4.393   1.787  26.831  0.00  0.00    +0.159 A 
ATOM     46  C   UNL     1       4.924   1.708  28.108  0.00  0.00    +0.158 A 
ATOM     47  C   UNL     1       5.648   0.582  28.457  0.00  0.00    +0.050 A 
BRANCH  46  48
ATOM     48  O   UNL     1       4.673   2.753  28.956  0.00  0.00    -0.503 OA
ATOM     49  H   UNL     1       4.538   2.406  29.855  0.00  0.00    +0.292 HD
ENDBRANCH  46  48
BRANCH  45  50
ATOM     50  O   UNL     1       3.693   2.905  26.472  0.00  0.00    -0.503 OA
ATOM     51  H   UNL     1       4.039   3.618  27.049  0.00  0.00    +0.292 HD
ENDBRANCH  45  50
ENDBRANCH  31  43
BRANCH  37  52
ATOM     52  O   UNL     1       4.337  -7.447  24.684  0.00  0.00    -0.507 OA
ATOM     53  H   UNL     1       3.881  -7.323  25.537  0.00  0.00    +0.292 HD
ENDBRANCH  37  52
BRANCH  35  54
ATOM     54  O   UNL     1       6.785  -4.901  21.559  0.00  0.00    -0.506 OA
ATOM     55  H   UNL     1       7.476  -5.603  21.638  0.00  0.00    +0.292 HD
ENDBRANCH  35  54
ENDBRANCH  30  41
ENDBRANCH   1  30
TORSDOF 18
ENDMDL
