MODEL 1
REMARK VINA RESULT:      -7.3      0.000      0.000
REMARK  Name = 
REMARK  18 active torsions:
REMARK  status: ('A' for Active; 'I' for Inactive)
REMARK    1  A    between atoms: C_3  and  O_49
REMARK    2  A    between atoms: C_4  and  O_48
REMARK    3  A    between atoms: C_6  and  C_7
REMARK    4  A    between atoms: C_8  and  O_20
REMARK    5  A    between atoms: C_12  and  O_19
REMARK    6  A    between atoms: C_14  and  O_18
REMARK    7  A    between atoms: O_20  and  C_21
REMARK    8  A    between atoms: C_23  and  O_47
REMARK    9  A    between atoms: C_24  and  O_46
REMARK   10  A    between atoms: C_25  and  O_45
REMARK   11  A    between atoms: C_27  and  C_29
REMARK   12  A    between atoms: C_29  and  O_30
REMARK   13  A    between atoms: O_30  and  C_31
REMARK   14  A    between atoms: C_33  and  O_44
REMARK   15  A    between atoms: C_34  and  O_43
REMARK   16  A    between atoms: C_36  and  O_42
REMARK   17  A    between atoms: C_38  and  C_40
REMARK   18  A    between atoms: C_40  and  O_41
REMARK                            x       y       z     vdW  Elec       q    Type
REMARK                         _______ _______ _______ _____ _____    ______ ____
ROOT
ATOM      1  C   UNL     1       5.507   1.154  25.611  0.00  0.00    +0.340 C 
ATOM      2  O   UNL     1       6.334   2.338  25.630  0.00  0.00    -0.331 OA
ATOM      3  C   UNL     1       6.967   2.683  26.891  0.00  0.00    +0.179 C 
ATOM      4  C   UNL     1       6.219   2.336  28.211  0.00  0.00    +0.177 C 
ATOM      5  C   UNL     1       5.217   1.195  28.056  0.00  0.00    +0.180 C 
ATOM      6  C   UNL     1       4.478   1.392  26.730  0.00  0.00    +0.214 C 
ENDROOT
BRANCH   6   7
ATOM      7  O   UNL     1       3.287   0.621  26.640  0.00  0.00    -0.383 OA
ATOM      8  H   UNL     1       2.600   1.035  27.184  0.00  0.00    +0.210 HD
ENDBRANCH   6   7
BRANCH   5   9
ATOM      9  O   UNL     1       4.349   1.204  29.198  0.00  0.00    -0.386 OA
ATOM     10  H   UNL     1       4.200   0.271  29.434  0.00  0.00    +0.210 HD
ENDBRANCH   5   9
BRANCH   4  11
ATOM     11  O   UNL     1       5.477   3.465  28.719  0.00  0.00    -0.386 OA
ATOM     12  H   UNL     1       6.150   4.062  29.101  0.00  0.00    +0.210 HD
ENDBRANCH   4  11
BRANCH   3  13
ATOM     13  C   UNL     1       7.203   4.210  26.828  0.00  0.00    +0.197 C 
BRANCH  13  14
ATOM     14  O   UNL     1       7.574   4.747  25.553  0.00  0.00    -0.346 OA
BRANCH  14  15
ATOM     15  C   UNL     1       7.625   6.174  25.472  0.00  0.00    +0.282 C 
ATOM     16  O   UNL     1       6.439   6.655  24.814  0.00  0.00    -0.341 OA
ATOM     17  C   UNL     1       6.320   6.243  23.437  0.00  0.00    +0.178 C 
ATOM     18  C   UNL     1       7.551   6.662  22.610  0.00  0.00    +0.177 C 
ATOM     19  C   UNL     1       8.847   6.204  23.282  0.00  0.00    +0.179 C 
ATOM     20  C   UNL     1       8.875   6.705  24.733  0.00  0.00    +0.201 C 
BRANCH  20  21
ATOM     21  O   UNL     1      10.108   6.361  25.363  0.00  0.00    -0.384 OA
ATOM     22  H   UNL     1      10.450   7.172  25.790  0.00  0.00    +0.210 HD
ENDBRANCH  20  21
BRANCH  19  23
ATOM     23  O   UNL     1       8.963   4.767  23.218  0.00  0.00    -0.386 OA
ATOM     24  H   UNL     1       9.832   4.504  23.566  0.00  0.00    +0.210 HD
ENDBRANCH  19  23
BRANCH  18  25
ATOM     25  O   UNL     1       7.488   6.120  21.290  0.00  0.00    -0.386 OA
ATOM     26  H   UNL     1       7.300   6.866  20.688  0.00  0.00    +0.210 HD
ENDBRANCH  18  25
BRANCH  17  27
ATOM     27  C   UNL     1       5.040   6.881  22.873  0.00  0.00    +0.190 C 
BRANCH  27  28
ATOM     28  O   UNL     1       4.473   6.062  21.848  0.00  0.00    -0.392 OA
ATOM     29  H   UNL     1       3.530   5.970  22.077  0.00  0.00    +0.210 HD
ENDBRANCH  27  28
ENDBRANCH  17  27
ENDBRANCH  14  15
ENDBRANCH  13  14
ENDBRANCH   3  13
BRANCH   1  30
ATOM     30  O   UNL     1       6.345  -0.013  25.711  0.00  0.00    -0.453 OA
BRANCH  30  41
ATOM     31  C   UNL     1       7.642  -1.297  24.067  0.00  0.00    +0.181 A 
ATOM     32  O   UNL     1       7.845  -2.524  23.419  0.00  0.00    -0.451 OA
ATOM     33  C   UNL     1       6.877  -3.479  23.368  0.00  0.00    +0.147 A 
ATOM     34  C   UNL     1       5.627  -3.286  23.917  0.00  0.00    +0.109 A 
ATOM     35  C   UNL     1       4.657  -4.287  23.758  0.00  0.00    +0.135 A 
ATOM     36  C   UNL     1       4.944  -5.473  23.060  0.00  0.00    +0.091 A 
ATOM     37  C   UNL     1       6.217  -5.661  22.537  0.00  0.00    +0.124 A 
ATOM     38  C   UNL     1       5.393  -2.040  24.661  0.00  0.00    +0.238 A 
ATOM     39  O   UNL     1       4.298  -1.872  25.189  0.00  0.00    -0.283 OA
ATOM     40  C   UNL     1       7.188  -4.682  22.702  0.00  0.00    +0.092 A 
ATOM     41  C   UNL     1       6.491  -0.996  24.736  0.00  0.00    +0.214 A 
BRANCH  31  43
ATOM     42  C   UNL     1       9.900  -0.219  24.682  0.00  0.00    +0.015 A 
ATOM     43  C   UNL     1       8.828  -0.406  23.801  0.00  0.00    +0.025 A 
ATOM     44  C   UNL     1       8.809   0.431  22.660  0.00  0.00    +0.060 A 
ATOM     45  C   UNL     1       9.691   1.498  22.531  0.00  0.00    +0.159 A 
ATOM     46  C   UNL     1      10.608   1.774  23.531  0.00  0.00    +0.158 A 
ATOM     47  C   UNL     1      10.752   0.892  24.588  0.00  0.00    +0.050 A 
BRANCH  46  48
ATOM     48  O   UNL     1      11.338   2.923  23.436  0.00  0.00    -0.503 OA
ATOM     49  H   UNL     1      12.279   2.675  23.412  0.00  0.00    +0.292 HD
ENDBRANCH  46  48
BRANCH  45  50
ATOM     50  O   UNL     1       9.612   2.306  21.435  0.00  0.00    -0.503 OA
ATOM     51  H   UNL     1       8.749   2.760  21.522  0.00  0.00    +0.292 HD
ENDBRANCH  45  50
ENDBRANCH  31  43
BRANCH  37  52
ATOM     52  O   UNL     1       6.565  -6.809  21.888  0.00  0.00    -0.507 OA
ATOM     53  H   UNL     1       7.475  -6.713  21.561  0.00  0.00    +0.292 HD
ENDBRANCH  37  52
BRANCH  35  54
ATOM     54  O   UNL     1       3.382  -4.177  24.250  0.00  0.00    -0.506 OA
ATOM     55  H   UNL     1       3.015  -3.319  23.921  0.00  0.00    +0.292 HD
ENDBRANCH  35  54
ENDBRANCH  30  41
ENDBRANCH   1  30
TORSDOF 18
ENDMDL
MODEL 2
REMARK VINA RESULT:      -7.3      1.828      8.293
REMARK  Name = 
REMARK  18 active torsions:
REMARK  status: ('A' for Active; 'I' for Inactive)
REMARK    1  A    between atoms: C_3  and  O_49
REMARK    2  A    between atoms: C_4  and  O_48
REMARK    3  A    between atoms: C_6  and  C_7
REMARK    4  A    between atoms: C_8  and  O_20
REMARK    5  A    between atoms: C_12  and  O_19
REMARK    6  A    between atoms: C_14  and  O_18
REMARK    7  A    between atoms: O_20  and  C_21
REMARK    8  A    between atoms: C_23  and  O_47
REMARK    9  A    between atoms: C_24  and  O_46
REMARK   10  A    between atoms: C_25  and  O_45
REMARK   11  A    between atoms: C_27  and  C_29
REMARK   12  A    between atoms: C_29  and  O_30
REMARK   13  A    between atoms: O_30  and  C_31
REMARK   14  A    between atoms: C_33  and  O_44
REMARK   15  A    between atoms: C_34  and  O_43
REMARK   16  A    between atoms: C_36  and  O_42
REMARK   17  A    between atoms: C_38  and  C_40
REMARK   18  A    between atoms: C_40  and  O_41
REMARK                            x       y       z     vdW  Elec       q    Type
REMARK                         _______ _______ _______ _____ _____    ______ ____
ROOT
ATOM      1  C   UNL     1       7.442   0.899  24.368  0.00  0.00    +0.340 C 
ATOM      2  O   UNL     1       8.104  -0.372  24.553  0.00  0.00    -0.331 OA
ATOM      3  C   UNL     1       9.512  -0.442  24.201  0.00  0.00    +0.179 C 
ATOM      4  C   UNL     1      10.024   0.446  23.029  0.00  0.00    +0.177 C 
ATOM      5  C   UNL     1       9.152   1.671  22.774  0.00  0.00    +0.180 C 
ATOM      6  C   UNL     1       7.687   1.242  22.889  0.00  0.00    +0.214 C 
ENDROOT
BRANCH   6   7
ATOM      7  O   UNL     1       6.787   2.185  22.323  0.00  0.00    -0.383 OA
ATOM      8  H   UNL     1       6.457   2.769  23.024  0.00  0.00    +0.210 HD
ENDBRANCH   6   7
BRANCH   5   9
ATOM      9  O   UNL     1       9.490   2.200  21.484  0.00  0.00    -0.386 OA
ATOM     10  H   UNL     1       9.840   1.453  20.966  0.00  0.00    +0.210 HD
ENDBRANCH   5   9
BRANCH   4  11
ATOM     11  O   UNL     1      10.075  -0.286  21.786  0.00  0.00    -0.386 OA
ATOM     12  H   UNL     1      11.026  -0.345  21.563  0.00  0.00    +0.210 HD
ENDBRANCH   4  11
BRANCH   3  13
ATOM     13  C   UNL     1       9.778  -1.927  23.867  0.00  0.00    +0.197 C 
BRANCH  13  14
ATOM     14  O   UNL     1       8.654  -2.694  23.422  0.00  0.00    -0.346 OA
BRANCH  14  15
ATOM     15  C   UNL     1       8.378  -3.882  24.169  0.00  0.00    +0.282 C 
ATOM     16  O   UNL     1       8.102  -4.963  23.259  0.00  0.00    -0.341 OA
ATOM     17  C   UNL     1       6.910  -4.778  22.469  0.00  0.00    +0.178 C 
ATOM     18  C   UNL     1       5.671  -4.546  23.354  0.00  0.00    +0.177 C 
ATOM     19  C   UNL     1       5.920  -3.426  24.367  0.00  0.00    +0.179 C 
ATOM     20  C   UNL     1       7.200  -3.728  25.159  0.00  0.00    +0.201 C 
BRANCH  20  21
ATOM     21  O   UNL     1       7.416  -2.742  26.166  0.00  0.00    -0.384 OA
ATOM     22  H   UNL     1       7.088  -1.891  25.811  0.00  0.00    +0.210 HD
ENDBRANCH  20  21
BRANCH  19  23
ATOM     23  O   UNL     1       6.005  -2.153  23.694  0.00  0.00    -0.386 OA
ATOM     24  H   UNL     1       5.449  -2.179  22.896  0.00  0.00    +0.210 HD
ENDBRANCH  19  23
BRANCH  18  25
ATOM     25  O   UNL     1       4.531  -4.217  22.560  0.00  0.00    -0.386 OA
ATOM     26  H   UNL     1       4.847  -4.110  21.641  0.00  0.00    +0.210 HD
ENDBRANCH  18  25
BRANCH  17  27
ATOM     27  C   UNL     1       6.734  -6.033  21.599  0.00  0.00    +0.190 C 
BRANCH  27  28
ATOM     28  O   UNL     1       6.000  -5.730  20.411  0.00  0.00    -0.392 OA
ATOM     29  H   UNL     1       5.212  -6.304  20.436  0.00  0.00    +0.210 HD
ENDBRANCH  27  28
ENDBRANCH  17  27
ENDBRANCH  14  15
ENDBRANCH  13  14
ENDBRANCH   3  13
BRANCH   1  30
ATOM     30  O   UNL     1       7.916   1.831  25.358  0.00  0.00    -0.453 OA
BRANCH  30  41
ATOM     31  C   UNL     1       6.375   3.654  25.936  0.00  0.00    +0.181 A 
ATOM     32  O   UNL     1       5.300   4.087  26.725  0.00  0.00    -0.451 OA
ATOM     33  C   UNL     1       4.963   3.463  27.887  0.00  0.00    +0.147 A 
ATOM     34  C   UNL     1       5.678   2.392  28.377  0.00  0.00    +0.109 A 
ATOM     35  C   UNL     1       5.315   1.850  29.620  0.00  0.00    +0.135 A 
ATOM     36  C   UNL     1       4.240   2.375  30.357  0.00  0.00    +0.091 A 
ATOM     37  C   UNL     1       3.514   3.437  29.833  0.00  0.00    +0.124 A 
ATOM     38  C   UNL     1       6.773   1.866  27.550  0.00  0.00    +0.238 A 
ATOM     39  O   UNL     1       7.393   0.887  27.956  0.00  0.00    -0.283 OA
ATOM     40  C   UNL     1       3.856   3.972  28.598  0.00  0.00    +0.092 A 
ATOM     41  C   UNL     1       7.120   2.553  26.243  0.00  0.00    +0.214 A 
BRANCH  31  43
ATOM     42  C   UNL     1       5.576   5.156  24.001  0.00  0.00    +0.015 A 
ATOM     43  C   UNL     1       6.589   4.645  24.821  0.00  0.00    +0.025 A 
ATOM     44  C   UNL     1       7.914   4.982  24.454  0.00  0.00    +0.060 A 
ATOM     45  C   UNL     1       8.192   5.613  23.247  0.00  0.00    +0.159 A 
ATOM     46  C   UNL     1       7.169   5.919  22.364  0.00  0.00    +0.158 A 
ATOM     47  C   UNL     1       5.853   5.737  22.755  0.00  0.00    +0.050 A 
BRANCH  46  48
ATOM     48  O   UNL     1       7.505   6.386  21.127  0.00  0.00    -0.503 OA
ATOM     49  H   UNL     1       6.692   6.421  20.593  0.00  0.00    +0.292 HD
ENDBRANCH  46  48
BRANCH  45  50
ATOM     50  O   UNL     1       9.486   5.882  22.912  0.00  0.00    -0.503 OA
ATOM     51  H   UNL     1       9.938   6.034  23.766  0.00  0.00    +0.292 HD
ENDBRANCH  45  50
ENDBRANCH  31  43
BRANCH  37  52
ATOM     52  O   UNL     1       2.435   3.960  30.484  0.00  0.00    -0.507 OA
ATOM     53  H   UNL     1       2.198   4.801  30.058  0.00  0.00    +0.292 HD
ENDBRANCH  37  52
BRANCH  35  54
ATOM     54  O   UNL     1       5.979   0.798  30.197  0.00  0.00    -0.506 OA
ATOM     55  H   UNL     1       5.970   0.053  29.546  0.00  0.00    +0.292 HD
ENDBRANCH  35  54
ENDBRANCH  30  41
ENDBRANCH   1  30
TORSDOF 18
ENDMDL
MODEL 3
REMARK VINA RESULT:      -7.1      2.474      4.267
REMARK  Name = 
REMARK  18 active torsions:
REMARK  status: ('A' for Active; 'I' for Inactive)
REMARK    1  A    between atoms: C_3  and  O_49
REMARK    2  A    between atoms: C_4  and  O_48
REMARK    3  A    between atoms: C_6  and  C_7
REMARK    4  A    between atoms: C_8  and  O_20
REMARK    5  A    between atoms: C_12  and  O_19
REMARK    6  A    between atoms: C_14  and  O_18
REMARK    7  A    between atoms: O_20  and  C_21
REMARK    8  A    between atoms: C_23  and  O_47
REMARK    9  A    between atoms: C_24  and  O_46
REMARK   10  A    between atoms: C_25  and  O_45
REMARK   11  A    between atoms: C_27  and  C_29
REMARK   12  A    between atoms: C_29  and  O_30
REMARK   13  A    between atoms: O_30  and  C_31
REMARK   14  A    between atoms: C_33  and  O_44
REMARK   15  A    between atoms: C_34  and  O_43
REMARK   16  A    between atoms: C_36  and  O_42
REMARK   17  A    between atoms: C_38  and  C_40
REMARK   18  A    between atoms: C_40  and  O_41
REMARK                            x       y       z     vdW  Elec       q    Type
REMARK                         _______ _______ _______ _____ _____    ______ ____
ROOT
ATOM      1  C   UNL     1       5.280  -0.952  25.638  0.00  0.00    +0.340 C 
ATOM      2  O   UNL     1       6.668  -0.842  25.254  0.00  0.00    -0.331 OA
ATOM      3  C   UNL     1       7.630  -0.588  26.313  0.00  0.00    +0.179 C 
ATOM      4  C   UNL     1       7.176   0.264  27.534  0.00  0.00    +0.177 C 
ATOM      5  C   UNL     1       5.666   0.248  27.753  0.00  0.00    +0.180 C 
ATOM      6  C   UNL     1       4.988   0.360  26.385  0.00  0.00    +0.214 C 
ENDROOT
BRANCH   6   7
ATOM      7  O   UNL     1       3.616   0.720  26.474  0.00  0.00    -0.383 OA
ATOM      8  H   UNL     1       3.079  -0.086  26.526  0.00  0.00    +0.210 HD
ENDBRANCH   6   7
BRANCH   5   9
ATOM      9  O   UNL     1       5.332   1.323  28.643  0.00  0.00    -0.386 OA
ATOM     10  H   UNL     1       4.462   1.102  29.023  0.00  0.00    +0.210 HD
ENDBRANCH   5   9
BRANCH   4  11
ATOM     11  O   UNL     1       7.553   1.649  27.389  0.00  0.00    -0.386 OA
ATOM     12  H   UNL     1       8.433   1.720  27.811  0.00  0.00    +0.210 HD
ENDBRANCH   4  11
BRANCH   3  13
ATOM     13  C   UNL     1       8.826   0.108  25.625  0.00  0.00    +0.197 C 
BRANCH  13  14
ATOM     14  O   UNL     1       8.772   0.207  24.198  0.00  0.00    -0.346 OA
BRANCH  14  15
ATOM     15  C   UNL     1       9.738   1.077  23.599  0.00  0.00    +0.282 C 
ATOM     16  O   UNL     1       9.513   2.423  24.055  0.00  0.00    -0.341 OA
ATOM     17  C   UNL     1       8.251   2.984  23.638  0.00  0.00    +0.178 C 
ATOM     18  C   UNL     1       8.090   2.945  22.107  0.00  0.00    +0.177 C 
ATOM     19  C   UNL     1       8.351   1.539  21.561  0.00  0.00    +0.179 C 
ATOM     20  C   UNL     1       9.719   1.046  22.053  0.00  0.00    +0.201 C 
BRANCH  20  21
ATOM     21  O   UNL     1      10.027  -0.230  21.496  0.00  0.00    -0.384 OA
ATOM     22  H   UNL     1       9.180  -0.710  21.389  0.00  0.00    +0.210 HD
ENDBRANCH  20  21
BRANCH  19  23
ATOM     23  O   UNL     1       7.293   0.644  21.960  0.00  0.00    -0.386 OA
ATOM     24  H   UNL     1       7.653  -0.016  22.577  0.00  0.00    +0.210 HD
ENDBRANCH  19  23
BRANCH  18  25
ATOM     25  O   UNL     1       6.780   3.364  21.721  0.00  0.00    -0.386 OA
ATOM     26  H   UNL     1       6.484   2.753  21.018  0.00  0.00    +0.210 HD
ENDBRANCH  18  25
BRANCH  17  27
ATOM     27  C   UNL     1       8.195   4.429  24.158  0.00  0.00    +0.190 C 
BRANCH  27  28
ATOM     28  O   UNL     1       8.609   5.350  23.146  0.00  0.00    -0.392 OA
ATOM     29  H   UNL     1       9.387   5.808  23.512  0.00  0.00    +0.210 HD
ENDBRANCH  27  28
ENDBRANCH  17  27
ENDBRANCH  14  15
ENDBRANCH  13  14
ENDBRANCH   3  13
BRANCH   1  30
ATOM     30  O   UNL     1       5.082  -2.187  26.353  0.00  0.00    -0.453 OA
BRANCH  30  41
ATOM     31  C   UNL     1       5.536  -4.332  25.248  0.00  0.00    +0.181 A 
ATOM     32  O   UNL     1       5.169  -5.675  25.076  0.00  0.00    -0.451 OA
ATOM     33  C   UNL     1       3.924  -6.126  25.390  0.00  0.00    +0.147 A 
ATOM     34  C   UNL     1       2.938  -5.286  25.862  0.00  0.00    +0.109 A 
ATOM     35  C   UNL     1       1.656  -5.810  26.091  0.00  0.00    +0.135 A 
ATOM     36  C   UNL     1       1.373  -7.167  25.856  0.00  0.00    +0.091 A 
ATOM     37  C   UNL     1       2.387  -8.003  25.407  0.00  0.00    +0.124 A 
ATOM     38  C   UNL     1       3.299  -3.884  26.117  0.00  0.00    +0.238 A 
ATOM     39  O   UNL     1       2.441  -3.134  26.574  0.00  0.00    -0.283 OA
ATOM     40  C   UNL     1       3.661  -7.497  25.191  0.00  0.00    +0.092 A 
ATOM     41  C   UNL     1       4.699  -3.401  25.790  0.00  0.00    +0.214 A 
BRANCH  31  43
ATOM     42  C   UNL     1       8.111  -4.400  25.313  0.00  0.00    +0.015 A 
ATOM     43  C   UNL     1       6.907  -4.124  24.656  0.00  0.00    +0.025 A 
ATOM     44  C   UNL     1       7.016  -3.461  23.410  0.00  0.00    +0.060 A 
ATOM     45  C   UNL     1       8.231  -2.946  22.970  0.00  0.00    +0.159 A 
ATOM     46  C   UNL     1       9.367  -3.062  23.754  0.00  0.00    +0.158 A 
ATOM     47  C   UNL     1       9.326  -3.830  24.905  0.00  0.00    +0.050 A 
BRANCH  46  48
ATOM     48  O   UNL     1      10.492  -2.401  23.357  0.00  0.00    -0.503 OA
ATOM     49  H   UNL     1      10.373  -1.459  23.571  0.00  0.00    +0.292 HD
ENDBRANCH  46  48
BRANCH  45  50
ATOM     50  O   UNL     1       8.286  -2.277  21.782  0.00  0.00    -0.503 OA
ATOM     51  H   UNL     1       7.541  -2.636  21.260  0.00  0.00    +0.292 HD
ENDBRANCH  45  50
ENDBRANCH  31  43
BRANCH  37  52
ATOM     52  O   UNL     1       2.181  -9.336  25.203  0.00  0.00    -0.507 OA
ATOM     53  H   UNL     1       2.970  -9.706  24.773  0.00  0.00    +0.292 HD
ENDBRANCH  37  52
BRANCH  35  54
ATOM     54  O   UNL     1       0.608  -5.049  26.540  0.00  0.00    -0.506 OA
ATOM     55  H   UNL     1      -0.206  -5.372  26.080  0.00  0.00    +0.292 HD
ENDBRANCH  35  54
ENDBRANCH  30  41
ENDBRANCH   1  30
TORSDOF 18
ENDMDL
MODEL 4
REMARK VINA RESULT:      -7.1      2.224      8.253
REMARK  Name = 
REMARK  18 active torsions:
REMARK  status: ('A' for Active; 'I' for Inactive)
REMARK    1  A    between atoms: C_3  and  O_49
REMARK    2  A    between atoms: C_4  and  O_48
REMARK    3  A    between atoms: C_6  and  C_7
REMARK    4  A    between atoms: C_8  and  O_20
REMARK    5  A    between atoms: C_12  and  O_19
REMARK    6  A    between atoms: C_14  and  O_18
REMARK    7  A    between atoms: O_20  and  C_21
REMARK    8  A    between atoms: C_23  and  O_47
REMARK    9  A    between atoms: C_24  and  O_46
REMARK   10  A    between atoms: C_25  and  O_45
REMARK   11  A    between atoms: C_27  and  C_29
REMARK   12  A    between atoms: C_29  and  O_30
REMARK   13  A    between atoms: O_30  and  C_31
REMARK   14  A    between atoms: C_33  and  O_44
REMARK   15  A    between atoms: C_34  and  O_43
REMARK   16  A    between atoms: C_36  and  O_42
REMARK   17  A    between atoms: C_38  and  C_40
REMARK   18  A    between atoms: C_40  and  O_41
REMARK                            x       y       z     vdW  Elec       q    Type
REMARK                         _______ _______ _______ _____ _____    ______ ____
ROOT
ATOM      1  C   UNL     1       7.300   1.682  23.342  0.00  0.00    +0.340 C 
ATOM      2  O   UNL     1       7.578   0.429  24.004  0.00  0.00    -0.331 OA
ATOM      3  C   UNL     1       8.748   0.380  24.864  0.00  0.00    +0.179 C 
ATOM      4  C   UNL     1       9.979   1.254  24.485  0.00  0.00    +0.177 C 
ATOM      5  C   UNL     1       9.621   2.458  23.618  0.00  0.00    +0.180 C 
ATOM      6  C   UNL     1       8.595   2.002  22.577  0.00  0.00    +0.214 C 
ENDROOT
BRANCH   6   7
ATOM      7  O   UNL     1       8.458   2.916  21.497  0.00  0.00    -0.383 OA
ATOM      8  H   UNL     1       9.338   3.220  21.225  0.00  0.00    +0.210 HD
ENDBRANCH   6   7
BRANCH   5   9
ATOM      9  O   UNL     1      10.830   2.968  23.040  0.00  0.00    -0.386 OA
ATOM     10  H   UNL     1      11.220   2.235  22.531  0.00  0.00    +0.210 HD
ENDBRANCH   5   9
BRANCH   4  11
ATOM     11  O   UNL     1      10.966   0.501  23.751  0.00  0.00    -0.386 OA
ATOM     12  H   UNL     1      11.761   0.498  24.320  0.00  0.00    +0.210 HD
ENDBRANCH   4  11
BRANCH   3  13
ATOM     13  C   UNL     1       9.173  -1.106  24.896  0.00  0.00    +0.197 C 
BRANCH  13  14
ATOM     14  O   UNL     1       8.413  -2.006  24.081  0.00  0.00    -0.346 OA
BRANCH  14  15
ATOM     15  C   UNL     1       7.700  -3.028  24.783  0.00  0.00    +0.282 C 
ATOM     16  O   UNL     1       7.876  -4.284  24.101  0.00  0.00    -0.341 OA
ATOM     17  C   UNL     1       7.303  -4.322  22.778  0.00  0.00    +0.178 C 
ATOM     18  C   UNL     1       5.803  -3.974  22.798  0.00  0.00    +0.177 C 
ATOM     19  C   UNL     1       5.552  -2.660  23.542  0.00  0.00    +0.179 C 
ATOM     20  C   UNL     1       6.190  -2.732  24.936  0.00  0.00    +0.201 C 
BRANCH  20  21
ATOM     21  O   UNL     1       5.905  -1.552  25.684  0.00  0.00    -0.384 OA
ATOM     22  H   UNL     1       6.388  -0.816  25.256  0.00  0.00    +0.210 HD
ENDBRANCH  20  21
BRANCH  19  23
ATOM     23  O   UNL     1       6.070  -1.549  22.782  0.00  0.00    -0.386 OA
ATOM     24  H   UNL     1       7.020  -1.686  22.629  0.00  0.00    +0.210 HD
ENDBRANCH  19  23
BRANCH  18  25
ATOM     25  O   UNL     1       5.286  -3.870  21.471  0.00  0.00    -0.386 OA
ATOM     26  H   UNL     1       5.121  -2.921  21.306  0.00  0.00    +0.210 HD
ENDBRANCH  18  25
BRANCH  17  27
ATOM     27  C   UNL     1       7.530  -5.736  22.219  0.00  0.00    +0.190 C 
BRANCH  27  28
ATOM     28  O   UNL     1       6.285  -6.412  22.027  0.00  0.00    -0.392 OA
ATOM     29  H   UNL     1       5.596  -5.745  22.198  0.00  0.00    +0.210 HD
ENDBRANCH  27  28
ENDBRANCH  17  27
ENDBRANCH  14  15
ENDBRANCH  13  14
ENDBRANCH   3  13
BRANCH   1  30
ATOM     30  O   UNL     1       6.844   2.643  24.314  0.00  0.00    -0.453 OA
BRANCH  30  41
ATOM     31  C   UNL     1       6.274   4.960  23.731  0.00  0.00    +0.181 A 
ATOM     32  O   UNL     1       5.370   5.834  23.111  0.00  0.00    -0.451 OA
ATOM     33  C   UNL     1       4.081   5.477  22.858  0.00  0.00    +0.147 A 
ATOM     34  C   UNL     1       3.576   4.250  23.228  0.00  0.00    +0.109 A 
ATOM     35  C   UNL     1       2.216   3.983  23.002  0.00  0.00    +0.135 A 
ATOM     36  C   UNL     1       1.378   4.939  22.403  0.00  0.00    +0.091 A 
ATOM     37  C   UNL     1       1.913   6.160  22.012  0.00  0.00    +0.124 A 
ATOM     38  C   UNL     1       4.505   3.279  23.823  0.00  0.00    +0.238 A 
ATOM     39  O   UNL     1       4.077   2.167  24.121  0.00  0.00    -0.283 OA
ATOM     40  C   UNL     1       3.259   6.427  22.219  0.00  0.00    +0.092 A 
ATOM     41  C   UNL     1       5.947   3.680  24.073  0.00  0.00    +0.214 A 
BRANCH  31  43
ATOM     42  C   UNL     1       8.517   6.034  23.059  0.00  0.00    +0.015 A 
ATOM     43  C   UNL     1       7.552   5.705  24.018  0.00  0.00    +0.025 A 
ATOM     44  C   UNL     1       7.900   5.967  25.365  0.00  0.00    +0.060 A 
ATOM     45  C   UNL     1       9.192   6.342  25.718  0.00  0.00    +0.159 A 
ATOM     46  C   UNL     1      10.177   6.457  24.751  0.00  0.00    +0.158 A 
ATOM     47  C   UNL     1       9.837   6.352  23.414  0.00  0.00    +0.050 A 
BRANCH  46  48
ATOM     48  O   UNL     1      11.461   6.666  25.163  0.00  0.00    -0.503 OA
ATOM     49  H   UNL     1      11.967   5.856  24.976  0.00  0.00    +0.292 HD
ENDBRANCH  46  48
BRANCH  45  50
ATOM     50  O   UNL     1       9.497   6.544  27.032  0.00  0.00    -0.503 OA
ATOM     51  H   UNL     1      10.121   7.298  27.029  0.00  0.00    +0.292 HD
ENDBRANCH  45  50
ENDBRANCH  31  43
BRANCH  37  52
ATOM     52  O   UNL     1       1.156   7.108  21.388  0.00  0.00    -0.507 OA
ATOM     53  H   UNL     1       1.382   7.975  21.763  0.00  0.00    +0.292 HD
ENDBRANCH  37  52
BRANCH  35  54
ATOM     54  O   UNL     1       1.619   2.800  23.354  0.00  0.00    -0.506 OA
ATOM     55  H   UNL     1       2.342   2.164  23.583  0.00  0.00    +0.292 HD
ENDBRANCH  35  54
ENDBRANCH  30  41
ENDBRANCH   1  30
TORSDOF 18
ENDMDL
MODEL 5
REMARK VINA RESULT:      -7.0      2.425      5.033
REMARK  Name = 
REMARK  18 active torsions:
REMARK  status: ('A' for Active; 'I' for Inactive)
REMARK    1  A    between atoms: C_3  and  O_49
REMARK    2  A    between atoms: C_4  and  O_48
REMARK    3  A    between atoms: C_6  and  C_7
REMARK    4  A    between atoms: C_8  and  O_20
REMARK    5  A    between atoms: C_12  and  O_19
REMARK    6  A    between atoms: C_14  and  O_18
REMARK    7  A    between atoms: O_20  and  C_21
REMARK    8  A    between atoms: C_23  and  O_47
REMARK    9  A    between atoms: C_24  and  O_46
REMARK   10  A    between atoms: C_25  and  O_45
REMARK   11  A    between atoms: C_27  and  C_29
REMARK   12  A    between atoms: C_29  and  O_30
REMARK   13  A    between atoms: O_30  and  C_31
REMARK   14  A    between atoms: C_33  and  O_44
REMARK   15  A    between atoms: C_34  and  O_43
REMARK   16  A    between atoms: C_36  and  O_42
REMARK   17  A    between atoms: C_38  and  C_40
REMARK   18  A    between atoms: C_40  and  O_41
REMARK                            x       y       z     vdW  Elec       q    Type
REMARK                         _______ _______ _______ _____ _____    ______ ____
ROOT
ATOM      1  C   UNL     1       9.461  -0.658  24.201  0.00  0.00    +0.340 C 
ATOM      2  O   UNL     1       9.416   0.729  24.605  0.00  0.00    -0.331 OA
ATOM      3  C   UNL     1       8.741   1.656  23.713  0.00  0.00    +0.179 C 
ATOM      4  C   UNL     1       8.794   1.378  22.182  0.00  0.00    +0.177 C 
ATOM      5  C   UNL     1       9.040  -0.089  21.843  0.00  0.00    +0.180 C 
ATOM      6  C   UNL     1      10.104  -0.625  22.804  0.00  0.00    +0.214 C 
ENDROOT
BRANCH   6   7
ATOM      7  O   UNL     1      10.679  -1.849  22.367  0.00  0.00    -0.383 OA
ATOM      8  H   UNL     1      11.610  -1.877  22.639  0.00  0.00    +0.210 HD
ENDBRANCH   6   7
BRANCH   5   9
ATOM      9  O   UNL     1       9.427  -0.170  20.464  0.00  0.00    -0.386 OA
ATOM     10  H   UNL     1       9.007   0.587  20.018  0.00  0.00    +0.210 HD
ENDBRANCH   5   9
BRANCH   4  11
ATOM     11  O   UNL     1       9.845   2.128  21.538  0.00  0.00    -0.386 OA
ATOM     12  H   UNL     1      10.097   1.596  20.757  0.00  0.00    +0.210 HD
ENDBRANCH   4  11
BRANCH   3  13
ATOM     13  C   UNL     1       9.374   3.037  24.000  0.00  0.00    +0.197 C 
BRANCH  13  14
ATOM     14  O   UNL     1       8.671   4.179  23.498  0.00  0.00    -0.346 OA
BRANCH  14  15
ATOM     15  C   UNL     1       7.886   4.896  24.455  0.00  0.00    +0.282 C 
ATOM     16  O   UNL     1       6.510   4.488  24.342  0.00  0.00    -0.341 OA
ATOM     17  C   UNL     1       5.897   4.827  23.081  0.00  0.00    +0.178 C 
ATOM     18  C   UNL     1       5.993   6.336  22.790  0.00  0.00    +0.177 C 
ATOM     19  C   UNL     1       7.434   6.833  22.928  0.00  0.00    +0.179 C 
ATOM     20  C   UNL     1       7.983   6.431  24.304  0.00  0.00    +0.201 C 
BRANCH  20  21
ATOM     21  O   UNL     1       9.298   6.949  24.494  0.00  0.00    -0.384 OA
ATOM     22  H   UNL     1       9.926   6.235  24.263  0.00  0.00    +0.210 HD
ENDBRANCH  20  21
BRANCH  19  23
ATOM     23  O   UNL     1       8.248   6.306  21.860  0.00  0.00    -0.386 OA
ATOM     24  H   UNL     1       8.002   6.744  21.028  0.00  0.00    +0.210 HD
ENDBRANCH  19  23
BRANCH  18  25
ATOM     25  O   UNL     1       5.516   6.633  21.476  0.00  0.00    -0.386 OA
ATOM     26  H   UNL     1       5.232   7.568  21.484  0.00  0.00    +0.210 HD
ENDBRANCH  18  25
BRANCH  17  27
ATOM     27  C   UNL     1       4.429   4.374  23.147  0.00  0.00    +0.190 C 
BRANCH  27  28
ATOM     28  O   UNL     1       3.876   4.251  21.835  0.00  0.00    -0.392 OA
ATOM     29  H   UNL     1       3.572   5.145  21.593  0.00  0.00    +0.210 HD
ENDBRANCH  27  28
ENDBRANCH  17  27
ENDBRANCH  14  15
ENDBRANCH  13  14
ENDBRANCH   3  13
BRANCH   1  30
ATOM     30  O   UNL     1       8.144  -1.230  24.318  0.00  0.00    -0.453 OA
BRANCH  30  41
ATOM     31  C   UNL     1       6.569  -1.169  26.202  0.00  0.00    +0.181 A 
ATOM     32  O   UNL     1       5.774  -1.894  27.101  0.00  0.00    -0.451 OA
ATOM     33  C   UNL     1       5.996  -3.212  27.358  0.00  0.00    +0.147 A 
ATOM     34  C   UNL     1       7.037  -3.905  26.779  0.00  0.00    +0.109 A 
ATOM     35  C   UNL     1       7.249  -5.242  27.152  0.00  0.00    +0.135 A 
ATOM     36  C   UNL     1       6.416  -5.875  28.091  0.00  0.00    +0.091 A 
ATOM     37  C   UNL     1       5.356  -5.168  28.642  0.00  0.00    +0.124 A 
ATOM     38  C   UNL     1       7.857  -3.201  25.782  0.00  0.00    +0.238 A 
ATOM     39  O   UNL     1       8.763  -3.819  25.230  0.00  0.00    -0.283 OA
ATOM     40  C   UNL     1       5.130  -3.850  28.269  0.00  0.00    +0.092 A 
ATOM     41  C   UNL     1       7.580  -1.740  25.483  0.00  0.00    +0.214 A 
BRANCH  31  43
ATOM     42  C   UNL     1       6.896   1.276  26.945  0.00  0.00    +0.015 A 
ATOM     43  C   UNL     1       6.176   0.284  26.268  0.00  0.00    +0.025 A 
ATOM     44  C   UNL     1       4.918   0.673  25.750  0.00  0.00    +0.060 A 
ATOM     45  C   UNL     1       4.355   1.905  26.068  0.00  0.00    +0.159 A 
ATOM     46  C   UNL     1       5.015   2.779  26.915  0.00  0.00    +0.158 A 
ATOM     47  C   UNL     1       6.307   2.493  27.320  0.00  0.00    +0.050 A 
BRANCH  46  48
ATOM     48  O   UNL     1       4.353   3.899  27.327  0.00  0.00    -0.503 OA
ATOM     49  H   UNL     1       4.851   4.672  27.007  0.00  0.00    +0.292 HD
ENDBRANCH  46  48
BRANCH  45  50
ATOM     50  O   UNL     1       3.121   2.224  25.583  0.00  0.00    -0.503 OA
ATOM     51  H   UNL     1       2.830   1.426  25.097  0.00  0.00    +0.292 HD
ENDBRANCH  45  50
ENDBRANCH  31  43
BRANCH  37  52
ATOM     52  O   UNL     1       4.490  -5.744  29.525  0.00  0.00    -0.507 OA
ATOM     53  H   UNL     1       3.621  -5.323  29.421  0.00  0.00    +0.292 HD
ENDBRANCH  37  52
BRANCH  35  54
ATOM     54  O   UNL     1       8.270  -6.005  26.646  0.00  0.00    -0.506 OA
ATOM     55  H   UNL     1       9.038  -5.401  26.493  0.00  0.00    +0.292 HD
ENDBRANCH  35  54
ENDBRANCH  30  41
ENDBRANCH   1  30
TORSDOF 18
ENDMDL
MODEL 6
REMARK VINA RESULT:      -6.9      2.142      8.246
REMARK  Name = 
REMARK  18 active torsions:
REMARK  status: ('A' for Active; 'I' for Inactive)
REMARK    1  A    between atoms: C_3  and  O_49
REMARK    2  A    between atoms: C_4  and  O_48
REMARK    3  A    between atoms: C_6  and  C_7
REMARK    4  A    between atoms: C_8  and  O_20
REMARK    5  A    between atoms: C_12  and  O_19
REMARK    6  A    between atoms: C_14  and  O_18
REMARK    7  A    between atoms: O_20  and  C_21
REMARK    8  A    between atoms: C_23  and  O_47
REMARK    9  A    between atoms: C_24  and  O_46
REMARK   10  A    between atoms: C_25  and  O_45
REMARK   11  A    between atoms: C_27  and  C_29
REMARK   12  A    between atoms: C_29  and  O_30
REMARK   13  A    between atoms: O_30  and  C_31
REMARK   14  A    between atoms: C_33  and  O_44
REMARK   15  A    between atoms: C_34  and  O_43
REMARK   16  A    between atoms: C_36  and  O_42
REMARK   17  A    between atoms: C_38  and  C_40
REMARK   18  A    between atoms: C_40  and  O_41
REMARK                            x       y       z     vdW  Elec       q    Type
REMARK                         _______ _______ _______ _____ _____    ______ ____
ROOT
ATOM      1  C   UNL     1       7.403   0.808  24.117  0.00  0.00    +0.340 C 
ATOM      2  O   UNL     1       8.004  -0.498  24.261  0.00  0.00    -0.331 OA
ATOM      3  C   UNL     1       9.418  -0.614  23.948  0.00  0.00    +0.179 C 
ATOM      4  C   UNL     1      10.005   0.304  22.836  0.00  0.00    +0.177 C 
ATOM      5  C   UNL     1       9.196   1.578  22.615  0.00  0.00    +0.180 C 
ATOM      6  C   UNL     1       7.711   1.209  22.665  0.00  0.00    +0.214 C 
ENDROOT
BRANCH   6   7
ATOM      7  O   UNL     1       6.871   2.218  22.118  0.00  0.00    -0.383 OA
ATOM      8  H   UNL     1       6.852   2.976  22.722  0.00  0.00    +0.210 HD
ENDBRANCH   6   7
BRANCH   5   9
ATOM      9  O   UNL     1       9.598   2.151  21.363  0.00  0.00    -0.386 OA
ATOM     10  H   UNL     1      10.571   2.189  21.380  0.00  0.00    +0.210 HD
ENDBRANCH   5   9
BRANCH   4  11
ATOM     11  O   UNL     1      10.065  -0.369  21.562  0.00  0.00    -0.386 OA
ATOM     12  H   UNL     1      10.933  -0.819  21.550  0.00  0.00    +0.210 HD
ENDBRANCH   4  11
BRANCH   3  13
ATOM     13  C   UNL     1       9.631  -2.092  23.550  0.00  0.00    +0.197 C 
BRANCH  13  14
ATOM     14  O   UNL     1       9.353  -3.071  24.557  0.00  0.00    -0.346 OA
BRANCH  14  15
ATOM     15  C   UNL     1       8.540  -4.173  24.144  0.00  0.00    +0.282 C 
ATOM     16  O   UNL     1       7.168  -3.745  24.059  0.00  0.00    -0.341 OA
ATOM     17  C   UNL     1       6.592  -3.357  25.323  0.00  0.00    +0.178 C 
ATOM     18  C   UNL     1       6.697  -4.485  26.366  0.00  0.00    +0.177 C 
ATOM     19  C   UNL     1       8.132  -5.003  26.475  0.00  0.00    +0.179 C 
ATOM     20  C   UNL     1       8.640  -5.399  25.081  0.00  0.00    +0.201 C 
BRANCH  20  21
ATOM     21  O   UNL     1       9.949  -5.959  25.161  0.00  0.00    -0.384 OA
ATOM     22  H   UNL     1       9.943  -6.603  25.898  0.00  0.00    +0.210 HD
ENDBRANCH  20  21
BRANCH  19  23
ATOM     23  O   UNL     1       8.979  -4.005  27.082  0.00  0.00    -0.386 OA
ATOM     24  H   UNL     1       9.856  -4.390  27.243  0.00  0.00    +0.210 HD
ENDBRANCH  19  23
BRANCH  18  25
ATOM     25  O   UNL     1       6.259  -4.036  27.649  0.00  0.00    -0.386 OA
ATOM     26  H   UNL     1       5.333  -4.330  27.751  0.00  0.00    +0.210 HD
ENDBRANCH  18  25
BRANCH  17  27
ATOM     27  C   UNL     1       5.123  -2.985  25.065  0.00  0.00    +0.190 C 
BRANCH  27  28
ATOM     28  O   UNL     1       4.959  -1.565  25.019  0.00  0.00    -0.392 OA
ATOM     29  H   UNL     1       5.854  -1.195  25.121  0.00  0.00    +0.210 HD
ENDBRANCH  27  28
ENDBRANCH  17  27
ENDBRANCH  14  15
ENDBRANCH  13  14
ENDBRANCH   3  13
BRANCH   1  30
ATOM     30  O   UNL     1       7.885   1.671  25.165  0.00  0.00    -0.453 OA
BRANCH  30  41
ATOM     31  C   UNL     1       6.356   3.484  25.805  0.00  0.00    +0.181 A 
ATOM     32  O   UNL     1       5.284   3.896  26.608  0.00  0.00    -0.451 OA
ATOM     33  C   UNL     1       4.941   3.236  27.747  0.00  0.00    +0.147 A 
ATOM     34  C   UNL     1       5.649   2.143  28.201  0.00  0.00    +0.109 A 
ATOM     35  C   UNL     1       5.282   1.561  29.424  0.00  0.00    +0.135 A 
ATOM     36  C   UNL     1       4.209   2.068  30.178  0.00  0.00    +0.091 A 
ATOM     37  C   UNL     1       3.491   3.153  29.691  0.00  0.00    +0.124 A 
ATOM     38  C   UNL     1       6.741   1.638  27.357  0.00  0.00    +0.238 A 
ATOM     39  O   UNL     1       7.354   0.642  27.730  0.00  0.00    -0.283 OA
ATOM     40  C   UNL     1       3.838   3.727  28.475  0.00  0.00    +0.092 A 
ATOM     41  C   UNL     1       7.094   2.367  26.074  0.00  0.00    +0.214 A 
BRANCH  31  43
ATOM     42  C   UNL     1       5.570   5.050  23.916  0.00  0.00    +0.015 A 
ATOM     43  C   UNL     1       6.578   4.511  24.724  0.00  0.00    +0.025 A 
ATOM     44  C   UNL     1       7.906   4.857  24.377  0.00  0.00    +0.060 A 
ATOM     45  C   UNL     1       8.191   5.528  23.192  0.00  0.00    +0.159 A 
ATOM     46  C   UNL     1       7.173   5.864  22.315  0.00  0.00    +0.158 A 
ATOM     47  C   UNL     1       5.855   5.671  22.691  0.00  0.00    +0.050 A 
BRANCH  46  48
ATOM     48  O   UNL     1       7.516   6.372  21.095  0.00  0.00    -0.503 OA
ATOM     49  H   UNL     1       6.704   6.439  20.563  0.00  0.00    +0.292 HD
ENDBRANCH  46  48
BRANCH  45  50
ATOM     50  O   UNL     1       9.487   5.807  22.873  0.00  0.00    -0.503 OA
ATOM     51  H   UNL     1       9.463   6.709  22.495  0.00  0.00    +0.292 HD
ENDBRANCH  45  50
ENDBRANCH  31  43
BRANCH  37  52
ATOM     52  O   UNL     1       2.415   3.660  30.358  0.00  0.00    -0.507 OA
ATOM     53  H   UNL     1       2.480   4.630  30.351  0.00  0.00    +0.292 HD
ENDBRANCH  37  52
BRANCH  35  54
ATOM     54  O   UNL     1       5.938   0.486  29.966  0.00  0.00    -0.506 OA
ATOM     55  H   UNL     1       5.357   0.115  30.675  0.00  0.00    +0.292 HD
ENDBRANCH  35  54
ENDBRANCH  30  41
ENDBRANCH   1  30
TORSDOF 18
ENDMDL
MODEL 7
REMARK VINA RESULT:      -6.9      2.961      7.143
REMARK  Name = 
REMARK  18 active torsions:
REMARK  status: ('A' for Active; 'I' for Inactive)
REMARK    1  A    between atoms: C_3  and  O_49
REMARK    2  A    between atoms: C_4  and  O_48
REMARK    3  A    between atoms: C_6  and  C_7
REMARK    4  A    between atoms: C_8  and  O_20
REMARK    5  A    between atoms: C_12  and  O_19
REMARK    6  A    between atoms: C_14  and  O_18
REMARK    7  A    between atoms: O_20  and  C_21
REMARK    8  A    between atoms: C_23  and  O_47
REMARK    9  A    between atoms: C_24  and  O_46
REMARK   10  A    between atoms: C_25  and  O_45
REMARK   11  A    between atoms: C_27  and  C_29
REMARK   12  A    between atoms: C_29  and  O_30
REMARK   13  A    between atoms: O_30  and  C_31
REMARK   14  A    between atoms: C_33  and  O_44
REMARK   15  A    between atoms: C_34  and  O_43
REMARK   16  A    between atoms: C_36  and  O_42
REMARK   17  A    between atoms: C_38  and  C_40
REMARK   18  A    between atoms: C_40  and  O_41
REMARK                            x       y       z     vdW  Elec       q    Type
REMARK                         _______ _______ _______ _____ _____    ______ ____
ROOT
ATOM      1  C   UNL     1       6.699  -0.527  27.061  0.00  0.00    +0.340 C 
ATOM      2  O   UNL     1       5.934  -1.585  27.678  0.00  0.00    -0.331 OA
ATOM      3  C   UNL     1       4.549  -1.297  28.007  0.00  0.00    +0.179 C 
ATOM      4  C   UNL     1       4.175   0.159  28.412  0.00  0.00    +0.177 C 
ATOM      5  C   UNL     1       5.149   1.204  27.877  0.00  0.00    +0.180 C 
ATOM      6  C   UNL     1       6.568   0.654  28.038  0.00  0.00    +0.214 C 
ENDROOT
BRANCH   6   7
ATOM      7  O   UNL     1       7.568   1.658  27.921  0.00  0.00    -0.383 OA
ATOM      8  H   UNL     1       7.167   2.526  28.084  0.00  0.00    +0.210 HD
ENDBRANCH   6   7
BRANCH   5   9
ATOM      9  O   UNL     1       4.928   2.428  28.591  0.00  0.00    -0.386 OA
ATOM     10  H   UNL     1       4.147   2.279  29.153  0.00  0.00    +0.210 HD
ENDBRANCH   5   9
BRANCH   4  11
ATOM     11  O   UNL     1       4.144   0.325  29.845  0.00  0.00    -0.386 OA
ATOM     12  H   UNL     1       4.701   1.109  30.023  0.00  0.00    +0.210 HD
ENDBRANCH   4  11
BRANCH   3  13
ATOM     13  C   UNL     1       4.193  -2.253  29.167  0.00  0.00    +0.197 C 
BRANCH  13  14
ATOM     14  O   UNL     1       3.828  -3.590  28.805  0.00  0.00    -0.346 OA
BRANCH  14  15
ATOM     15  C   UNL     1       4.640  -4.628  29.359  0.00  0.00    +0.282 C 
ATOM     16  O   UNL     1       5.858  -4.734  28.599  0.00  0.00    -0.341 OA
ATOM     17  C   UNL     1       5.666  -5.152  27.232  0.00  0.00    +0.178 C 
ATOM     18  C   UNL     1       4.909  -6.490  27.147  0.00  0.00    +0.177 C 
ATOM     19  C   UNL     1       3.617  -6.445  27.966  0.00  0.00    +0.179 C 
ATOM     20  C   UNL     1       3.937  -6.004  29.402  0.00  0.00    +0.201 C 
BRANCH  20  21
ATOM     21  O   UNL     1       2.763  -6.029  30.211  0.00  0.00    -0.384 OA
ATOM     22  H   UNL     1       2.787  -6.859  30.729  0.00  0.00    +0.210 HD
ENDBRANCH  20  21
BRANCH  19  23
ATOM     23  O   UNL     1       2.661  -5.562  27.344  0.00  0.00    -0.386 OA
ATOM     24  H   UNL     1       3.136  -4.929  26.780  0.00  0.00    +0.210 HD
ENDBRANCH  19  23
BRANCH  18  25
ATOM     25  O   UNL     1       4.596  -6.814  25.792  0.00  0.00    -0.386 OA
ATOM     26  H   UNL     1       3.733  -6.400  25.594  0.00  0.00    +0.210 HD
ENDBRANCH  18  25
BRANCH  17  27
ATOM     27  C   UNL     1       7.056  -5.267  26.585  0.00  0.00    +0.190 C 
BRANCH  27  28
ATOM     28  O   UNL     1       7.943  -6.017  27.418  0.00  0.00    -0.392 OA
ATOM     29  H   UNL     1       7.982  -5.532  28.263  0.00  0.00    +0.210 HD
ENDBRANCH  27  28
ENDBRANCH  17  27
ENDBRANCH  14  15
ENDBRANCH  13  14
ENDBRANCH   3  13
BRANCH   1  30
ATOM     30  O   UNL     1       6.237  -0.331  25.711  0.00  0.00    -0.453 OA
BRANCH  30  41
ATOM     31  C   UNL     1       7.559  -1.451  23.970  0.00  0.00    +0.181 A 
ATOM     32  O   UNL     1       7.784  -2.616  23.223  0.00  0.00    -0.451 OA
ATOM     33  C   UNL     1       6.832  -3.580  23.089  0.00  0.00    +0.147 A 
ATOM     34  C   UNL     1       5.579  -3.454  23.648  0.00  0.00    +0.109 A 
ATOM     35  C   UNL     1       4.626  -4.455  23.403  0.00  0.00    +0.135 A 
ATOM     36  C   UNL     1       4.935  -5.574  22.610  0.00  0.00    +0.091 A 
ATOM     37  C   UNL     1       6.212  -5.696  22.077  0.00  0.00    +0.124 A 
ATOM     38  C   UNL     1       5.322  -2.279  24.493  0.00  0.00    +0.238 A 
ATOM     39  O   UNL     1       4.223  -2.175  25.030  0.00  0.00    -0.283 OA
ATOM     40  C   UNL     1       7.165  -4.718  22.326  0.00  0.00    +0.092 A 
ATOM     41  C   UNL     1       6.402  -1.226  24.657  0.00  0.00    +0.214 A 
BRANCH  31  43
ATOM     42  C   UNL     1       9.739  -0.307  24.730  0.00  0.00    +0.015 A 
ATOM     43  C   UNL     1       8.730  -0.521  23.783  0.00  0.00    +0.025 A 
ATOM     44  C   UNL     1       8.754   0.324  22.647  0.00  0.00    +0.060 A 
ATOM     45  C   UNL     1       9.608   1.420  22.579  0.00  0.00    +0.159 A 
ATOM     46  C   UNL     1      10.453   1.716  23.636  0.00  0.00    +0.158 A 
ATOM     47  C   UNL     1      10.559   0.831  24.695  0.00  0.00    +0.050 A 
BRANCH  46  48
ATOM     48  O   UNL     1      11.150   2.889  23.592  0.00  0.00    -0.503 OA
ATOM     49  H   UNL     1      10.521   3.599  23.375  0.00  0.00    +0.292 HD
ENDBRANCH  46  48
BRANCH  45  50
ATOM     50  O   UNL     1       9.571   2.233  21.485  0.00  0.00    -0.503 OA
ATOM     51  H   UNL     1      10.472   2.184  21.108  0.00  0.00    +0.292 HD
ENDBRANCH  45  50
ENDBRANCH  31  43
BRANCH  37  52
ATOM     52  O   UNL     1       6.580  -6.780  21.336  0.00  0.00    -0.507 OA
ATOM     53  H   UNL     1       6.157  -6.713  20.464  0.00  0.00    +0.292 HD
ENDBRANCH  37  52
BRANCH  35  54
ATOM     54  O   UNL     1       3.349  -4.408  23.899  0.00  0.00    -0.506 OA
ATOM     55  H   UNL     1       3.420  -4.342  24.884  0.00  0.00    +0.292 HD
ENDBRANCH  35  54
ENDBRANCH  30  41
ENDBRANCH   1  30
TORSDOF 18
ENDMDL
MODEL 8
REMARK VINA RESULT:      -6.7      2.543      5.506
REMARK  Name = 
REMARK  18 active torsions:
REMARK  status: ('A' for Active; 'I' for Inactive)
REMARK    1  A    between atoms: C_3  and  O_49
REMARK    2  A    between atoms: C_4  and  O_48
REMARK    3  A    between atoms: C_6  and  C_7
REMARK    4  A    between atoms: C_8  and  O_20
REMARK    5  A    between atoms: C_12  and  O_19
REMARK    6  A    between atoms: C_14  and  O_18
REMARK    7  A    between atoms: O_20  and  C_21
REMARK    8  A    between atoms: C_23  and  O_47
REMARK    9  A    between atoms: C_24  and  O_46
REMARK   10  A    between atoms: C_25  and  O_45
REMARK   11  A    between atoms: C_27  and  C_29
REMARK   12  A    between atoms: C_29  and  O_30
REMARK   13  A    between atoms: O_30  and  C_31
REMARK   14  A    between atoms: C_33  and  O_44
REMARK   15  A    between atoms: C_34  and  O_43
REMARK   16  A    between atoms: C_36  and  O_42
REMARK   17  A    between atoms: C_38  and  C_40
REMARK   18  A    between atoms: C_40  and  O_41
REMARK                            x       y       z     vdW  Elec       q    Type
REMARK                         _______ _______ _______ _____ _____    ______ ____
ROOT
ATOM      1  C   UNL     1       9.104  -0.246  24.612  0.00  0.00    +0.340 C 
ATOM      2  O   UNL     1       9.122   1.197  24.668  0.00  0.00    -0.331 OA
ATOM      3  C   UNL     1       8.607   1.911  23.513  0.00  0.00    +0.179 C 
ATOM      4  C   UNL     1       8.787   1.266  22.107  0.00  0.00    +0.177 C 
ATOM      5  C   UNL     1       8.956  -0.249  22.155  0.00  0.00    +0.180 C 
ATOM      6  C   UNL     1       9.880  -0.586  23.328  0.00  0.00    +0.214 C 
ENDROOT
BRANCH   6   7
ATOM      7  O   UNL     1      10.403  -1.905  23.261  0.00  0.00    -0.383 OA
ATOM      8  H   UNL     1      11.142  -1.922  22.632  0.00  0.00    +0.210 HD
ENDBRANCH   6   7
BRANCH   5   9
ATOM      9  O   UNL     1       9.467  -0.682  20.886  0.00  0.00    -0.386 OA
ATOM     10  H   UNL     1       8.945  -1.465  20.634  0.00  0.00    +0.210 HD
ENDBRANCH   5   9
BRANCH   4  11
ATOM     11  O   UNL     1       9.947   1.786  21.425  0.00  0.00    -0.386 OA
ATOM     12  H   UNL     1       9.614   2.531  20.886  0.00  0.00    +0.210 HD
ENDBRANCH   4  11
BRANCH   3  13
ATOM     13  C   UNL     1       9.308   3.288  23.533  0.00  0.00    +0.197 C 
BRANCH  13  14
ATOM     14  O   UNL     1       8.722   4.291  24.370  0.00  0.00    -0.346 OA
BRANCH  14  15
ATOM     15  C   UNL     1       8.766   5.628  23.862  0.00  0.00    +0.282 C 
ATOM     16  O   UNL     1      10.136   6.067  23.801  0.00  0.00    -0.341 OA
ATOM     17  C   UNL     1      10.779   6.174  25.087  0.00  0.00    +0.178 C 
ATOM     18  C   UNL     1      10.001   7.105  26.036  0.00  0.00    +0.177 C 
ATOM     19  C   UNL     1       8.527   6.703  26.115  0.00  0.00    +0.179 C 
ATOM     20  C   UNL     1       7.940   6.632  24.698  0.00  0.00    +0.201 C 
BRANCH  20  21
ATOM     21  O   UNL     1       6.545   6.336  24.743  0.00  0.00    -0.384 OA
ATOM     22  H   UNL     1       6.396   5.770  25.528  0.00  0.00    +0.210 HD
ENDBRANCH  20  21
BRANCH  19  23
ATOM     23  O   UNL     1       8.388   5.446  26.808  0.00  0.00    -0.386 OA
ATOM     24  H   UNL     1       8.282   5.618  27.759  0.00  0.00    +0.210 HD
ENDBRANCH  19  23
BRANCH  18  25
ATOM     25  O   UNL     1      10.566   7.084  27.348  0.00  0.00    -0.386 OA
ATOM     26  H   UNL     1      10.703   6.145  27.581  0.00  0.00    +0.210 HD
ENDBRANCH  18  25
BRANCH  17  27
ATOM     27  C   UNL     1      12.203   6.702  24.847  0.00  0.00    +0.190 C 
BRANCH  27  28
ATOM     28  O   UNL     1      12.983   5.750  24.120  0.00  0.00    -0.392 OA
ATOM     29  H   UNL     1      12.378   5.012  23.922  0.00  0.00    +0.210 HD
ENDBRANCH  27  28
ENDBRANCH  17  27
ENDBRANCH  14  15
ENDBRANCH  13  14
ENDBRANCH   3  13
BRANCH   1  30
ATOM     30  O   UNL     1       7.744  -0.710  24.714  0.00  0.00    -0.453 OA
BRANCH  30  41
ATOM     31  C   UNL     1       6.076  -1.099  26.474  0.00  0.00    +0.181 A 
ATOM     32  O   UNL     1       5.361  -2.032  27.239  0.00  0.00    -0.451 OA
ATOM     33  C   UNL     1       5.783  -3.318  27.385  0.00  0.00    +0.147 A 
ATOM     34  C   UNL     1       6.955  -3.772  26.821  0.00  0.00    +0.109 A 
ATOM     35  C   UNL     1       7.362  -5.091  27.079  0.00  0.00    +0.135 A 
ATOM     36  C   UNL     1       6.593  -5.944  27.889  0.00  0.00    +0.091 A 
ATOM     37  C   UNL     1       5.401  -5.475  28.426  0.00  0.00    +0.124 A 
ATOM     38  C   UNL     1       7.703  -2.846  25.959  0.00  0.00    +0.238 A 
ATOM     39  O   UNL     1       8.728  -3.250  25.418  0.00  0.00    -0.283 OA
ATOM     40  C   UNL     1       4.983  -4.178  28.165  0.00  0.00    +0.092 A 
ATOM     41  C   UNL     1       7.206  -1.424  25.781  0.00  0.00    +0.214 A 
BRANCH  31  43
ATOM     42  C   UNL     1       4.082   0.483  26.874  0.00  0.00    +0.015 A 
ATOM     43  C   UNL     1       5.446   0.258  26.650  0.00  0.00    +0.025 A 
ATOM     44  C   UNL     1       6.237   1.411  26.424  0.00  0.00    +0.060 A 
ATOM     45  C   UNL     1       5.656   2.661  26.242  0.00  0.00    +0.159 A 
ATOM     46  C   UNL     1       4.279   2.805  26.268  0.00  0.00    +0.158 A 
ATOM     47  C   UNL     1       3.487   1.730  26.630  0.00  0.00    +0.050 A 
BRANCH  46  48
ATOM     48  O   UNL     1       3.752   4.016  25.923  0.00  0.00    -0.503 OA
ATOM     49  H   UNL     1       3.009   3.853  25.316  0.00  0.00    +0.292 HD
ENDBRANCH  46  48
BRANCH  45  50
ATOM     50  O   UNL     1       6.451   3.739  25.985  0.00  0.00    -0.503 OA
ATOM     51  H   UNL     1       7.150   3.703  26.669  0.00  0.00    +0.292 HD
ENDBRANCH  45  50
ENDBRANCH  31  43
BRANCH  37  52
ATOM     52  O   UNL     1       4.593  -6.272  29.184  0.00  0.00    -0.507 OA
ATOM     53  H   UNL     1       4.948  -6.295  30.088  0.00  0.00    +0.292 HD
ENDBRANCH  37  52
BRANCH  35  54
ATOM     54  O   UNL     1       8.522  -5.625  26.579  0.00  0.00    -0.506 OA
ATOM     55  H   UNL     1       8.321  -5.964  25.671  0.00  0.00    +0.292 HD
ENDBRANCH  35  54
ENDBRANCH  30  41
ENDBRANCH   1  30
TORSDOF 18
ENDMDL
MODEL 9
REMARK VINA RESULT:      -6.7      2.015      8.347
REMARK  Name = 
REMARK  18 active torsions:
REMARK  status: ('A' for Active; 'I' for Inactive)
REMARK    1  A    between atoms: C_3  and  O_49
REMARK    2  A    between atoms: C_4  and  O_48
REMARK    3  A    between atoms: C_6  and  C_7
REMARK    4  A    between atoms: C_8  and  O_20
REMARK    5  A    between atoms: C_12  and  O_19
REMARK    6  A    between atoms: C_14  and  O_18
REMARK    7  A    between atoms: O_20  and  C_21
REMARK    8  A    between atoms: C_23  and  O_47
REMARK    9  A    between atoms: C_24  and  O_46
REMARK   10  A    between atoms: C_25  and  O_45
REMARK   11  A    between atoms: C_27  and  C_29
REMARK   12  A    between atoms: C_29  and  O_30
REMARK   13  A    between atoms: O_30  and  C_31
REMARK   14  A    between atoms: C_33  and  O_44
REMARK   15  A    between atoms: C_34  and  O_43
REMARK   16  A    between atoms: C_36  and  O_42
REMARK   17  A    between atoms: C_38  and  C_40
REMARK   18  A    between atoms: C_40  and  O_41
REMARK                            x       y       z     vdW  Elec       q    Type
REMARK                         _______ _______ _______ _____ _____    ______ ____
ROOT
ATOM      1  C   UNL     1       7.032   0.390  23.724  0.00  0.00    +0.340 C 
ATOM      2  O   UNL     1       7.249  -1.015  23.470  0.00  0.00    -0.331 OA
ATOM      3  C   UNL     1       8.587  -1.418  23.073  0.00  0.00    +0.179 C 
ATOM      4  C   UNL     1       9.440  -0.420  22.237  0.00  0.00    +0.177 C 
ATOM      5  C   UNL     1       9.016   1.035  22.417  0.00  0.00    +0.180 C 
ATOM      6  C   UNL     1       7.486   1.084  22.429  0.00  0.00    +0.214 C 
ENDROOT
BRANCH   6   7
ATOM      7  O   UNL     1       6.973   2.393  22.224  0.00  0.00    -0.383 OA
ATOM      8  H   UNL     1       7.297   2.733  21.375  0.00  0.00    +0.210 HD
ENDBRANCH   6   7
BRANCH   5   9
ATOM      9  O   UNL     1       9.602   1.805  21.358  0.00  0.00    -0.386 OA
ATOM     10  H   UNL     1       9.675   2.717  21.692  0.00  0.00    +0.210 HD
ENDBRANCH   5   9
BRANCH   4  11
ATOM     11  O   UNL     1       9.357  -0.698  20.823  0.00  0.00    -0.386 OA
ATOM     12  H   UNL     1       8.772  -1.479  20.750  0.00  0.00    +0.210 HD
ENDBRANCH   4  11
BRANCH   3  13
ATOM     13  C   UNL     1       8.402  -2.725  22.269  0.00  0.00    +0.197 C 
BRANCH  13  14
ATOM     14  O   UNL     1       7.290  -3.549  22.635  0.00  0.00    -0.346 OA
BRANCH  14  15
ATOM     15  C   UNL     1       7.594  -4.923  22.896  0.00  0.00    +0.282 C 
ATOM     16  O   UNL     1       6.403  -5.713  22.726  0.00  0.00    -0.341 OA
ATOM     17  C   UNL     1       5.357  -5.414  23.673  0.00  0.00    +0.178 C 
ATOM     18  C   UNL     1       5.846  -5.560  25.125  0.00  0.00    +0.177 C 
ATOM     19  C   UNL     1       7.133  -4.764  25.356  0.00  0.00    +0.179 C 
ATOM     20  C   UNL     1       8.178  -5.167  24.306  0.00  0.00    +0.201 C 
BRANCH  20  21
ATOM     21  O   UNL     1       9.416  -4.499  24.543  0.00  0.00    -0.384 OA
ATOM     22  H   UNL     1       9.503  -3.802  23.862  0.00  0.00    +0.210 HD
ENDBRANCH  20  21
BRANCH  19  23
ATOM     23  O   UNL     1       6.859  -3.349  25.311  0.00  0.00    -0.386 OA
ATOM     24  H   UNL     1       6.857  -2.998  26.218  0.00  0.00    +0.210 HD
ENDBRANCH  19  23
BRANCH  18  25
ATOM     25  O   UNL     1       4.848  -5.119  26.047  0.00  0.00    -0.386 OA
ATOM     26  H   UNL     1       4.878  -4.142  26.049  0.00  0.00    +0.210 HD
ENDBRANCH  18  25
BRANCH  17  27
ATOM     27  C   UNL     1       4.191  -6.375  23.389  0.00  0.00    +0.190 C 
BRANCH  27  28
ATOM     28  O   UNL     1       4.310  -7.564  24.172  0.00  0.00    -0.392 OA
ATOM     29  H   UNL     1       4.276  -7.271  25.101  0.00  0.00    +0.210 HD
ENDBRANCH  27  28
ENDBRANCH  17  27
ENDBRANCH  14  15
ENDBRANCH  13  14
ENDBRANCH   3  13
BRANCH   1  30
ATOM     30  O   UNL     1       7.695   0.759  24.948  0.00  0.00    -0.453 OA
BRANCH  30  41
ATOM     31  C   UNL     1       6.945   2.735  26.201  0.00  0.00    +0.181 A 
ATOM     32  O   UNL     1       6.003   3.289  27.079  0.00  0.00    -0.451 OA
ATOM     33  C   UNL     1       5.215   2.514  27.872  0.00  0.00    +0.147 A 
ATOM     34  C   UNL     1       5.318   1.140  27.889  0.00  0.00    +0.109 A 
ATOM     35  C   UNL     1       4.524   0.413  28.789  0.00  0.00    +0.135 A 
ATOM     36  C   UNL     1       3.630   1.063  29.658  0.00  0.00    +0.091 A 
ATOM     37  C   UNL     1       3.520   2.446  29.607  0.00  0.00    +0.124 A 
ATOM     38  C   UNL     1       6.248   0.513  26.938  0.00  0.00    +0.238 A 
ATOM     39  O   UNL     1       6.321  -0.712  26.914  0.00  0.00    -0.283 OA
ATOM     40  C   UNL     1       4.291   3.173  28.710  0.00  0.00    +0.092 A 
ATOM     41  C   UNL     1       7.100   1.388  26.038  0.00  0.00    +0.214 A 
BRANCH  31  43
ATOM     42  C   UNL     1       7.394   5.198  25.596  0.00  0.00    +0.015 A 
ATOM     43  C   UNL     1       7.763   3.848  25.599  0.00  0.00    +0.025 A 
ATOM     44  C   UNL     1       8.913   3.516  24.842  0.00  0.00    +0.060 A 
ATOM     45  C   UNL     1       9.514   4.442  23.996  0.00  0.00    +0.159 A 
ATOM     46  C   UNL     1       8.988   5.717  23.867  0.00  0.00    +0.158 A 
ATOM     47  C   UNL     1       7.958   6.118  24.699  0.00  0.00    +0.050 A 
BRANCH  46  48
ATOM     48  O   UNL     1       9.511   6.533  22.907  0.00  0.00    -0.503 OA
ATOM     49  H   UNL     1       9.048   7.388  22.960  0.00  0.00    +0.292 HD
ENDBRANCH  46  48
BRANCH  45  50
ATOM     50  O   UNL     1      10.595   4.069  23.253  0.00  0.00    -0.503 OA
ATOM     51  H   UNL     1      10.587   4.672  22.482  0.00  0.00    +0.292 HD
ENDBRANCH  45  50
ENDBRANCH  31  43
BRANCH  37  52
ATOM     52  O   UNL     1       2.639   3.126  30.396  0.00  0.00    -0.507 OA
ATOM     53  H   UNL     1       1.772   2.692  30.330  0.00  0.00    +0.292 HD
ENDBRANCH  37  52
BRANCH  35  54
ATOM     54  O   UNL     1       4.572  -0.953  28.892  0.00  0.00    -0.506 OA
ATOM     55  H   UNL     1       4.734  -1.169  29.844  0.00  0.00    +0.292 HD
ENDBRANCH  35  54
ENDBRANCH  30  41
ENDBRANCH   1  30
TORSDOF 18
ENDMDL
