MODEL 1
REMARK VINA RESULT:      -6.9      0.000      0.000
REMARK  Name = 
REMARK  12 active torsions:
REMARK  status: ('A' for Active; 'I' for Inactive)
REMARK    1  A    between atoms: C_2  and  O_41
REMARK    2  A    between atoms: C_4  and  O_40
REMARK    3  A    between atoms: C_6  and  O_33
REMARK    4  A    between atoms: C_8  and  O_11
REMARK    5  A    between atoms: O_11  and  C_12
REMARK    6  A    between atoms: C_13  and  C_25
REMARK    7  A    between atoms: C_17  and  O_24
REMARK    8  A    between atoms: C_19  and  O_23
REMARK    9  A    between atoms: C_27  and  O_32
REMARK   10  A    between atoms: O_33  and  C_34
REMARK   11  A    between atoms: C_34  and  C_36
REMARK   12  A    between atoms: C_36  and  C_37
REMARK                            x       y       z     vdW  Elec       q    Type
REMARK                         _______ _______ _______ _____ _____    ______ ____
ROOT
ATOM      1  C   UNL     1       7.496  -2.687  24.943  0.00  0.00    +0.214 A 
ATOM      2  C   UNL     1       8.630  -2.497  23.973  0.00  0.00    +0.238 A 
ATOM      3  O   UNL     1       9.417  -3.394  23.692  0.00  0.00    -0.283 OA
ATOM      4  C   UNL     1       8.767  -1.178  23.331  0.00  0.00    +0.109 A 
ATOM      5  C   UNL     1       7.880  -0.175  23.707  0.00  0.00    +0.147 A 
ATOM      6  C   UNL     1       7.962   1.091  23.114  0.00  0.00    +0.092 A 
ATOM      7  C   UNL     1       8.936   1.340  22.152  0.00  0.00    +0.124 A 
ATOM      8  C   UNL     1       9.828   0.351  21.766  0.00  0.00    +0.091 A 
ATOM      9  O   UNL     1       6.896  -0.359  24.644  0.00  0.00    -0.451 OA
ATOM     10  C   UNL     1       9.739  -0.910  22.352  0.00  0.00    +0.135 A 
ATOM     11  C   UNL     1       6.707  -1.618  25.207  0.00  0.00    +0.181 A 
ENDROOT
BRANCH  11  12
ATOM     12  C   UNL     1       5.512  -1.667  26.112  0.00  0.00    +0.024 A 
ATOM     13  C   UNL     1       5.607  -1.234  27.440  0.00  0.00    +0.011 A 
ATOM     14  C   UNL     1       4.490  -1.267  28.298  0.00  0.00    -0.004 A 
ATOM     15  C   UNL     1       3.213  -1.716  27.916  0.00  0.00    -0.066 A 
ATOM     16  O   UNL     1       2.235  -1.696  28.743  0.00  0.00    -0.871 OA
ATOM     17  C   UNL     1       3.152  -2.168  26.575  0.00  0.00    +0.110 A 
ATOM     18  C   UNL     1       4.268  -2.162  25.712  0.00  0.00    +0.056 A 
BRANCH  17  19
ATOM     19  O   UNL     1       1.954  -2.630  26.066  0.00  0.00    -0.507 OA
ATOM     20  H   UNL     1       2.090  -3.495  25.648  0.00  0.00    +0.292 HD
ENDBRANCH  17  19
ENDBRANCH  11  12
BRANCH   7  21
ATOM     21  O   UNL     1       9.052   2.557  21.542  0.00  0.00    -0.507 OA
ATOM     22  H   UNL     1       9.673   2.470  20.801  0.00  0.00    +0.292 HD
ENDBRANCH   7  21
BRANCH  10  23
ATOM     23  O   UNL     1      10.609  -1.875  21.928  0.00  0.00    -0.506 OA
ATOM     24  H   UNL     1      10.198  -2.751  21.983  0.00  0.00    +0.292 HD
ENDBRANCH  10  23
BRANCH   1  25
ATOM     25  O   UNL     1       7.221  -3.934  25.483  0.00  0.00    -0.452 OA
BRANCH  25  28
ATOM     26  C   UNL     1       5.198  -5.061  22.727  0.00  0.00    +0.198 C 
ATOM     27  O   UNL     1       5.861  -4.170  23.611  0.00  0.00    -0.336 OA
ATOM     28  C   UNL     1       6.480  -4.878  24.699  0.00  0.00    +0.352 C 
ATOM     29  C   UNL     1       5.413  -5.556  25.578  0.00  0.00    +0.275 C 
ATOM     30  C   UNL     1       4.573  -6.490  24.686  0.00  0.00    +0.192 C 
ATOM     31  C   UNL     1       4.057  -5.776  23.439  0.00  0.00    +0.172 C 
BRANCH  30  32
ATOM     32  O   UNL     1       3.428  -6.996  25.391  0.00  0.00    -0.385 OA
ATOM     33  H   UNL     1       3.024  -7.639  24.780  0.00  0.00    +0.210 HD
ENDBRANCH  30  32
BRANCH  31  34
ATOM     34  O   UNL     1       3.437  -6.721  22.556  0.00  0.00    -0.387 OA
ATOM     35  H   UNL     1       3.305  -6.265  21.708  0.00  0.00    +0.210 HD
ENDBRANCH  31  34
BRANCH  29  36
ATOM     36  O   UNL     1       6.109  -6.373  26.547  0.00  0.00    -0.452 OA
BRANCH  36  37
ATOM     37  C   UNL     1       5.610  -6.372  27.808  0.00  0.00    +0.313 C 
ATOM     38  O   UNL     1       5.598  -7.362  28.535  0.00  0.00    -0.250 OA
BRANCH  37  39
ATOM     39  C   UNL     1       4.927  -5.090  28.138  0.00  0.00    +0.172 C 
BRANCH  39  40
ATOM     40  C   UNL     1       3.510  -5.293  28.630  0.00  0.00    +0.052 C 
ATOM     41  O   UNL     1       2.636  -5.321  27.711  0.00  0.00    -0.549 OA
ATOM     42  O   UNL     1       3.312  -5.361  29.874  0.00  0.00    -0.549 OA
ENDBRANCH  39  40
ENDBRANCH  37  39
ENDBRANCH  36  37
ENDBRANCH  29  36
ENDBRANCH  25  28
ENDBRANCH   1  25
TORSDOF 12
ENDMDL
MODEL 2
REMARK VINA RESULT:      -6.8      1.579      2.182
REMARK  Name = 
REMARK  12 active torsions:
REMARK  status: ('A' for Active; 'I' for Inactive)
REMARK    1  A    between atoms: C_2  and  O_41
REMARK    2  A    between atoms: C_4  and  O_40
REMARK    3  A    between atoms: C_6  and  O_33
REMARK    4  A    between atoms: C_8  and  O_11
REMARK    5  A    between atoms: O_11  and  C_12
REMARK    6  A    between atoms: C_13  and  C_25
REMARK    7  A    between atoms: C_17  and  O_24
REMARK    8  A    between atoms: C_19  and  O_23
REMARK    9  A    between atoms: C_27  and  O_32
REMARK   10  A    between atoms: O_33  and  C_34
REMARK   11  A    between atoms: C_34  and  C_36
REMARK   12  A    between atoms: C_36  and  C_37
REMARK                            x       y       z     vdW  Elec       q    Type
REMARK                         _______ _______ _______ _____ _____    ______ ____
ROOT
ATOM      1  C   UNL     1       7.460  -1.620  24.256  0.00  0.00    +0.214 A 
ATOM      2  C   UNL     1       8.270  -0.791  23.298  0.00  0.00    +0.238 A 
ATOM      3  O   UNL     1       9.327  -1.181  22.815  0.00  0.00    -0.283 OA
ATOM      4  C   UNL     1       7.741   0.532  22.923  0.00  0.00    +0.109 A 
ATOM      5  C   UNL     1       6.561   0.956  23.524  0.00  0.00    +0.147 A 
ATOM      6  C   UNL     1       6.012   2.200  23.189  0.00  0.00    +0.092 A 
ATOM      7  C   UNL     1       6.654   3.009  22.256  0.00  0.00    +0.124 A 
ATOM      8  C   UNL     1       7.831   2.600  21.648  0.00  0.00    +0.091 A 
ATOM      9  O   UNL     1       5.878   0.205  24.446  0.00  0.00    -0.451 OA
ATOM     10  C   UNL     1       8.371   1.359  21.977  0.00  0.00    +0.135 A 
ATOM     11  C   UNL     1       6.325  -1.076  24.757  0.00  0.00    +0.181 A 
ENDROOT
BRANCH  11  12
ATOM     12  C   UNL     1       5.392  -1.799  25.682  0.00  0.00    +0.024 A 
ATOM     13  C   UNL     1       5.574  -1.737  27.068  0.00  0.00    +0.011 A 
ATOM     14  C   UNL     1       4.700  -2.404  27.949  0.00  0.00    -0.004 A 
ATOM     15  C   UNL     1       3.592  -3.166  27.536  0.00  0.00    -0.066 A 
ATOM     16  O   UNL     1       2.823  -3.727  28.393  0.00  0.00    -0.871 OA
ATOM     17  C   UNL     1       3.445  -3.229  26.128  0.00  0.00    +0.110 A 
ATOM     18  C   UNL     1       4.326  -2.585  25.234  0.00  0.00    +0.056 A 
BRANCH  17  19
ATOM     19  O   UNL     1       2.393  -3.940  25.585  0.00  0.00    -0.507 OA
ATOM     20  H   UNL     1       2.302  -3.720  24.644  0.00  0.00    +0.292 HD
ENDBRANCH  17  19
ENDBRANCH  11  12
BRANCH   7  21
ATOM     21  O   UNL     1       6.155   4.227  21.893  0.00  0.00    -0.507 OA
ATOM     22  H   UNL     1       5.992   4.219  20.936  0.00  0.00    +0.292 HD
ENDBRANCH   7  21
BRANCH  10  23
ATOM     23  O   UNL     1       9.514   0.968  21.337  0.00  0.00    -0.506 OA
ATOM     24  H   UNL     1       9.967   1.734  20.955  0.00  0.00    +0.292 HD
ENDBRANCH  10  23
BRANCH   1  25
ATOM     25  O   UNL     1       7.822  -2.926  24.552  0.00  0.00    -0.452 OA
BRANCH  25  28
ATOM     26  C   UNL     1       6.472  -4.331  21.525  0.00  0.00    +0.198 C 
ATOM     27  O   UNL     1       6.776  -3.368  22.522  0.00  0.00    -0.336 OA
ATOM     28  C   UNL     1       7.448  -3.968  23.642  0.00  0.00    +0.352 C 
ATOM     29  C   UNL     1       6.522  -4.970  24.354  0.00  0.00    +0.275 C 
ATOM     30  C   UNL     1       6.061  -6.021  23.326  0.00  0.00    +0.192 C 
ATOM     31  C   UNL     1       5.501  -5.374  22.061  0.00  0.00    +0.172 C 
BRANCH  30  32
ATOM     32  O   UNL     1       5.030  -6.863  23.865  0.00  0.00    -0.385 OA
ATOM     33  H   UNL     1       4.316  -6.836  23.202  0.00  0.00    +0.210 HD
ENDBRANCH  30  32
BRANCH  31  34
ATOM     34  O   UNL     1       5.253  -6.378  21.068  0.00  0.00    -0.387 OA
ATOM     35  H   UNL     1       4.676  -7.042  21.481  0.00  0.00    +0.210 HD
ENDBRANCH  31  34
BRANCH  29  36
ATOM     36  O   UNL     1       7.310  -5.646  25.359  0.00  0.00    -0.452 OA
BRANCH  36  37
ATOM     37  C   UNL     1       7.113  -5.259  26.645  0.00  0.00    +0.313 C 
ATOM     38  O   UNL     1       7.917  -4.583  27.282  0.00  0.00    -0.250 OA
BRANCH  37  39
ATOM     39  C   UNL     1       5.904  -5.894  27.241  0.00  0.00    +0.172 C 
BRANCH  39  40
ATOM     40  C   UNL     1       6.081  -6.224  28.707  0.00  0.00    +0.052 C 
ATOM     41  O   UNL     1       6.398  -7.431  28.937  0.00  0.00    -0.549 OA
ATOM     42  O   UNL     1       5.853  -5.319  29.557  0.00  0.00    -0.549 OA
ENDBRANCH  39  40
ENDBRANCH  37  39
ENDBRANCH  36  37
ENDBRANCH  29  36
ENDBRANCH  25  28
ENDBRANCH   1  25
TORSDOF 12
ENDMDL
MODEL 3
REMARK VINA RESULT:      -6.6      2.096      4.876
REMARK  Name = 
REMARK  12 active torsions:
REMARK  status: ('A' for Active; 'I' for Inactive)
REMARK    1  A    between atoms: C_2  and  O_41
REMARK    2  A    between atoms: C_4  and  O_40
REMARK    3  A    between atoms: C_6  and  O_33
REMARK    4  A    between atoms: C_8  and  O_11
REMARK    5  A    between atoms: O_11  and  C_12
REMARK    6  A    between atoms: C_13  and  C_25
REMARK    7  A    between atoms: C_17  and  O_24
REMARK    8  A    between atoms: C_19  and  O_23
REMARK    9  A    between atoms: C_27  and  O_32
REMARK   10  A    between atoms: O_33  and  C_34
REMARK   11  A    between atoms: C_34  and  C_36
REMARK   12  A    between atoms: C_36  and  C_37
REMARK                            x       y       z     vdW  Elec       q    Type
REMARK                         _______ _______ _______ _____ _____    ______ ____
ROOT
ATOM      1  C   UNL     1       6.925  -0.799  25.392  0.00  0.00    +0.214 A 
ATOM      2  C   UNL     1       7.213   0.595  25.876  0.00  0.00    +0.238 A 
ATOM      3  O   UNL     1       7.333   0.872  27.064  0.00  0.00    -0.283 OA
ATOM      4  C   UNL     1       7.376   1.652  24.861  0.00  0.00    +0.109 A 
ATOM      5  C   UNL     1       7.191   1.307  23.527  0.00  0.00    +0.147 A 
ATOM      6  C   UNL     1       7.348   2.272  22.525  0.00  0.00    +0.092 A 
ATOM      7  C   UNL     1       7.685   3.577  22.872  0.00  0.00    +0.124 A 
ATOM      8  C   UNL     1       7.872   3.937  24.198  0.00  0.00    +0.091 A 
ATOM      9  O   UNL     1       6.863   0.039  23.119  0.00  0.00    -0.451 OA
ATOM     10  C   UNL     1       7.723   2.972  25.192  0.00  0.00    +0.135 A 
ATOM     11  C   UNL     1       6.777  -0.986  24.058  0.00  0.00    +0.181 A 
ENDROOT
BRANCH  11  12
ATOM     12  C   UNL     1       6.536  -2.323  23.425  0.00  0.00    +0.024 A 
ATOM     13  C   UNL     1       7.585  -3.024  22.820  0.00  0.00    +0.011 A 
ATOM     14  C   UNL     1       7.374  -4.285  22.229  0.00  0.00    -0.004 A 
ATOM     15  C   UNL     1       6.132  -4.945  22.196  0.00  0.00    -0.066 A 
ATOM     16  O   UNL     1       6.016  -6.103  21.663  0.00  0.00    -0.871 OA
ATOM     17  C   UNL     1       5.084  -4.202  22.796  0.00  0.00    +0.110 A 
ATOM     18  C   UNL     1       5.277  -2.929  23.371  0.00  0.00    +0.056 A 
BRANCH  17  19
ATOM     19  O   UNL     1       3.811  -4.736  22.839  0.00  0.00    -0.507 OA
ATOM     20  H   UNL     1       3.255  -4.204  23.430  0.00  0.00    +0.292 HD
ENDBRANCH  17  19
ENDBRANCH  11  12
BRANCH   7  21
ATOM     21  O   UNL     1       7.854   4.553  21.932  0.00  0.00    -0.507 OA
ATOM     22  H   UNL     1       8.516   5.183  22.258  0.00  0.00    +0.292 HD
ENDBRANCH   7  21
BRANCH  10  23
ATOM     23  O   UNL     1       7.947   3.348  26.487  0.00  0.00    -0.506 OA
ATOM     24  H   UNL     1       8.263   4.262  26.525  0.00  0.00    +0.292 HD
ENDBRANCH  10  23
BRANCH   1  25
ATOM     25  O   UNL     1       6.893  -1.868  26.275  0.00  0.00    -0.452 OA
BRANCH  25  28
ATOM     26  C   UNL     1       3.880  -1.589  28.224  0.00  0.00    +0.198 C 
ATOM     27  O   UNL     1       5.181  -1.292  27.739  0.00  0.00    -0.336 OA
ATOM     28  C   UNL     1       5.630  -2.288  26.804  0.00  0.00    +0.352 C 
ATOM     29  C   UNL     1       5.788  -3.651  27.501  0.00  0.00    +0.275 C 
ATOM     30  C   UNL     1       4.439  -4.029  28.142  0.00  0.00    +0.192 C 
ATOM     31  C   UNL     1       3.880  -2.897  29.003  0.00  0.00    +0.172 C 
BRANCH  30  32
ATOM     32  O   UNL     1       4.565  -5.183  28.987  0.00  0.00    -0.385 OA
ATOM     33  H   UNL     1       5.426  -5.071  29.432  0.00  0.00    +0.210 HD
ENDBRANCH  30  32
BRANCH  31  34
ATOM     34  O   UNL     1       2.550  -3.220  29.431  0.00  0.00    -0.387 OA
ATOM     35  H   UNL     1       2.125  -2.381  29.676  0.00  0.00    +0.210 HD
ENDBRANCH  31  34
BRANCH  29  36
ATOM     36  O   UNL     1       6.082  -4.628  26.477  0.00  0.00    -0.452 OA
BRANCH  36  37
ATOM     37  C   UNL     1       7.113  -5.474  26.727  0.00  0.00    +0.313 C 
ATOM     38  O   UNL     1       7.320  -5.989  27.823  0.00  0.00    -0.250 OA
BRANCH  37  39
ATOM     39  C   UNL     1       8.054  -5.563  25.575  0.00  0.00    +0.172 C 
BRANCH  39  40
ATOM     40  C   UNL     1       9.253  -4.651  25.730  0.00  0.00    +0.052 C 
ATOM     41  O   UNL     1      10.125  -4.775  24.817  0.00  0.00    -0.549 OA
ATOM     42  O   UNL     1       9.312  -3.908  26.748  0.00  0.00    -0.549 OA
ENDBRANCH  39  40
ENDBRANCH  37  39
ENDBRANCH  36  37
ENDBRANCH  29  36
ENDBRANCH  25  28
ENDBRANCH   1  25
TORSDOF 12
ENDMDL
MODEL 4
REMARK VINA RESULT:      -6.4      2.148      8.355
REMARK  Name = 
REMARK  12 active torsions:
REMARK  status: ('A' for Active; 'I' for Inactive)
REMARK    1  A    between atoms: C_2  and  O_41
REMARK    2  A    between atoms: C_4  and  O_40
REMARK    3  A    between atoms: C_6  and  O_33
REMARK    4  A    between atoms: C_8  and  O_11
REMARK    5  A    between atoms: O_11  and  C_12
REMARK    6  A    between atoms: C_13  and  C_25
REMARK    7  A    between atoms: C_17  and  O_24
REMARK    8  A    between atoms: C_19  and  O_23
REMARK    9  A    between atoms: C_27  and  O_32
REMARK   10  A    between atoms: O_33  and  C_34
REMARK   11  A    between atoms: C_34  and  C_36
REMARK   12  A    between atoms: C_36  and  C_37
REMARK                            x       y       z     vdW  Elec       q    Type
REMARK                         _______ _______ _______ _____ _____    ______ ____
ROOT
ATOM      1  C   UNL     1       5.144  -2.383  24.945  0.00  0.00    +0.214 A 
ATOM      2  C   UNL     1       3.832  -2.947  25.418  0.00  0.00    +0.238 A 
ATOM      3  O   UNL     1       2.933  -2.244  25.867  0.00  0.00    -0.283 OA
ATOM      4  C   UNL     1       3.634  -4.403  25.308  0.00  0.00    +0.109 A 
ATOM      5  C   UNL     1       4.691  -5.170  24.833  0.00  0.00    +0.147 A 
ATOM      6  C   UNL     1       4.547  -6.556  24.697  0.00  0.00    +0.092 A 
ATOM      7  C   UNL     1       3.341  -7.160  25.043  0.00  0.00    +0.124 A 
ATOM      8  C   UNL     1       2.277  -6.409  25.519  0.00  0.00    +0.091 A 
ATOM      9  O   UNL     1       5.901  -4.635  24.470  0.00  0.00    -0.451 OA
ATOM     10  C   UNL     1       2.422  -5.029  25.645  0.00  0.00    +0.135 A 
ATOM     11  C   UNL     1       6.081  -3.255  24.500  0.00  0.00    +0.181 A 
ENDROOT
BRANCH  11  12
ATOM     12  C   UNL     1       7.414  -2.839  23.953  0.00  0.00    +0.024 A 
ATOM     13  C   UNL     1       8.587  -3.089  24.672  0.00  0.00    +0.011 A 
ATOM     14  C   UNL     1       9.846  -2.711  24.166  0.00  0.00    -0.004 A 
ATOM     15  C   UNL     1      10.041  -2.073  22.928  0.00  0.00    -0.066 A 
ATOM     16  O   UNL     1      11.218  -1.779  22.517  0.00  0.00    -0.871 OA
ATOM     17  C   UNL     1       8.834  -1.813  22.232  0.00  0.00    +0.110 A 
ATOM     18  C   UNL     1       7.566  -2.166  22.738  0.00  0.00    +0.056 A 
BRANCH  17  19
ATOM     19  O   UNL     1       8.880  -1.197  20.997  0.00  0.00    -0.507 OA
ATOM     20  H   UNL     1       8.027  -1.304  20.547  0.00  0.00    +0.292 HD
ENDBRANCH  17  19
ENDBRANCH  11  12
BRANCH   7  21
ATOM     21  O   UNL     1       3.149  -8.507  24.924  0.00  0.00    -0.507 OA
ATOM     22  H   UNL     1       2.949  -8.708  23.995  0.00  0.00    +0.292 HD
ENDBRANCH   7  21
BRANCH  10  23
ATOM     23  O   UNL     1       1.346  -4.310  26.085  0.00  0.00    -0.506 OA
ATOM     24  H   UNL     1       1.564  -3.368  26.133  0.00  0.00    +0.292 HD
ENDBRANCH  10  23
BRANCH   1  25
ATOM     25  O   UNL     1       5.354  -1.013  24.891  0.00  0.00    -0.452 OA
BRANCH  25  28
ATOM     26  C   UNL     1       6.087   0.251  28.181  0.00  0.00    +0.198 C 
ATOM     27  O   UNL     1       5.333  -0.255  27.090  0.00  0.00    -0.336 OA
ATOM     28  C   UNL     1       6.147  -0.396  25.913  0.00  0.00    +0.352 C 
ATOM     29  C   UNL     1       6.638   0.979  25.427  0.00  0.00    +0.275 C 
ATOM     30  C   UNL     1       7.403   1.657  26.580  0.00  0.00    +0.192 C 
ATOM     31  C   UNL     1       6.599   1.653  27.878  0.00  0.00    +0.172 C 
BRANCH  30  32
ATOM     32  O   UNL     1       7.708   3.026  26.272  0.00  0.00    -0.385 OA
ATOM     33  H   UNL     1       8.524   2.985  25.741  0.00  0.00    +0.210 HD
ENDBRANCH  30  32
BRANCH  31  34
ATOM     34  O   UNL     1       7.414   2.128  28.959  0.00  0.00    -0.387 OA
ATOM     35  H   UNL     1       7.659   1.349  29.485  0.00  0.00    +0.210 HD
ENDBRANCH  31  34
BRANCH  29  36
ATOM     36  O   UNL     1       7.571   0.748  24.348  0.00  0.00    -0.452 OA
BRANCH  36  37
ATOM     37  C   UNL     1       7.392   1.486  23.224  0.00  0.00    +0.313 C 
ATOM     38  O   UNL     1       6.515   1.260  22.395  0.00  0.00    -0.250 OA
BRANCH  37  39
ATOM     39  C   UNL     1       8.485   2.480  23.029  0.00  0.00    +0.172 C 
BRANCH  39  40
ATOM     40  C   UNL     1       9.852   1.835  22.942  0.00  0.00    +0.052 C 
ATOM     41  O   UNL     1      10.127   1.344  21.805  0.00  0.00    -0.549 OA
ATOM     42  O   UNL     1      10.560   1.790  23.985  0.00  0.00    -0.549 OA
ENDBRANCH  39  40
ENDBRANCH  37  39
ENDBRANCH  36  37
ENDBRANCH  29  36
ENDBRANCH  25  28
ENDBRANCH   1  25
TORSDOF 12
ENDMDL
MODEL 5
REMARK VINA RESULT:      -6.3      3.041      6.506
REMARK  Name = 
REMARK  12 active torsions:
REMARK  status: ('A' for Active; 'I' for Inactive)
REMARK    1  A    between atoms: C_2  and  O_41
REMARK    2  A    between atoms: C_4  and  O_40
REMARK    3  A    between atoms: C_6  and  O_33
REMARK    4  A    between atoms: C_8  and  O_11
REMARK    5  A    between atoms: O_11  and  C_12
REMARK    6  A    between atoms: C_13  and  C_25
REMARK    7  A    between atoms: C_17  and  O_24
REMARK    8  A    between atoms: C_19  and  O_23
REMARK    9  A    between atoms: C_27  and  O_32
REMARK   10  A    between atoms: O_33  and  C_34
REMARK   11  A    between atoms: C_34  and  C_36
REMARK   12  A    between atoms: C_36  and  C_37
REMARK                            x       y       z     vdW  Elec       q    Type
REMARK                         _______ _______ _______ _____ _____    ______ ____
ROOT
ATOM      1  C   UNL     1       7.787   1.941  23.681  0.00  0.00    +0.214 A 
ATOM      2  C   UNL     1       7.735   3.437  23.536  0.00  0.00    +0.238 A 
ATOM      3  O   UNL     1       6.683   4.054  23.412  0.00  0.00    -0.283 OA
ATOM      4  C   UNL     1       9.011   4.173  23.570  0.00  0.00    +0.109 A 
ATOM      5  C   UNL     1      10.186   3.435  23.671  0.00  0.00    +0.147 A 
ATOM      6  C   UNL     1      11.423   4.090  23.720  0.00  0.00    +0.092 A 
ATOM      7  C   UNL     1      11.470   5.480  23.665  0.00  0.00    +0.124 A 
ATOM      8  C   UNL     1      10.307   6.230  23.565  0.00  0.00    +0.091 A 
ATOM      9  O   UNL     1      10.207   2.066  23.734  0.00  0.00    -0.451 OA
ATOM     10  C   UNL     1       9.078   5.575  23.524  0.00  0.00    +0.135 A 
ATOM     11  C   UNL     1       9.008   1.359  23.776  0.00  0.00    +0.181 A 
ENDROOT
BRANCH  11  12
ATOM     12  C   UNL     1       9.216  -0.113  23.972  0.00  0.00    +0.024 A 
ATOM     13  C   UNL     1       9.796  -0.890  22.964  0.00  0.00    +0.011 A 
ATOM     14  C   UNL     1      10.005  -2.272  23.139  0.00  0.00    -0.004 A 
ATOM     15  C   UNL     1       9.670  -2.981  24.307  0.00  0.00    -0.066 A 
ATOM     16  O   UNL     1       9.911  -4.234  24.407  0.00  0.00    -0.871 OA
ATOM     17  C   UNL     1       9.065  -2.173  25.301  0.00  0.00    +0.110 A 
ATOM     18  C   UNL     1       8.829  -0.793  25.130  0.00  0.00    +0.056 A 
BRANCH  17  19
ATOM     19  O   UNL     1       8.692  -2.740  26.504  0.00  0.00    -0.507 OA
ATOM     20  H   UNL     1       8.310  -2.060  27.081  0.00  0.00    +0.292 HD
ENDBRANCH  17  19
ENDBRANCH  11  12
BRANCH   7  21
ATOM     21  O   UNL     1      12.650   6.164  23.715  0.00  0.00    -0.507 OA
ATOM     22  H   UNL     1      12.458   7.113  23.651  0.00  0.00    +0.292 HD
ENDBRANCH   7  21
BRANCH  10  23
ATOM     23  O   UNL     1       7.948   6.342  23.459  0.00  0.00    -0.506 OA
ATOM     24  H   UNL     1       7.158   5.793  23.577  0.00  0.00    +0.292 HD
ENDBRANCH  10  23
BRANCH   1  25
ATOM     25  O   UNL     1       6.625   1.194  23.794  0.00  0.00    -0.452 OA
BRANCH  25  28
ATOM     26  C   UNL     1       5.833   2.321  27.120  0.00  0.00    +0.198 C 
ATOM     27  O   UNL     1       6.559   2.153  25.912  0.00  0.00    -0.336 OA
ATOM     28  C   UNL     1       5.900   1.229  25.030  0.00  0.00    +0.352 C 
ATOM     29  C   UNL     1       5.868  -0.180  25.650  0.00  0.00    +0.275 C 
ATOM     30  C   UNL     1       5.169  -0.091  27.020  0.00  0.00    +0.192 C 
ATOM     31  C   UNL     1       5.763   1.012  27.893  0.00  0.00    +0.172 C 
BRANCH  30  32
ATOM     32  O   UNL     1       5.289  -1.322  27.750  0.00  0.00    -0.385 OA
ATOM     33  H   UNL     1       6.153  -1.262  28.197  0.00  0.00    +0.210 HD
ENDBRANCH  30  32
BRANCH  31  34
ATOM     34  O   UNL     1       4.972   1.177  29.078  0.00  0.00    -0.387 OA
ATOM     35  H   UNL     1       4.600   0.305  29.288  0.00  0.00    +0.210 HD
ENDBRANCH  31  34
BRANCH  29  36
ATOM     36  O   UNL     1       5.057  -1.012  24.790  0.00  0.00    -0.452 OA
BRANCH  36  37
ATOM     37  C   UNL     1       5.577  -2.218  24.450  0.00  0.00    +0.313 C 
ATOM     38  O   UNL     1       5.759  -3.130  25.252  0.00  0.00    -0.250 OA
BRANCH  37  39
ATOM     39  C   UNL     1       6.059  -2.241  23.041  0.00  0.00    +0.172 C 
BRANCH  39  40
ATOM     40  C   UNL     1       6.012  -3.626  22.430  0.00  0.00    +0.052 C 
ATOM     41  O   UNL     1       4.841  -4.049  22.184  0.00  0.00    -0.549 OA
ATOM     42  O   UNL     1       7.098  -4.248  22.273  0.00  0.00    -0.549 OA
ENDBRANCH  39  40
ENDBRANCH  37  39
ENDBRANCH  36  37
ENDBRANCH  29  36
ENDBRANCH  25  28
ENDBRANCH   1  25
TORSDOF 12
ENDMDL
MODEL 6
REMARK VINA RESULT:      -6.3      2.759      8.156
REMARK  Name = 
REMARK  12 active torsions:
REMARK  status: ('A' for Active; 'I' for Inactive)
REMARK    1  A    between atoms: C_2  and  O_41
REMARK    2  A    between atoms: C_4  and  O_40
REMARK    3  A    between atoms: C_6  and  O_33
REMARK    4  A    between atoms: C_8  and  O_11
REMARK    5  A    between atoms: O_11  and  C_12
REMARK    6  A    between atoms: C_13  and  C_25
REMARK    7  A    between atoms: C_17  and  O_24
REMARK    8  A    between atoms: C_19  and  O_23
REMARK    9  A    between atoms: C_27  and  O_32
REMARK   10  A    between atoms: O_33  and  C_34
REMARK   11  A    between atoms: C_34  and  C_36
REMARK   12  A    between atoms: C_36  and  C_37
REMARK                            x       y       z     vdW  Elec       q    Type
REMARK                         _______ _______ _______ _____ _____    ______ ____
ROOT
ATOM      1  C   UNL     1       6.219  -0.963  24.692  0.00  0.00    +0.214 A 
ATOM      2  C   UNL     1       5.200  -2.068  24.740  0.00  0.00    +0.238 A 
ATOM      3  O   UNL     1       4.126  -1.954  25.319  0.00  0.00    -0.283 OA
ATOM      4  C   UNL     1       5.518  -3.323  24.035  0.00  0.00    +0.109 A 
ATOM      5  C   UNL     1       6.763  -3.429  23.425  0.00  0.00    +0.147 A 
ATOM      6  C   UNL     1       7.107  -4.596  22.732  0.00  0.00    +0.092 A 
ATOM      7  C   UNL     1       6.198  -5.648  22.660  0.00  0.00    +0.124 A 
ATOM      8  C   UNL     1       4.953  -5.558  23.263  0.00  0.00    +0.091 A 
ATOM      9  O   UNL     1       7.700  -2.428  23.455  0.00  0.00    -0.451 OA
ATOM     10  C   UNL     1       4.611  -4.392  23.946  0.00  0.00    +0.135 A 
ATOM     11  C   UNL     1       7.388  -1.210  24.054  0.00  0.00    +0.181 A 
ENDROOT
BRANCH  11  12
ATOM     12  C   UNL     1       8.476  -0.193  23.883  0.00  0.00    +0.024 A 
ATOM     13  C   UNL     1       9.530  -0.117  24.800  0.00  0.00    +0.011 A 
ATOM     14  C   UNL     1      10.563   0.828  24.646  0.00  0.00    -0.004 A 
ATOM     15  C   UNL     1      10.637   1.753  23.590  0.00  0.00    -0.066 A 
ATOM     16  O   UNL     1      11.619   2.570  23.498  0.00  0.00    -0.871 OA
ATOM     17  C   UNL     1       9.546   1.669  22.690  0.00  0.00    +0.110 A 
ATOM     18  C   UNL     1       8.494   0.742  22.844  0.00  0.00    +0.056 A 
BRANCH  17  19
ATOM     19  O   UNL     1       9.496   2.516  21.600  0.00  0.00    -0.507 OA
ATOM     20  H   UNL     1      10.389   2.637  21.240  0.00  0.00    +0.292 HD
ENDBRANCH  17  19
ENDBRANCH  11  12
BRANCH   7  21
ATOM     21  O   UNL     1       6.485  -6.804  21.992  0.00  0.00    -0.507 OA
ATOM     22  H   UNL     1       5.654  -7.180  21.659  0.00  0.00    +0.292 HD
ENDBRANCH   7  21
BRANCH  10  23
ATOM     23  O   UNL     1       3.365  -4.318  24.502  0.00  0.00    -0.506 OA
ATOM     24  H   UNL     1       3.397  -4.558  25.440  0.00  0.00    +0.292 HD
ENDBRANCH  10  23
BRANCH   1  25
ATOM     25  O   UNL     1       5.936   0.290  25.214  0.00  0.00    -0.452 OA
BRANCH  25  28
ATOM     26  C   UNL     1       5.633   0.337  28.801  0.00  0.00    +0.198 C 
ATOM     27  O   UNL     1       5.267   0.178  27.439  0.00  0.00    -0.336 OA
ATOM     28  C   UNL     1       6.331   0.582  26.561  0.00  0.00    +0.352 C 
ATOM     29  C   UNL     1       6.607   2.089  26.705  0.00  0.00    +0.275 C 
ATOM     30  C   UNL     1       6.934   2.385  28.181  0.00  0.00    +0.192 C 
ATOM     31  C   UNL     1       5.883   1.803  29.125  0.00  0.00    +0.172 C 
BRANCH  30  32
ATOM     32  O   UNL     1       6.994   3.798  28.431  0.00  0.00    -0.385 OA
ATOM     33  H   UNL     1       7.325   4.183  27.598  0.00  0.00    +0.210 HD
ENDBRANCH  30  32
BRANCH  31  34
ATOM     34  O   UNL     1       6.316   1.944  30.485  0.00  0.00    -0.387 OA
ATOM     35  H   UNL     1       5.521   1.875  31.039  0.00  0.00    +0.210 HD
ENDBRANCH  31  34
BRANCH  29  36
ATOM     36  O   UNL     1       7.783   2.389  25.920  0.00  0.00    -0.452 OA
BRANCH  36  37
ATOM     37  C   UNL     1       7.766   3.553  25.224  0.00  0.00    +0.313 C 
ATOM     38  O   UNL     1       8.715   4.332  25.176  0.00  0.00    -0.250 OA
BRANCH  37  39
ATOM     39  C   UNL     1       6.414   3.857  24.677  0.00  0.00    +0.172 C 
BRANCH  39  40
ATOM     40  C   UNL     1       6.304   3.567  23.195  0.00  0.00    +0.052 C 
ATOM     41  O   UNL     1       5.481   2.648  22.902  0.00  0.00    -0.549 OA
ATOM     42  O   UNL     1       7.055   4.202  22.404  0.00  0.00    -0.549 OA
ENDBRANCH  39  40
ENDBRANCH  37  39
ENDBRANCH  36  37
ENDBRANCH  29  36
ENDBRANCH  25  28
ENDBRANCH   1  25
TORSDOF 12
ENDMDL
MODEL 7
REMARK VINA RESULT:      -6.3      2.258      4.533
REMARK  Name = 
REMARK  12 active torsions:
REMARK  status: ('A' for Active; 'I' for Inactive)
REMARK    1  A    between atoms: C_2  and  O_41
REMARK    2  A    between atoms: C_4  and  O_40
REMARK    3  A    between atoms: C_6  and  O_33
REMARK    4  A    between atoms: C_8  and  O_11
REMARK    5  A    between atoms: O_11  and  C_12
REMARK    6  A    between atoms: C_13  and  C_25
REMARK    7  A    between atoms: C_17  and  O_24
REMARK    8  A    between atoms: C_19  and  O_23
REMARK    9  A    between atoms: C_27  and  O_32
REMARK   10  A    between atoms: O_33  and  C_34
REMARK   11  A    between atoms: C_34  and  C_36
REMARK   12  A    between atoms: C_36  and  C_37
REMARK                            x       y       z     vdW  Elec       q    Type
REMARK                         _______ _______ _______ _____ _____    ______ ____
ROOT
ATOM      1  C   UNL     1       5.762  -1.113  25.118  0.00  0.00    +0.214 A 
ATOM      2  C   UNL     1       5.589   0.322  25.531  0.00  0.00    +0.238 A 
ATOM      3  O   UNL     1       5.065   0.648  26.590  0.00  0.00    -0.283 OA
ATOM      4  C   UNL     1       6.096   1.362  24.618  0.00  0.00    +0.109 A 
ATOM      5  C   UNL     1       6.645   0.955  23.407  0.00  0.00    +0.147 A 
ATOM      6  C   UNL     1       7.153   1.905  22.513  0.00  0.00    +0.092 A 
ATOM      7  C   UNL     1       7.102   3.257  22.841  0.00  0.00    +0.124 A 
ATOM      8  C   UNL     1       6.557   3.679  24.044  0.00  0.00    +0.091 A 
ATOM      9  O   UNL     1       6.730  -0.360  23.028  0.00  0.00    -0.451 OA
ATOM     10  C   UNL     1       6.059   2.730  24.935  0.00  0.00    +0.135 A 
ATOM     11  C   UNL     1       6.322  -1.359  23.908  0.00  0.00    +0.181 A 
ENDROOT
BRANCH  11  12
ATOM     12  C   UNL     1       6.602  -2.735  23.383  0.00  0.00    +0.024 A 
ATOM     13  C   UNL     1       5.844  -3.264  22.333  0.00  0.00    +0.011 A 
ATOM     14  C   UNL     1       6.103  -4.552  21.825  0.00  0.00    -0.004 A 
ATOM     15  C   UNL     1       7.118  -5.401  22.302  0.00  0.00    -0.066 A 
ATOM     16  O   UNL     1       7.313  -6.552  21.776  0.00  0.00    -0.871 OA
ATOM     17  C   UNL     1       7.855  -4.848  23.379  0.00  0.00    +0.110 A 
ATOM     18  C   UNL     1       7.591  -3.569  23.912  0.00  0.00    +0.056 A 
BRANCH  17  19
ATOM     19  O   UNL     1       8.888  -5.573  23.939  0.00  0.00    -0.507 OA
ATOM     20  H   UNL     1       9.210  -6.230  23.301  0.00  0.00    +0.292 HD
ENDBRANCH  17  19
ENDBRANCH  11  12
BRANCH   7  21
ATOM     21  O   UNL     1       7.588   4.221  22.004  0.00  0.00    -0.507 OA
ATOM     22  H   UNL     1       7.315   5.088  22.344  0.00  0.00    +0.292 HD
ENDBRANCH   7  21
BRANCH  10  23
ATOM     23  O   UNL     1       5.559   3.174  26.128  0.00  0.00    -0.506 OA
ATOM     24  H   UNL     1       6.276   3.475  26.705  0.00  0.00    +0.292 HD
ENDBRANCH  10  23
BRANCH   1  25
ATOM     25  O   UNL     1       5.434  -2.148  25.981  0.00  0.00    -0.452 OA
BRANCH  25  28
ATOM     26  C   UNL     1       1.948  -2.956  25.591  0.00  0.00    +0.198 C 
ATOM     27  O   UNL     1       3.110  -2.239  25.977  0.00  0.00    -0.336 OA
ATOM     28  C   UNL     1       4.306  -2.975  25.669  0.00  0.00    +0.352 C 
ATOM     29  C   UNL     1       4.370  -4.272  26.496  0.00  0.00    +0.275 C 
ATOM     30  C   UNL     1       3.097  -5.092  26.212  0.00  0.00    +0.192 C 
ATOM     31  C   UNL     1       1.830  -4.255  26.376  0.00  0.00    +0.172 C 
BRANCH  30  32
ATOM     32  O   UNL     1       2.986  -6.212  27.105  0.00  0.00    -0.385 OA
ATOM     33  H   UNL     1       2.939  -6.991  26.521  0.00  0.00    +0.210 HD
ENDBRANCH  30  32
BRANCH  31  34
ATOM     34  O   UNL     1       0.690  -5.002  25.931  0.00  0.00    -0.387 OA
ATOM     35  H   UNL     1       0.001  -4.888  26.607  0.00  0.00    +0.210 HD
ENDBRANCH  31  34
BRANCH  29  36
ATOM     36  O   UNL     1       5.504  -5.031  26.021  0.00  0.00    -0.452 OA
BRANCH  36  37
ATOM     37  C   UNL     1       6.461  -5.325  26.936  0.00  0.00    +0.313 C 
ATOM     38  O   UNL     1       7.536  -5.848  26.651  0.00  0.00    -0.250 OA
BRANCH  37  39
ATOM     39  C   UNL     1       5.988  -5.105  28.331  0.00  0.00    +0.172 C 
BRANCH  39  40
ATOM     40  C   UNL     1       5.991  -6.374  29.156  0.00  0.00    +0.052 C 
ATOM     41  O   UNL     1       5.466  -7.375  28.578  0.00  0.00    -0.549 OA
ATOM     42  O   UNL     1       6.447  -6.323  30.331  0.00  0.00    -0.549 OA
ENDBRANCH  39  40
ENDBRANCH  37  39
ENDBRANCH  36  37
ENDBRANCH  29  36
ENDBRANCH  25  28
ENDBRANCH   1  25
TORSDOF 12
ENDMDL
MODEL 8
REMARK VINA RESULT:      -6.2      1.984      3.227
REMARK  Name = 
REMARK  12 active torsions:
REMARK  status: ('A' for Active; 'I' for Inactive)
REMARK    1  A    between atoms: C_2  and  O_41
REMARK    2  A    between atoms: C_4  and  O_40
REMARK    3  A    between atoms: C_6  and  O_33
REMARK    4  A    between atoms: C_8  and  O_11
REMARK    5  A    between atoms: O_11  and  C_12
REMARK    6  A    between atoms: C_13  and  C_25
REMARK    7  A    between atoms: C_17  and  O_24
REMARK    8  A    between atoms: C_19  and  O_23
REMARK    9  A    between atoms: C_27  and  O_32
REMARK   10  A    between atoms: O_33  and  C_34
REMARK   11  A    between atoms: C_34  and  C_36
REMARK   12  A    between atoms: C_36  and  C_37
REMARK                            x       y       z     vdW  Elec       q    Type
REMARK                         _______ _______ _______ _____ _____    ______ ____
ROOT
ATOM      1  C   UNL     1       6.236  -0.934  24.278  0.00  0.00    +0.214 A 
ATOM      2  C   UNL     1       7.263  -1.011  23.182  0.00  0.00    +0.238 A 
ATOM      3  O   UNL     1       7.312  -1.941  22.385  0.00  0.00    -0.283 OA
ATOM      4  C   UNL     1       8.226   0.099  23.068  0.00  0.00    +0.109 A 
ATOM      5  C   UNL     1       8.165   1.114  24.016  0.00  0.00    +0.147 A 
ATOM      6  C   UNL     1       9.050   2.197  23.941  0.00  0.00    +0.092 A 
ATOM      7  C   UNL     1       9.991   2.249  22.917  0.00  0.00    +0.124 A 
ATOM      8  C   UNL     1      10.065   1.244  21.965  0.00  0.00    +0.091 A 
ATOM      9  O   UNL     1       7.258   1.125  25.045  0.00  0.00    -0.451 OA
ATOM     10  C   UNL     1       9.178   0.172  22.037  0.00  0.00    +0.135 A 
ATOM     11  C   UNL     1       6.296   0.122  25.125  0.00  0.00    +0.181 A 
ENDROOT
BRANCH  11  12
ATOM     12  C   UNL     1       5.313   0.359  26.233  0.00  0.00    +0.024 A 
ATOM     13  C   UNL     1       4.438   1.450  26.187  0.00  0.00    +0.011 A 
ATOM     14  C   UNL     1       3.505   1.679  27.217  0.00  0.00    -0.004 A 
ATOM     15  C   UNL     1       3.361   0.859  28.350  0.00  0.00    -0.066 A 
ATOM     16  O   UNL     1       2.473   1.113  29.237  0.00  0.00    -0.871 OA
ATOM     17  C   UNL     1       4.274  -0.225  28.381  0.00  0.00    +0.110 A 
ATOM     18  C   UNL     1       5.228  -0.453  27.368  0.00  0.00    +0.056 A 
BRANCH  17  19
ATOM     19  O   UNL     1       4.237  -1.115  29.436  0.00  0.00    -0.507 OA
ATOM     20  H   UNL     1       3.338  -1.154  29.799  0.00  0.00    +0.292 HD
ENDBRANCH  17  19
ENDBRANCH  11  12
BRANCH   7  21
ATOM     21  O   UNL     1      10.872   3.286  22.799  0.00  0.00    -0.507 OA
ATOM     22  H   UNL     1      10.680   3.932  23.498  0.00  0.00    +0.292 HD
ENDBRANCH   7  21
BRANCH  10  23
ATOM     23  O   UNL     1       9.252  -0.787  21.065  0.00  0.00    -0.506 OA
ATOM     24  H   UNL     1       9.525  -1.634  21.445  0.00  0.00    +0.292 HD
ENDBRANCH  10  23
BRANCH   1  25
ATOM     25  O   UNL     1       5.215  -1.868  24.366  0.00  0.00    -0.452 OA
BRANCH  25  28
ATOM     26  C   UNL     1       5.021  -5.089  22.769  0.00  0.00    +0.198 C 
ATOM     27  O   UNL     1       4.691  -3.749  23.102  0.00  0.00    -0.336 OA
ATOM     28  C   UNL     1       5.527  -3.252  24.161  0.00  0.00    +0.352 C 
ATOM     29  C   UNL     1       5.277  -4.038  25.461  0.00  0.00    +0.275 C 
ATOM     30  C   UNL     1       5.528  -5.532  25.181  0.00  0.00    +0.192 C 
ATOM     31  C   UNL     1       4.767  -6.016  23.948  0.00  0.00    +0.172 C 
BRANCH  30  32
ATOM     32  O   UNL     1       5.111  -6.348  26.287  0.00  0.00    -0.385 OA
ATOM     33  H   UNL     1       4.168  -6.531  26.118  0.00  0.00    +0.210 HD
ENDBRANCH  30  32
BRANCH  31  34
ATOM     34  O   UNL     1       5.166  -7.355  23.623  0.00  0.00    -0.387 OA
ATOM     35  H   UNL     1       6.086  -7.451  23.921  0.00  0.00    +0.210 HD
ENDBRANCH  31  34
BRANCH  29  36
ATOM     36  O   UNL     1       6.257  -3.595  26.427  0.00  0.00    -0.452 OA
BRANCH  36  37
ATOM     37  C   UNL     1       7.472  -4.196  26.374  0.00  0.00    +0.313 C 
ATOM     38  O   UNL     1       7.715  -5.286  26.888  0.00  0.00    -0.250 OA
BRANCH  37  39
ATOM     39  C   UNL     1       8.510  -3.306  25.782  0.00  0.00    +0.172 C 
BRANCH  39  40
ATOM     40  C   UNL     1       9.163  -3.907  24.556  0.00  0.00    +0.052 C 
ATOM     41  O   UNL     1      10.080  -3.192  24.048  0.00  0.00    -0.549 OA
ATOM     42  O   UNL     1       8.721  -5.006  24.120  0.00  0.00    -0.549 OA
ENDBRANCH  39  40
ENDBRANCH  37  39
ENDBRANCH  36  37
ENDBRANCH  29  36
ENDBRANCH  25  28
ENDBRANCH   1  25
TORSDOF 12
ENDMDL
MODEL 9
REMARK VINA RESULT:      -6.2      2.356      4.143
REMARK  Name = 
REMARK  12 active torsions:
REMARK  status: ('A' for Active; 'I' for Inactive)
REMARK    1  A    between atoms: C_2  and  O_41
REMARK    2  A    between atoms: C_4  and  O_40
REMARK    3  A    between atoms: C_6  and  O_33
REMARK    4  A    between atoms: C_8  and  O_11
REMARK    5  A    between atoms: O_11  and  C_12
REMARK    6  A    between atoms: C_13  and  C_25
REMARK    7  A    between atoms: C_17  and  O_24
REMARK    8  A    between atoms: C_19  and  O_23
REMARK    9  A    between atoms: C_27  and  O_32
REMARK   10  A    between atoms: O_33  and  C_34
REMARK   11  A    between atoms: C_34  and  C_36
REMARK   12  A    between atoms: C_36  and  C_37
REMARK                            x       y       z     vdW  Elec       q    Type
REMARK                         _______ _______ _______ _____ _____    ______ ____
ROOT
ATOM      1  C   UNL     1       6.697  -0.439  24.505  0.00  0.00    +0.214 A 
ATOM      2  C   UNL     1       7.770  -0.504  23.453  0.00  0.00    +0.238 A 
ATOM      3  O   UNL     1       7.917  -1.473  22.716  0.00  0.00    -0.283 OA
ATOM      4  C   UNL     1       8.654   0.666  23.304  0.00  0.00    +0.109 A 
ATOM      5  C   UNL     1       8.482   1.728  24.185  0.00  0.00    +0.147 A 
ATOM      6  C   UNL     1       9.289   2.867  24.076  0.00  0.00    +0.092 A 
ATOM      7  C   UNL     1      10.264   2.928  23.084  0.00  0.00    +0.124 A 
ATOM      8  C   UNL     1      10.448   1.878  22.198  0.00  0.00    +0.091 A 
ATOM      9  O   UNL     1       7.537   1.731  25.179  0.00  0.00    -0.451 OA
ATOM     10  C   UNL     1       9.638   0.749  22.305  0.00  0.00    +0.135 A 
ATOM     11  C   UNL     1       6.647   0.666  25.287  0.00  0.00    +0.181 A 
ENDROOT
BRANCH  11  12
ATOM     12  C   UNL     1       5.607   0.894  26.343  0.00  0.00    +0.024 A 
ATOM     13  C   UNL     1       4.434   1.598  26.046  0.00  0.00    +0.011 A 
ATOM     14  C   UNL     1       3.446   1.812  27.027  0.00  0.00    -0.004 A 
ATOM     15  C   UNL     1       3.534   1.349  28.352  0.00  0.00    -0.066 A 
ATOM     16  O   UNL     1       2.585   1.559  29.186  0.00  0.00    -0.871 OA
ATOM     17  C   UNL     1       4.740   0.660  28.629  0.00  0.00    +0.110 A 
ATOM     18  C   UNL     1       5.748   0.458  27.663  0.00  0.00    +0.056 A 
BRANCH  17  19
ATOM     19  O   UNL     1       4.955   0.145  29.893  0.00  0.00    -0.507 OA
ATOM     20  H   UNL     1       4.608  -0.761  29.939  0.00  0.00    +0.292 HD
ENDBRANCH  17  19
ENDBRANCH  11  12
BRANCH   7  21
ATOM     21  O   UNL     1      11.072   4.019  22.934  0.00  0.00    -0.507 OA
ATOM     22  H   UNL     1      11.749   3.998  23.629  0.00  0.00    +0.292 HD
ENDBRANCH   7  21
BRANCH  10  23
ATOM     23  O   UNL     1       9.820  -0.257  21.397  0.00  0.00    -0.506 OA
ATOM     24  H   UNL     1       9.455  -0.006  20.536  0.00  0.00    +0.292 HD
ENDBRANCH  10  23
BRANCH   1  25
ATOM     25  O   UNL     1       5.744  -1.440  24.614  0.00  0.00    -0.452 OA
BRANCH  25  28
ATOM     26  C   UNL     1       7.556  -3.339  27.078  0.00  0.00    +0.198 C 
ATOM     27  O   UNL     1       7.285  -2.342  26.105  0.00  0.00    -0.336 OA
ATOM     28  C   UNL     1       5.996  -2.539  25.499  0.00  0.00    +0.352 C 
ATOM     29  C   UNL     1       5.969  -3.858  24.706  0.00  0.00    +0.275 C 
ATOM     30  C   UNL     1       6.338  -5.008  25.663  0.00  0.00    +0.192 C 
ATOM     31  C   UNL     1       7.624  -4.717  26.434  0.00  0.00    +0.172 C 
BRANCH  30  32
ATOM     32  O   UNL     1       6.539  -6.238  24.949  0.00  0.00    -0.385 OA
ATOM     33  H   UNL     1       5.678  -6.693  24.991  0.00  0.00    +0.210 HD
ENDBRANCH  30  32
BRANCH  31  34
ATOM     34  O   UNL     1       7.832  -5.723  27.435  0.00  0.00    -0.387 OA
ATOM     35  H   UNL     1       8.173  -5.266  28.221  0.00  0.00    +0.210 HD
ENDBRANCH  31  34
BRANCH  29  36
ATOM     36  O   UNL     1       4.609  -4.067  24.264  0.00  0.00    -0.452 OA
BRANCH  36  37
ATOM     37  C   UNL     1       4.447  -4.521  22.995  0.00  0.00    +0.313 C 
ATOM     38  O   UNL     1       3.535  -5.269  22.652  0.00  0.00    -0.250 OA
BRANCH  37  39
ATOM     39  C   UNL     1       5.595  -4.154  22.120  0.00  0.00    +0.172 C 
BRANCH  39  40
ATOM     40  C   UNL     1       6.257  -5.360  21.488  0.00  0.00    +0.052 C 
ATOM     41  O   UNL     1       5.881  -5.600  20.300  0.00  0.00    -0.549 OA
ATOM     42  O   UNL     1       7.059  -6.038  22.188  0.00  0.00    -0.549 OA
ENDBRANCH  39  40
ENDBRANCH  37  39
ENDBRANCH  36  37
ENDBRANCH  29  36
ENDBRANCH  25  28
ENDBRANCH   1  25
TORSDOF 12
ENDMDL
