MODEL 1
REMARK VINA RESULT:      -7.4      0.000      0.000
REMARK  Name = 
REMARK  19 active torsions:
REMARK  status: ('A' for Active; 'I' for Inactive)
REMARK    1  A    between atoms: C_1  and  C_2
REMARK    2  A    between atoms: C_3  and  O_51
REMARK    3  A    between atoms: C_5  and  O_50
REMARK    4  A    between atoms: C_6  and  O_49
REMARK    5  A    between atoms: C_8  and  O_11
REMARK    6  A    between atoms: O_11  and  C_12
REMARK    7  A    between atoms: C_12  and  C_13
REMARK    8  A    between atoms: C_14  and  O_48
REMARK    9  A    between atoms: C_16  and  O_47
REMARK   10  A    between atoms: C_18  and  O_46
REMARK   11  A    between atoms: C_19  and  O_22
REMARK   12  A    between atoms: O_22  and  C_23
REMARK   13  A    between atoms: C_25  and  O_45
REMARK   14  A    between atoms: C_30  and  C_36
REMARK   15  A    between atoms: C_31  and  O_34
REMARK   16  A    between atoms: O_34  and  C_35
REMARK   17  A    between atoms: C_38  and  O_43
REMARK   18  A    between atoms: C_39  and  O_42
REMARK   19  A    between atoms: O_43  and  C_44
REMARK                            x       y       z     vdW  Elec       q    Type
REMARK                         _______ _______ _______ _____ _____    ______ ____
ROOT
ATOM      1  C   UNL     1       8.264  -4.378  24.454  0.00  0.00    +0.179 C 
ATOM      2  O   UNL     1       6.913  -3.896  24.403  0.00  0.00    -0.331 OA
ATOM      3  C   UNL     1       6.392  -3.437  25.663  0.00  0.00    +0.339 C 
ATOM      4  C   UNL     1       6.370  -4.615  26.666  0.00  0.00    +0.214 C 
ATOM      5  C   UNL     1       7.814  -5.127  26.819  0.00  0.00    +0.180 C 
ATOM      6  C   UNL     1       8.377  -5.548  25.454  0.00  0.00    +0.177 C 
ENDROOT
BRANCH   6   7
ATOM      7  O   UNL     1       9.709  -6.034  25.643  0.00  0.00    -0.386 OA
ATOM      8  H   UNL     1       9.754  -6.923  25.241  0.00  0.00    +0.210 HD
ENDBRANCH   6   7
BRANCH   5   9
ATOM      9  O   UNL     1       7.905  -6.220  27.737  0.00  0.00    -0.386 OA
ATOM     10  H   UNL     1       7.177  -6.825  27.490  0.00  0.00    +0.210 HD
ENDBRANCH   5   9
BRANCH   4  11
ATOM     11  O   UNL     1       5.512  -5.672  26.199  0.00  0.00    -0.383 OA
ATOM     12  H   UNL     1       4.864  -5.278  25.586  0.00  0.00    +0.210 HD
ENDBRANCH   4  11
BRANCH   3  13
ATOM     13  O   UNL     1       5.066  -2.917  25.481  0.00  0.00    -0.461 OA
BRANCH  13  14
ATOM     14  C   UNL     1       4.897  -1.594  25.802  0.00  0.00    +0.131 A 
ATOM     15  C   UNL     1       5.695  -0.547  25.345  0.00  0.00    +0.093 A 
ATOM     16  C   UNL     1       5.430   0.771  25.730  0.00  0.00    +0.147 A 
ATOM     17  O   UNL     1       6.277   1.716  25.214  0.00  0.00    -0.451 OA
ATOM     18  C   UNL     1       6.038   3.043  25.497  0.00  0.00    +0.181 A 
ATOM     19  C   UNL     1       5.059   3.506  26.297  0.00  0.00    +0.211 A 
ATOM     20  C   UNL     1       4.149   2.492  26.937  0.00  0.00    +0.238 A 
ATOM     21  O   UNL     1       3.261   2.823  27.711  0.00  0.00    -0.283 OA
ATOM     22  C   UNL     1       4.374   1.069  26.583  0.00  0.00    +0.109 A 
ATOM     23  C   UNL     1       3.588   0.011  27.065  0.00  0.00    +0.135 A 
ATOM     24  C   UNL     1       3.849  -1.311  26.682  0.00  0.00    +0.092 A 
BRANCH  18  25
ATOM     25  C   UNL     1       7.004   3.937  24.832  0.00  0.00    +0.025 A 
ATOM     26  C   UNL     1       8.280   4.122  25.386  0.00  0.00    +0.015 A 
ATOM     27  C   UNL     1       9.212   4.942  24.752  0.00  0.00    +0.050 A 
ATOM     28  C   UNL     1       8.866   5.567  23.562  0.00  0.00    +0.158 A 
ATOM     29  C   UNL     1       7.603   5.398  22.984  0.00  0.00    +0.162 A 
ATOM     30  C   UNL     1       6.669   4.581  23.627  0.00  0.00    +0.061 A 
BRANCH  29  31
ATOM     31  O   UNL     1       7.421   6.068  21.801  0.00  0.00    -0.491 OA
ATOM     32  C   UNL     1       6.433   7.091  21.791  0.00  0.00    +0.277 C 
ENDBRANCH  29  31
BRANCH  28  33
ATOM     33  O   UNL     1       9.800   6.362  22.954  0.00  0.00    -0.503 OA
ATOM     34  H   UNL     1       9.813   6.068  22.022  0.00  0.00    +0.292 HD
ENDBRANCH  28  33
ENDBRANCH  18  25
BRANCH  23  35
ATOM     35  O   UNL     1       2.542   0.246  27.912  0.00  0.00    -0.506 OA
ATOM     36  H   UNL     1       1.931   0.900  27.536  0.00  0.00    +0.292 HD
ENDBRANCH  23  35
BRANCH  19  37
ATOM     37  O   UNL     1       4.901   4.876  26.470  0.00  0.00    -0.488 OA
ATOM     38  C   UNL     1       3.856   5.501  25.735  0.00  0.00    +0.277 C 
ENDBRANCH  19  37
ENDBRANCH  13  14
ENDBRANCH   3  13
BRANCH   1  39
ATOM     39  C   UNL     1       9.254  -3.221  24.676  0.00  0.00    +0.197 C 
BRANCH  39  40
ATOM     40  O   UNL     1       9.950  -2.921  23.474  0.00  0.00    -0.346 OA
BRANCH  40  44
ATOM     41  C   UNL     1      10.954   1.160  24.505  0.00  0.00    +0.041 C 
ATOM     42  C   UNL     1       9.543   0.632  24.259  0.00  0.00    +0.149 C 
ATOM     43  O   UNL     1       9.498  -0.799  24.360  0.00  0.00    -0.343 OA
ATOM     44  C   UNL     1      10.113  -1.511  23.284  0.00  0.00    +0.282 C 
ATOM     45  C   UNL     1       9.501  -1.133  21.920  0.00  0.00    +0.201 C 
ATOM     46  C   UNL     1       9.571   0.384  21.732  0.00  0.00    +0.179 C 
ATOM     47  C   UNL     1       8.942   1.112  22.929  0.00  0.00    +0.174 C 
BRANCH  47  48
ATOM     48  O   UNL     1       7.524   0.859  22.918  0.00  0.00    -0.387 OA
ATOM     49  H   UNL     1       7.394   0.032  22.394  0.00  0.00    +0.210 HD
ENDBRANCH  47  48
BRANCH  46  50
ATOM     50  O   UNL     1       8.868   0.737  20.530  0.00  0.00    -0.386 OA
ATOM     51  H   UNL     1       7.958   0.390  20.645  0.00  0.00    +0.210 HD
ENDBRANCH  46  50
BRANCH  45  52
ATOM     52  O   UNL     1       8.117  -1.541  21.841  0.00  0.00    -0.384 OA
ATOM     53  H   UNL     1       7.871  -1.782  22.755  0.00  0.00    +0.210 HD
ENDBRANCH  45  52
ENDBRANCH  40  44
ENDBRANCH  39  40
ENDBRANCH   1  39
TORSDOF 16
ENDMDL
MODEL 2
REMARK VINA RESULT:      -7.1      1.576      7.584
REMARK  Name = 
REMARK  19 active torsions:
REMARK  status: ('A' for Active; 'I' for Inactive)
REMARK    1  A    between atoms: C_1  and  C_2
REMARK    2  A    between atoms: C_3  and  O_51
REMARK    3  A    between atoms: C_5  and  O_50
REMARK    4  A    between atoms: C_6  and  O_49
REMARK    5  A    between atoms: C_8  and  O_11
REMARK    6  A    between atoms: O_11  and  C_12
REMARK    7  A    between atoms: C_12  and  C_13
REMARK    8  A    between atoms: C_14  and  O_48
REMARK    9  A    between atoms: C_16  and  O_47
REMARK   10  A    between atoms: C_18  and  O_46
REMARK   11  A    between atoms: C_19  and  O_22
REMARK   12  A    between atoms: O_22  and  C_23
REMARK   13  A    between atoms: C_25  and  O_45
REMARK   14  A    between atoms: C_30  and  C_36
REMARK   15  A    between atoms: C_31  and  O_34
REMARK   16  A    between atoms: O_34  and  C_35
REMARK   17  A    between atoms: C_38  and  O_43
REMARK   18  A    between atoms: C_39  and  O_42
REMARK   19  A    between atoms: O_43  and  C_44
REMARK                            x       y       z     vdW  Elec       q    Type
REMARK                         _______ _______ _______ _____ _____    ______ ____
ROOT
ATOM      1  C   UNL     1       7.859   4.541  23.296  0.00  0.00    +0.179 C 
ATOM      2  O   UNL     1       7.300   4.299  24.596  0.00  0.00    -0.331 OA
ATOM      3  C   UNL     1       5.891   4.009  24.599  0.00  0.00    +0.339 C 
ATOM      4  C   UNL     1       5.118   5.226  24.040  0.00  0.00    +0.214 C 
ATOM      5  C   UNL     1       5.625   5.488  22.610  0.00  0.00    +0.180 C 
ATOM      6  C   UNL     1       7.142   5.727  22.618  0.00  0.00    +0.177 C 
ENDROOT
BRANCH   6   7
ATOM      7  O   UNL     1       7.568   5.984  21.277  0.00  0.00    -0.386 OA
ATOM      8  H   UNL     1       8.213   6.716  21.312  0.00  0.00    +0.210 HD
ENDBRANCH   6   7
BRANCH   5   9
ATOM      9  O   UNL     1       4.964   6.597  21.996  0.00  0.00    -0.386 OA
ATOM     10  H   UNL     1       5.618   6.973  21.374  0.00  0.00    +0.210 HD
ENDBRANCH   5   9
BRANCH   4  11
ATOM     11  O   UNL     1       5.325   6.389  24.863  0.00  0.00    -0.383 OA
ATOM     12  H   UNL     1       5.406   7.160  24.271  0.00  0.00    +0.210 HD
ENDBRANCH   4  11
BRANCH   3  13
ATOM     13  O   UNL     1       5.457   3.718  25.937  0.00  0.00    -0.461 OA
BRANCH  13  14
ATOM     14  C   UNL     1       5.099   2.415  26.175  0.00  0.00    +0.131 A 
ATOM     15  C   UNL     1       5.871   1.298  25.862  0.00  0.00    +0.093 A 
ATOM     16  C   UNL     1       5.413   0.010  26.156  0.00  0.00    +0.147 A 
ATOM     17  O   UNL     1       6.259  -1.009  25.808  0.00  0.00    -0.451 OA
ATOM     18  C   UNL     1       5.903  -2.301  26.126  0.00  0.00    +0.181 A 
ATOM     19  C   UNL     1       4.749  -2.671  26.712  0.00  0.00    +0.211 A 
ATOM     20  C   UNL     1       3.763  -1.584  27.048  0.00  0.00    +0.238 A 
ATOM     21  O   UNL     1       2.672  -1.836  27.542  0.00  0.00    -0.283 OA
ATOM     22  C   UNL     1       4.175  -0.189  26.757  0.00  0.00    +0.109 A 
ATOM     23  C   UNL     1       3.386   0.934  27.047  0.00  0.00    +0.135 A 
ATOM     24  C   UNL     1       3.841   2.227  26.755  0.00  0.00    +0.092 A 
BRANCH  18  25
ATOM     25  C   UNL     1       6.936  -3.277  25.730  0.00  0.00    +0.025 A 
ATOM     26  C   UNL     1       7.993  -3.568  26.606  0.00  0.00    +0.015 A 
ATOM     27  C   UNL     1       8.960  -4.509  26.256  0.00  0.00    +0.050 A 
ATOM     28  C   UNL     1       8.860  -5.160  25.034  0.00  0.00    +0.158 A 
ATOM     29  C   UNL     1       7.815  -4.894  24.143  0.00  0.00    +0.162 A 
ATOM     30  C   UNL     1       6.852  -3.945  24.494  0.00  0.00    +0.061 A 
BRANCH  29  31
ATOM     31  O   UNL     1       7.848  -5.631  22.987  0.00  0.00    -0.491 OA
ATOM     32  C   UNL     1       6.798  -5.407  22.054  0.00  0.00    +0.277 C 
ENDBRANCH  29  31
BRANCH  28  33
ATOM     33  O   UNL     1       9.818  -6.086  24.716  0.00  0.00    -0.503 OA
ATOM     34  H   UNL     1       9.326  -6.918  24.572  0.00  0.00    +0.292 HD
ENDBRANCH  28  33
ENDBRANCH  18  25
BRANCH  23  35
ATOM     35  O   UNL     1       2.159   0.796  27.631  0.00  0.00    -0.506 OA
ATOM     36  H   UNL     1       1.904  -0.139  27.686  0.00  0.00    +0.292 HD
ENDBRANCH  23  35
BRANCH  19  37
ATOM     37  O   UNL     1       4.527  -4.009  27.015  0.00  0.00    -0.488 OA
ATOM     38  C   UNL     1       4.779  -4.415  28.355  0.00  0.00    +0.277 C 
ENDBRANCH  19  37
ENDBRANCH  13  14
ENDBRANCH   3  13
BRANCH   1  39
ATOM     39  C   UNL     1       7.915   3.243  22.470  0.00  0.00    +0.197 C 
BRANCH  39  40
ATOM     40  O   UNL     1       9.154   2.578  22.669  0.00  0.00    -0.346 OA
BRANCH  40  44
ATOM     41  C   UNL     1       9.443  -0.392  25.804  0.00  0.00    +0.041 C 
ATOM     42  C   UNL     1      10.206  -0.425  24.482  0.00  0.00    +0.149 C 
ATOM     43  O   UNL     1      10.228   0.869  23.861  0.00  0.00    -0.343 OA
ATOM     44  C   UNL     1       8.986   1.306  23.306  0.00  0.00    +0.282 C 
ATOM     45  C   UNL     1       8.442   0.311  22.261  0.00  0.00    +0.201 C 
ATOM     46  C   UNL     1       8.345  -1.084  22.885  0.00  0.00    +0.179 C 
ATOM     47  C   UNL     1       9.686  -1.496  23.511  0.00  0.00    +0.174 C 
BRANCH  47  48
ATOM     48  O   UNL     1      10.639  -1.692  22.449  0.00  0.00    -0.387 OA
ATOM     49  H   UNL     1      11.508  -1.375  22.794  0.00  0.00    +0.210 HD
ENDBRANCH  47  48
BRANCH  46  50
ATOM     50  O   UNL     1       7.981  -2.026  21.864  0.00  0.00    -0.386 OA
ATOM     51  H   UNL     1       8.139  -2.912  22.254  0.00  0.00    +0.210 HD
ENDBRANCH  46  50
BRANCH  45  52
ATOM     52  O   UNL     1       9.315   0.238  21.110  0.00  0.00    -0.384 OA
ATOM     53  H   UNL     1       8.881   0.788  20.429  0.00  0.00    +0.210 HD
ENDBRANCH  45  52
ENDBRANCH  40  44
ENDBRANCH  39  40
ENDBRANCH   1  39
TORSDOF 16
ENDMDL
MODEL 3
REMARK VINA RESULT:      -6.9      2.520      7.710
REMARK  Name = 
REMARK  19 active torsions:
REMARK  status: ('A' for Active; 'I' for Inactive)
REMARK    1  A    between atoms: C_1  and  C_2
REMARK    2  A    between atoms: C_3  and  O_51
REMARK    3  A    between atoms: C_5  and  O_50
REMARK    4  A    between atoms: C_6  and  O_49
REMARK    5  A    between atoms: C_8  and  O_11
REMARK    6  A    between atoms: O_11  and  C_12
REMARK    7  A    between atoms: C_12  and  C_13
REMARK    8  A    between atoms: C_14  and  O_48
REMARK    9  A    between atoms: C_16  and  O_47
REMARK   10  A    between atoms: C_18  and  O_46
REMARK   11  A    between atoms: C_19  and  O_22
REMARK   12  A    between atoms: O_22  and  C_23
REMARK   13  A    between atoms: C_25  and  O_45
REMARK   14  A    between atoms: C_30  and  C_36
REMARK   15  A    between atoms: C_31  and  O_34
REMARK   16  A    between atoms: O_34  and  C_35
REMARK   17  A    between atoms: C_38  and  O_43
REMARK   18  A    between atoms: C_39  and  O_42
REMARK   19  A    between atoms: O_43  and  C_44
REMARK                            x       y       z     vdW  Elec       q    Type
REMARK                         _______ _______ _______ _____ _____    ______ ____
ROOT
ATOM      1  C   UNL     1       9.808   0.930  23.725  0.00  0.00    +0.179 C 
ATOM      2  O   UNL     1       9.366   1.189  25.066  0.00  0.00    -0.331 OA
ATOM      3  C   UNL     1       7.992   1.602  25.176  0.00  0.00    +0.339 C 
ATOM      4  C   UNL     1       7.796   2.934  24.415  0.00  0.00    +0.214 C 
ATOM      5  C   UNL     1       8.186   2.695  22.945  0.00  0.00    +0.180 C 
ATOM      6  C   UNL     1       9.632   2.190  22.851  0.00  0.00    +0.177 C 
ENDROOT
BRANCH   6   7
ATOM      7  O   UNL     1       9.959   2.000  21.472  0.00  0.00    -0.386 OA
ATOM      8  H   UNL     1       9.274   2.454  20.945  0.00  0.00    +0.210 HD
ENDBRANCH   6   7
BRANCH   5   9
ATOM      9  O   UNL     1       8.032   3.872  22.148  0.00  0.00    -0.386 OA
ATOM     10  H   UNL     1       7.771   3.551  21.261  0.00  0.00    +0.210 HD
ENDBRANCH   5   9
BRANCH   4  11
ATOM     11  O   UNL     1       8.611   3.976  24.984  0.00  0.00    -0.383 OA
ATOM     12  H   UNL     1       8.175   4.277  25.803  0.00  0.00    +0.210 HD
ENDBRANCH   4  11
BRANCH   3  13
ATOM     13  O   UNL     1       7.643   1.765  26.559  0.00  0.00    -0.461 OA
BRANCH  13  14
ATOM     14  C   UNL     1       6.691   0.900  27.038  0.00  0.00    +0.131 A 
ATOM     15  C   UNL     1       6.323  -0.303  26.438  0.00  0.00    +0.093 A 
ATOM     16  C   UNL     1       5.342  -1.116  27.016  0.00  0.00    +0.147 A 
ATOM     17  O   UNL     1       5.067  -2.276  26.340  0.00  0.00    -0.451 OA
ATOM     18  C   UNL     1       4.159  -3.157  26.885  0.00  0.00    +0.181 A 
ATOM     19  C   UNL     1       3.459  -2.957  28.017  0.00  0.00    +0.211 A 
ATOM     20  C   UNL     1       3.685  -1.663  28.751  0.00  0.00    +0.238 A 
ATOM     21  O   UNL     1       3.059  -1.381  29.765  0.00  0.00    -0.283 OA
ATOM     22  C   UNL     1       4.706  -0.742  28.194  0.00  0.00    +0.109 A 
ATOM     23  C   UNL     1       5.057   0.482  28.782  0.00  0.00    +0.135 A 
ATOM     24  C   UNL     1       6.040   1.300  28.207  0.00  0.00    +0.092 A 
BRANCH  18  25
ATOM     25  C   UNL     1       4.008  -4.376  26.067  0.00  0.00    +0.025 A 
ATOM     26  C   UNL     1       4.748  -5.525  26.385  0.00  0.00    +0.015 A 
ATOM     27  C   UNL     1       4.593  -6.692  25.638  0.00  0.00    +0.050 A 
ATOM     28  C   UNL     1       3.693  -6.706  24.582  0.00  0.00    +0.158 A 
ATOM     29  C   UNL     1       2.938  -5.576  24.245  0.00  0.00    +0.162 A 
ATOM     30  C   UNL     1       3.102  -4.407  24.991  0.00  0.00    +0.061 A 
BRANCH  29  31
ATOM     31  O   UNL     1       2.083  -5.755  23.188  0.00  0.00    -0.491 OA
ATOM     32  C   UNL     1       0.788  -5.178  23.308  0.00  0.00    +0.277 C 
ENDBRANCH  29  31
BRANCH  28  33
ATOM     33  O   UNL     1       3.553  -7.865  23.867  0.00  0.00    -0.503 OA
ATOM     34  H   UNL     1       4.270  -8.447  24.188  0.00  0.00    +0.292 HD
ENDBRANCH  28  33
ENDBRANCH  18  25
BRANCH  23  35
ATOM     35  O   UNL     1       4.458   0.902  29.936  0.00  0.00    -0.506 OA
ATOM     36  H   UNL     1       4.117   1.805  29.841  0.00  0.00    +0.292 HD
ENDBRANCH  23  35
BRANCH  19  37
ATOM     37  O   UNL     1       2.600  -3.946  28.480  0.00  0.00    -0.488 OA
ATOM     38  C   UNL     1       3.048  -4.722  29.585  0.00  0.00    +0.277 C 
ENDBRANCH  19  37
ENDBRANCH  13  14
ENDBRANCH   3  13
BRANCH   1  39
ATOM     39  C   UNL     1       9.164  -0.353  23.170  0.00  0.00    +0.197 C 
BRANCH  39  40
ATOM     40  O   UNL     1       9.925  -1.494  23.541  0.00  0.00    -0.346 OA
BRANCH  40  44
ATOM     41  C   UNL     1       8.951  -4.515  26.482  0.00  0.00    +0.041 C 
ATOM     42  C   UNL     1       9.171  -4.770  24.992  0.00  0.00    +0.149 C 
ATOM     43  O   UNL     1       9.879  -3.682  24.378  0.00  0.00    -0.343 OA
ATOM     44  C   UNL     1       9.130  -2.476  24.214  0.00  0.00    +0.282 C 
ATOM     45  C   UNL     1       7.845  -2.704  23.392  0.00  0.00    +0.201 C 
ATOM     46  C   UNL     1       7.019  -3.822  24.033  0.00  0.00    +0.179 C 
ATOM     47  C   UNL     1       7.872  -5.083  24.235  0.00  0.00    +0.174 C 
BRANCH  47  48
ATOM     48  O   UNL     1       8.185  -5.629  22.939  0.00  0.00    -0.387 OA
ATOM     49  H   UNL     1       7.874  -6.566  22.951  0.00  0.00    +0.210 HD
ENDBRANCH  47  48
BRANCH  46  50
ATOM     50  O   UNL     1       5.904  -4.125  23.181  0.00  0.00    -0.386 OA
ATOM     51  H   UNL     1       5.487  -3.262  22.974  0.00  0.00    +0.210 HD
ENDBRANCH  46  50
BRANCH  45  52
ATOM     52  O   UNL     1       8.159  -3.088  22.034  0.00  0.00    -0.384 OA
ATOM     53  H   UNL     1       7.690  -3.933  21.895  0.00  0.00    +0.210 HD
ENDBRANCH  45  52
ENDBRANCH  40  44
ENDBRANCH  39  40
ENDBRANCH   1  39
TORSDOF 16
ENDMDL
MODEL 4
REMARK VINA RESULT:      -6.6      1.899      9.375
REMARK  Name = 
REMARK  19 active torsions:
REMARK  status: ('A' for Active; 'I' for Inactive)
REMARK    1  A    between atoms: C_1  and  C_2
REMARK    2  A    between atoms: C_3  and  O_51
REMARK    3  A    between atoms: C_5  and  O_50
REMARK    4  A    between atoms: C_6  and  O_49
REMARK    5  A    between atoms: C_8  and  O_11
REMARK    6  A    between atoms: O_11  and  C_12
REMARK    7  A    between atoms: C_12  and  C_13
REMARK    8  A    between atoms: C_14  and  O_48
REMARK    9  A    between atoms: C_16  and  O_47
REMARK   10  A    between atoms: C_18  and  O_46
REMARK   11  A    between atoms: C_19  and  O_22
REMARK   12  A    between atoms: O_22  and  C_23
REMARK   13  A    between atoms: C_25  and  O_45
REMARK   14  A    between atoms: C_30  and  C_36
REMARK   15  A    between atoms: C_31  and  O_34
REMARK   16  A    between atoms: O_34  and  C_35
REMARK   17  A    between atoms: C_38  and  O_43
REMARK   18  A    between atoms: C_39  and  O_42
REMARK   19  A    between atoms: O_43  and  C_44
REMARK                            x       y       z     vdW  Elec       q    Type
REMARK                         _______ _______ _______ _____ _____    ______ ____
ROOT
ATOM      1  C   UNL     1       5.356   4.690  24.654  0.00  0.00    +0.179 C 
ATOM      2  O   UNL     1       5.359   3.663  23.650  0.00  0.00    -0.331 OA
ATOM      3  C   UNL     1       6.652   3.090  23.382  0.00  0.00    +0.339 C 
ATOM      4  C   UNL     1       7.597   4.191  22.846  0.00  0.00    +0.214 C 
ATOM      5  C   UNL     1       7.692   5.291  23.920  0.00  0.00    +0.180 C 
ATOM      6  C   UNL     1       6.296   5.842  24.242  0.00  0.00    +0.177 C 
ENDROOT
BRANCH   6   7
ATOM      7  O   UNL     1       6.430   6.871  25.226  0.00  0.00    -0.386 OA
ATOM      8  H   UNL     1       6.514   7.720  24.750  0.00  0.00    +0.210 HD
ENDBRANCH   6   7
BRANCH   5   9
ATOM      9  O   UNL     1       8.554   6.360  23.523  0.00  0.00    -0.386 OA
ATOM     10  H   UNL     1       9.375   6.234  24.041  0.00  0.00    +0.210 HD
ENDBRANCH   5   9
BRANCH   4  11
ATOM     11  O   UNL     1       7.100   4.739  21.612  0.00  0.00    -0.383 OA
ATOM     12  H   UNL     1       6.882   3.993  21.023  0.00  0.00    +0.210 HD
ENDBRANCH   4  11
BRANCH   3  13
ATOM     13  O   UNL     1       6.525   2.033  22.419  0.00  0.00    -0.461 OA
BRANCH  13  14
ATOM     14  C   UNL     1       7.145   0.854  22.745  0.00  0.00    +0.131 A 
ATOM     15  C   UNL     1       6.495  -0.311  23.150  0.00  0.00    +0.093 A 
ATOM     16  C   UNL     1       7.225  -1.465  23.454  0.00  0.00    +0.147 A 
ATOM     17  O   UNL     1       6.480  -2.549  23.834  0.00  0.00    -0.451 OA
ATOM     18  C   UNL     1       7.126  -3.740  24.086  0.00  0.00    +0.181 A 
ATOM     19  C   UNL     1       8.458  -3.929  24.045  0.00  0.00    +0.211 A 
ATOM     20  C   UNL     1       9.316  -2.742  23.696  0.00  0.00    +0.238 A 
ATOM     21  O   UNL     1      10.537  -2.814  23.678  0.00  0.00    -0.283 OA
ATOM     22  C   UNL     1       8.613  -1.477  23.369  0.00  0.00    +0.109 A 
ATOM     23  C   UNL     1       9.268  -0.296  22.988  0.00  0.00    +0.135 A 
ATOM     24  C   UNL     1       8.541   0.863  22.682  0.00  0.00    +0.092 A 
BRANCH  18  25
ATOM     25  C   UNL     1       6.185  -4.820  24.437  0.00  0.00    +0.025 A 
ATOM     26  C   UNL     1       5.325  -5.341  23.458  0.00  0.00    +0.015 A 
ATOM     27  C   UNL     1       4.451  -6.382  23.770  0.00  0.00    +0.050 A 
ATOM     28  C   UNL     1       4.448  -6.902  25.056  0.00  0.00    +0.158 A 
ATOM     29  C   UNL     1       5.299  -6.406  26.051  0.00  0.00    +0.162 A 
ATOM     30  C   UNL     1       6.167  -5.358  25.737  0.00  0.00    +0.061 A 
BRANCH  29  31
ATOM     31  O   UNL     1       5.188  -7.036  27.264  0.00  0.00    -0.491 OA
ATOM     32  C   UNL     1       4.666  -6.266  28.340  0.00  0.00    +0.277 C 
ENDBRANCH  29  31
BRANCH  28  33
ATOM     33  O   UNL     1       3.587  -7.929  25.336  0.00  0.00    -0.503 OA
ATOM     34  H   UNL     1       2.986  -7.970  24.566  0.00  0.00    +0.292 HD
ENDBRANCH  28  33
ENDBRANCH  18  25
BRANCH  23  35
ATOM     35  O   UNL     1      10.630  -0.250  22.896  0.00  0.00    -0.506 OA
ATOM     36  H   UNL     1      10.917  -0.302  21.970  0.00  0.00    +0.292 HD
ENDBRANCH  23  35
BRANCH  19  37
ATOM     37  O   UNL     1       8.983  -5.193  24.282  0.00  0.00    -0.488 OA
ATOM     38  C   UNL     1       9.735  -5.364  25.478  0.00  0.00    +0.277 C 
ENDBRANCH  19  37
ENDBRANCH  13  14
ENDBRANCH   3  13
BRANCH   1  39
ATOM     39  C   UNL     1       5.610   4.096  26.050  0.00  0.00    +0.197 C 
BRANCH  39  40
ATOM     40  O   UNL     1       4.528   3.264  26.444  0.00  0.00    -0.346 OA
BRANCH  40  44
ATOM     41  C   UNL     1       7.352   0.301  27.848  0.00  0.00    +0.041 C 
ATOM     42  C   UNL     1       6.360   0.105  26.704  0.00  0.00    +0.149 C 
ATOM     43  O   UNL     1       5.879   1.364  26.210  0.00  0.00    -0.343 OA
ATOM     44  C   UNL     1       4.976   2.059  27.073  0.00  0.00    +0.282 C 
ATOM     45  C   UNL     1       3.740   1.205  27.419  0.00  0.00    +0.201 C 
ATOM     46  C   UNL     1       4.191  -0.136  28.003  0.00  0.00    +0.179 C 
ATOM     47  C   UNL     1       5.195  -0.828  27.068  0.00  0.00    +0.174 C 
BRANCH  47  48
ATOM     48  O   UNL     1       4.498  -1.225  25.872  0.00  0.00    -0.387 OA
ATOM     49  H   UNL     1       3.767  -0.574  25.748  0.00  0.00    +0.210 HD
ENDBRANCH  47  48
BRANCH  46  50
ATOM     50  O   UNL     1       3.041  -0.977  28.182  0.00  0.00    -0.386 OA
ATOM     51  H   UNL     1       2.265  -0.383  28.107  0.00  0.00    +0.210 HD
ENDBRANCH  46  50
BRANCH  45  52
ATOM     52  O   UNL     1       2.942   0.946  26.241  0.00  0.00    -0.384 OA
ATOM     53  H   UNL     1       2.054   1.290  26.457  0.00  0.00    +0.210 HD
ENDBRANCH  45  52
ENDBRANCH  40  44
ENDBRANCH  39  40
ENDBRANCH   1  39
TORSDOF 16
ENDMDL
MODEL 5
REMARK VINA RESULT:      -6.6      1.280      2.138
REMARK  Name = 
REMARK  19 active torsions:
REMARK  status: ('A' for Active; 'I' for Inactive)
REMARK    1  A    between atoms: C_1  and  C_2
REMARK    2  A    between atoms: C_3  and  O_51
REMARK    3  A    between atoms: C_5  and  O_50
REMARK    4  A    between atoms: C_6  and  O_49
REMARK    5  A    between atoms: C_8  and  O_11
REMARK    6  A    between atoms: O_11  and  C_12
REMARK    7  A    between atoms: C_12  and  C_13
REMARK    8  A    between atoms: C_14  and  O_48
REMARK    9  A    between atoms: C_16  and  O_47
REMARK   10  A    between atoms: C_18  and  O_46
REMARK   11  A    between atoms: C_19  and  O_22
REMARK   12  A    between atoms: O_22  and  C_23
REMARK   13  A    between atoms: C_25  and  O_45
REMARK   14  A    between atoms: C_30  and  C_36
REMARK   15  A    between atoms: C_31  and  O_34
REMARK   16  A    between atoms: O_34  and  C_35
REMARK   17  A    between atoms: C_38  and  O_43
REMARK   18  A    between atoms: C_39  and  O_42
REMARK   19  A    between atoms: O_43  and  C_44
REMARK                            x       y       z     vdW  Elec       q    Type
REMARK                         _______ _______ _______ _____ _____    ______ ____
ROOT
ATOM      1  C   UNL     1       7.233  -4.809  24.075  0.00  0.00    +0.179 C 
ATOM      2  O   UNL     1       6.044  -4.391  24.764  0.00  0.00    -0.331 OA
ATOM      3  C   UNL     1       6.252  -3.365  25.750  0.00  0.00    +0.339 C 
ATOM      4  C   UNL     1       7.198  -3.898  26.851  0.00  0.00    +0.214 C 
ATOM      5  C   UNL     1       8.525  -4.294  26.178  0.00  0.00    +0.180 C 
ATOM      6  C   UNL     1       8.276  -5.339  25.082  0.00  0.00    +0.177 C 
ENDROOT
BRANCH   6   7
ATOM      7  O   UNL     1       9.532  -5.693  24.496  0.00  0.00    -0.386 OA
ATOM      8  H   UNL     1       9.807  -4.949  23.927  0.00  0.00    +0.210 HD
ENDBRANCH   6   7
BRANCH   5   9
ATOM      9  O   UNL     1       9.479  -4.796  27.117  0.00  0.00    -0.386 OA
ATOM     10  H   UNL     1      10.084  -4.048  27.295  0.00  0.00    +0.210 HD
ENDBRANCH   5   9
BRANCH   4  11
ATOM     11  O   UNL     1       6.620  -5.034  27.521  0.00  0.00    -0.383 OA
ATOM     12  H   UNL     1       5.951  -4.699  28.146  0.00  0.00    +0.210 HD
ENDBRANCH   4  11
BRANCH   3  13
ATOM     13  O   UNL     1       4.993  -2.979  26.323  0.00  0.00    -0.461 OA
BRANCH  13  14
ATOM     14  C   UNL     1       4.836  -1.637  26.562  0.00  0.00    +0.131 A 
ATOM     15  C   UNL     1       5.347  -0.613  25.767  0.00  0.00    +0.093 A 
ATOM     16  C   UNL     1       5.121   0.728  26.099  0.00  0.00    +0.147 A 
ATOM     17  O   UNL     1       5.666   1.646  25.241  0.00  0.00    -0.451 OA
ATOM     18  C   UNL     1       5.429   2.984  25.469  0.00  0.00    +0.181 A 
ATOM     19  C   UNL     1       4.741   3.489  26.510  0.00  0.00    +0.211 A 
ATOM     20  C   UNL     1       4.184   2.513  27.511  0.00  0.00    +0.238 A 
ATOM     21  O   UNL     1       3.583   2.887  28.509  0.00  0.00    -0.283 OA
ATOM     22  C   UNL     1       4.391   1.070  27.231  0.00  0.00    +0.109 A 
ATOM     23  C   UNL     1       3.901   0.039  28.046  0.00  0.00    +0.135 A 
ATOM     24  C   UNL     1       4.124  -1.305  27.718  0.00  0.00    +0.092 A 
BRANCH  18  25
ATOM     25  C   UNL     1       6.041   3.841  24.436  0.00  0.00    +0.025 A 
ATOM     26  C   UNL     1       5.309   4.180  23.288  0.00  0.00    +0.015 A 
ATOM     27  C   UNL     1       5.865   5.013  22.318  0.00  0.00    +0.050 A 
ATOM     28  C   UNL     1       7.148   5.508  22.505  0.00  0.00    +0.158 A 
ATOM     29  C   UNL     1       7.900   5.190  23.642  0.00  0.00    +0.162 A 
ATOM     30  C   UNL     1       7.342   4.349  24.607  0.00  0.00    +0.061 A 
BRANCH  29  31
ATOM     31  O   UNL     1       9.142   5.771  23.686  0.00  0.00    -0.491 OA
ATOM     32  C   UNL     1      10.252   4.896  23.845  0.00  0.00    +0.277 C 
ENDBRANCH  29  31
BRANCH  28  33
ATOM     33  O   UNL     1       7.671   6.329  21.541  0.00  0.00    -0.503 OA
ATOM     34  H   UNL     1       6.897   6.781  21.150  0.00  0.00    +0.292 HD
ENDBRANCH  28  33
ENDBRANCH  18  25
BRANCH  23  35
ATOM     35  O   UNL     1       3.183   0.320  29.175  0.00  0.00    -0.506 OA
ATOM     36  H   UNL     1       3.033  -0.483  29.698  0.00  0.00    +0.292 HD
ENDBRANCH  23  35
BRANCH  19  37
ATOM     37  O   UNL     1       4.540   4.861  26.603  0.00  0.00    -0.488 OA
ATOM     38  C   UNL     1       3.264   5.352  26.211  0.00  0.00    +0.277 C 
ENDBRANCH  19  37
ENDBRANCH  13  14
ENDBRANCH   3  13
BRANCH   1  39
ATOM     39  C   UNL     1       7.734  -3.709  23.123  0.00  0.00    +0.197 C 
BRANCH  39  40
ATOM     40  O   UNL     1       8.843  -3.025  23.689  0.00  0.00    -0.346 OA
BRANCH  40  44
ATOM     41  C   UNL     1       9.229   0.544  21.272  0.00  0.00    +0.041 C 
ATOM     42  C   UNL     1      10.166   0.140  22.409  0.00  0.00    +0.149 C 
ATOM     43  O   UNL     1      10.035  -1.255  22.720  0.00  0.00    -0.343 OA
ATOM     44  C   UNL     1       8.825  -1.626  23.384  0.00  0.00    +0.282 C 
ATOM     45  C   UNL     1       8.630  -0.847  24.701  0.00  0.00    +0.201 C 
ATOM     46  C   UNL     1       8.706   0.656  24.422  0.00  0.00    +0.179 C 
ATOM     47  C   UNL     1       9.997   1.006  23.666  0.00  0.00    +0.174 C 
BRANCH  47  48
ATOM     48  O   UNL     1      11.112   0.795  24.554  0.00  0.00    -0.387 OA
ATOM     49  H   UNL     1      11.043   1.488  25.254  0.00  0.00    +0.210 HD
ENDBRANCH  47  48
BRANCH  46  50
ATOM     50  O   UNL     1       8.672   1.364  25.671  0.00  0.00    -0.386 OA
ATOM     51  H   UNL     1       9.316   2.098  25.577  0.00  0.00    +0.210 HD
ENDBRANCH  46  50
BRANCH  45  52
ATOM     52  O   UNL     1       9.656  -1.187  25.662  0.00  0.00    -0.384 OA
ATOM     53  H   UNL     1      10.498  -0.958  25.224  0.00  0.00    +0.210 HD
ENDBRANCH  45  52
ENDBRANCH  40  44
ENDBRANCH  39  40
ENDBRANCH   1  39
TORSDOF 16
ENDMDL
MODEL 6
REMARK VINA RESULT:      -6.6      1.696      7.732
REMARK  Name = 
REMARK  19 active torsions:
REMARK  status: ('A' for Active; 'I' for Inactive)
REMARK    1  A    between atoms: C_1  and  C_2
REMARK    2  A    between atoms: C_3  and  O_51
REMARK    3  A    between atoms: C_5  and  O_50
REMARK    4  A    between atoms: C_6  and  O_49
REMARK    5  A    between atoms: C_8  and  O_11
REMARK    6  A    between atoms: O_11  and  C_12
REMARK    7  A    between atoms: C_12  and  C_13
REMARK    8  A    between atoms: C_14  and  O_48
REMARK    9  A    between atoms: C_16  and  O_47
REMARK   10  A    between atoms: C_18  and  O_46
REMARK   11  A    between atoms: C_19  and  O_22
REMARK   12  A    between atoms: O_22  and  C_23
REMARK   13  A    between atoms: C_25  and  O_45
REMARK   14  A    between atoms: C_30  and  C_36
REMARK   15  A    between atoms: C_31  and  O_34
REMARK   16  A    between atoms: O_34  and  C_35
REMARK   17  A    between atoms: C_38  and  O_43
REMARK   18  A    between atoms: C_39  and  O_42
REMARK   19  A    between atoms: O_43  and  C_44
REMARK                            x       y       z     vdW  Elec       q    Type
REMARK                         _______ _______ _______ _____ _____    ______ ____
ROOT
ATOM      1  C   UNL     1       7.888   4.588  23.131  0.00  0.00    +0.179 C 
ATOM      2  O   UNL     1       7.461   4.320  24.476  0.00  0.00    -0.331 OA
ATOM      3  C   UNL     1       6.036   4.221  24.644  0.00  0.00    +0.339 C 
ATOM      4  C   UNL     1       5.382   5.571  24.267  0.00  0.00    +0.214 C 
ATOM      5  C   UNL     1       5.746   5.875  22.802  0.00  0.00    +0.180 C 
ATOM      6  C   UNL     1       7.271   5.909  22.627  0.00  0.00    +0.177 C 
ENDROOT
BRANCH   6   7
ATOM      7  O   UNL     1       7.565   6.213  21.262  0.00  0.00    -0.386 OA
ATOM      8  H   UNL     1       7.640   7.184  21.189  0.00  0.00    +0.210 HD
ENDBRANCH   6   7
BRANCH   5   9
ATOM      9  O   UNL     1       5.180   7.108  22.350  0.00  0.00    -0.386 OA
ATOM     10  H   UNL     1       5.342   7.127  21.385  0.00  0.00    +0.210 HD
ENDBRANCH   5   9
BRANCH   4  11
ATOM     11  O   UNL     1       5.849   6.627  25.127  0.00  0.00    -0.383 OA
ATOM     12  H   UNL     1       5.146   6.813  25.776  0.00  0.00    +0.210 HD
ENDBRANCH   4  11
BRANCH   3  13
ATOM     13  O   UNL     1       5.729   3.885  26.006  0.00  0.00    -0.461 OA
BRANCH  13  14
ATOM     14  C   UNL     1       5.259   2.613  26.212  0.00  0.00    +0.131 A 
ATOM     15  C   UNL     1       5.632   1.488  25.479  0.00  0.00    +0.093 A 
ATOM     16  C   UNL     1       5.095   0.232  25.779  0.00  0.00    +0.147 A 
ATOM     17  O   UNL     1       5.540  -0.800  24.995  0.00  0.00    -0.451 OA
ATOM     18  C   UNL     1       5.103  -2.077  25.274  0.00  0.00    +0.181 A 
ATOM     19  C   UNL     1       4.218  -2.407  26.233  0.00  0.00    +0.211 A 
ATOM     20  C   UNL     1       3.655  -1.291  27.071  0.00  0.00    +0.238 A 
ATOM     21  O   UNL     1       2.813  -1.496  27.935  0.00  0.00    -0.283 OA
ATOM     22  C   UNL     1       4.171   0.075  26.806  0.00  0.00    +0.109 A 
ATOM     23  C   UNL     1       3.775   1.212  27.525  0.00  0.00    +0.135 A 
ATOM     24  C   UNL     1       4.310   2.473  27.229  0.00  0.00    +0.092 A 
BRANCH  18  25
ATOM     25  C   UNL     1       5.707  -3.080  24.376  0.00  0.00    +0.025 A 
ATOM     26  C   UNL     1       5.081  -3.393  23.160  0.00  0.00    +0.015 A 
ATOM     27  C   UNL     1       5.657  -4.318  22.290  0.00  0.00    +0.050 A 
ATOM     28  C   UNL     1       6.858  -4.919  22.637  0.00  0.00    +0.158 A 
ATOM     29  C   UNL     1       7.507  -4.622  23.842  0.00  0.00    +0.162 A 
ATOM     30  C   UNL     1       6.923  -3.701  24.714  0.00  0.00    +0.061 A 
BRANCH  29  31
ATOM     31  O   UNL     1       8.692  -5.286  24.031  0.00  0.00    -0.491 OA
ATOM     32  C   UNL     1       9.412  -4.984  25.219  0.00  0.00    +0.277 C 
ENDBRANCH  29  31
BRANCH  28  33
ATOM     33  O   UNL     1       7.407  -5.819  21.763  0.00  0.00    -0.503 OA
ATOM     34  H   UNL     1       8.371  -5.767  21.919  0.00  0.00    +0.292 HD
ENDBRANCH  28  33
ENDBRANCH  18  25
BRANCH  23  35
ATOM     35  O   UNL     1       2.864   1.117  28.540  0.00  0.00    -0.506 OA
ATOM     36  H   UNL     1       1.970   1.321  28.223  0.00  0.00    +0.292 HD
ENDBRANCH  23  35
BRANCH  19  37
ATOM     37  O   UNL     1       3.890  -3.742  26.438  0.00  0.00    -0.488 OA
ATOM     38  C   UNL     1       4.539  -4.406  27.515  0.00  0.00    +0.277 C 
ENDBRANCH  19  37
ENDBRANCH  13  14
ENDBRANCH   3  13
BRANCH   1  39
ATOM     39  C   UNL     1       7.660   3.364  22.227  0.00  0.00    +0.197 C 
BRANCH  39  40
ATOM     40  O   UNL     1       7.360   2.215  23.007  0.00  0.00    -0.346 OA
BRANCH  40  44
ATOM     41  C   UNL     1       9.163  -1.502  21.718  0.00  0.00    +0.041 C 
ATOM     42  C   UNL     1       8.739  -1.174  23.148  0.00  0.00    +0.149 C 
ATOM     43  O   UNL     1       7.812  -0.078  23.177  0.00  0.00    -0.343 OA
ATOM     44  C   UNL     1       8.369   1.206  22.888  0.00  0.00    +0.282 C 
ATOM     45  C   UNL     1       9.523   1.561  23.848  0.00  0.00    +0.201 C 
ATOM     46  C   UNL     1      10.573   0.449  23.819  0.00  0.00    +0.179 C 
ATOM     47  C   UNL     1       9.927  -0.919  24.086  0.00  0.00    +0.174 C 
BRANCH  47  48
ATOM     48  O   UNL     1       9.479  -0.947  25.455  0.00  0.00    -0.387 OA
ATOM     49  H   UNL     1       8.850  -1.705  25.525  0.00  0.00    +0.210 HD
ENDBRANCH  47  48
BRANCH  46  50
ATOM     50  O   UNL     1      11.565   0.718  24.822  0.00  0.00    -0.386 OA
ATOM     51  H   UNL     1      12.430   0.627  24.369  0.00  0.00    +0.210 HD
ENDBRANCH  46  50
BRANCH  45  52
ATOM     52  O   UNL     1       9.043   1.703  25.205  0.00  0.00    -0.384 OA
ATOM     53  H   UNL     1       8.563   0.874  25.392  0.00  0.00    +0.210 HD
ENDBRANCH  45  52
ENDBRANCH  40  44
ENDBRANCH  39  40
ENDBRANCH   1  39
TORSDOF 16
ENDMDL
MODEL 7
REMARK VINA RESULT:      -6.5      2.699      6.261
REMARK  Name = 
REMARK  19 active torsions:
REMARK  status: ('A' for Active; 'I' for Inactive)
REMARK    1  A    between atoms: C_1  and  C_2
REMARK    2  A    between atoms: C_3  and  O_51
REMARK    3  A    between atoms: C_5  and  O_50
REMARK    4  A    between atoms: C_6  and  O_49
REMARK    5  A    between atoms: C_8  and  O_11
REMARK    6  A    between atoms: O_11  and  C_12
REMARK    7  A    between atoms: C_12  and  C_13
REMARK    8  A    between atoms: C_14  and  O_48
REMARK    9  A    between atoms: C_16  and  O_47
REMARK   10  A    between atoms: C_18  and  O_46
REMARK   11  A    between atoms: C_19  and  O_22
REMARK   12  A    between atoms: O_22  and  C_23
REMARK   13  A    between atoms: C_25  and  O_45
REMARK   14  A    between atoms: C_30  and  C_36
REMARK   15  A    between atoms: C_31  and  O_34
REMARK   16  A    between atoms: O_34  and  C_35
REMARK   17  A    between atoms: C_38  and  O_43
REMARK   18  A    between atoms: C_39  and  O_42
REMARK   19  A    between atoms: O_43  and  C_44
REMARK                            x       y       z     vdW  Elec       q    Type
REMARK                         _______ _______ _______ _____ _____    ______ ____
ROOT
ATOM      1  C   UNL     1       3.438  -6.012  26.595  0.00  0.00    +0.179 C 
ATOM      2  O   UNL     1       4.234  -6.055  25.400  0.00  0.00    -0.331 OA
ATOM      3  C   UNL     1       3.507  -5.797  24.186  0.00  0.00    +0.339 C 
ATOM      4  C   UNL     1       2.424  -6.886  23.997  0.00  0.00    +0.214 C 
ATOM      5  C   UNL     1       1.491  -6.836  25.221  0.00  0.00    +0.180 C 
ATOM      6  C   UNL     1       2.294  -7.045  26.512  0.00  0.00    +0.177 C 
ENDROOT
BRANCH   6   7
ATOM      7  O   UNL     1       1.390  -7.011  27.619  0.00  0.00    -0.386 OA
ATOM      8  H   UNL     1       1.715  -7.651  28.281  0.00  0.00    +0.210 HD
ENDBRANCH   6   7
BRANCH   5   9
ATOM      9  O   UNL     1       0.443  -7.805  25.141  0.00  0.00    -0.386 OA
ATOM     10  H   UNL     1       0.883  -8.670  25.264  0.00  0.00    +0.210 HD
ENDBRANCH   5   9
BRANCH   4  11
ATOM     11  O   UNL     1       3.022  -8.190  23.878  0.00  0.00    -0.383 OA
ATOM     12  H   UNL     1       3.581  -8.187  23.079  0.00  0.00    +0.210 HD
ENDBRANCH   4  11
BRANCH   3  13
ATOM     13  O   UNL     1       4.410  -5.798  23.070  0.00  0.00    -0.461 OA
BRANCH  13  14
ATOM     14  C   UNL     1       5.503  -4.977  23.189  0.00  0.00    +0.131 A 
ATOM     15  C   UNL     1       5.502  -3.600  22.977  0.00  0.00    +0.093 A 
ATOM     16  C   UNL     1       6.676  -2.854  23.134  0.00  0.00    +0.147 A 
ATOM     17  O   UNL     1       6.552  -1.509  22.905  0.00  0.00    -0.451 OA
ATOM     18  C   UNL     1       7.651  -0.702  23.103  0.00  0.00    +0.181 A 
ATOM     19  C   UNL     1       8.879  -1.127  23.458  0.00  0.00    +0.211 A 
ATOM     20  C   UNL     1       9.069  -2.608  23.653  0.00  0.00    +0.238 A 
ATOM     21  O   UNL     1      10.161  -3.084  23.933  0.00  0.00    -0.283 OA
ATOM     22  C   UNL     1       7.870  -3.467  23.495  0.00  0.00    +0.109 A 
ATOM     23  C   UNL     1       7.876  -4.857  23.681  0.00  0.00    +0.135 A 
ATOM     24  C   UNL     1       6.704  -5.609  23.526  0.00  0.00    +0.092 A 
BRANCH  18  25
ATOM     25  C   UNL     1       7.347   0.721  22.863  0.00  0.00    +0.025 A 
ATOM     26  C   UNL     1       7.990   1.405  21.819  0.00  0.00    +0.015 A 
ATOM     27  C   UNL     1       7.690   2.742  21.564  0.00  0.00    +0.050 A 
ATOM     28  C   UNL     1       6.743   3.386  22.348  0.00  0.00    +0.158 A 
ATOM     29  C   UNL     1       6.083   2.728  23.392  0.00  0.00    +0.162 A 
ATOM     30  C   UNL     1       6.392   1.391  23.650  0.00  0.00    +0.061 A 
BRANCH  29  31
ATOM     31  O   UNL     1       5.165   3.496  24.061  0.00  0.00    -0.491 OA
ATOM     32  C   UNL     1       3.794   3.173  23.863  0.00  0.00    +0.277 C 
ENDBRANCH  29  31
BRANCH  28  33
ATOM     33  O   UNL     1       6.461   4.698  22.073  0.00  0.00    -0.503 OA
ATOM     34  H   UNL     1       7.333   5.135  22.009  0.00  0.00    +0.292 HD
ENDBRANCH  28  33
ENDBRANCH  18  25
BRANCH  23  35
ATOM     35  O   UNL     1       9.024  -5.512  24.029  0.00  0.00    -0.506 OA
ATOM     36  H   UNL     1       9.338  -6.072  23.301  0.00  0.00    +0.292 HD
ENDBRANCH  23  35
BRANCH  19  37
ATOM     37  O   UNL     1       9.895  -0.203  23.664  0.00  0.00    -0.488 OA
ATOM     38  C   UNL     1      10.155   0.177  25.010  0.00  0.00    +0.277 C 
ENDBRANCH  19  37
ENDBRANCH  13  14
ENDBRANCH   3  13
BRANCH   1  39
ATOM     39  C   UNL     1       3.005  -4.571  26.917  0.00  0.00    +0.197 C 
BRANCH  39  40
ATOM     40  O   UNL     1       4.036  -3.653  26.580  0.00  0.00    -0.346 OA
BRANCH  40  44
ATOM     41  C   UNL     1       2.683  -1.029  29.743  0.00  0.00    +0.041 C 
ATOM     42  C   UNL     1       2.559  -0.747  28.247  0.00  0.00    +0.149 C 
ATOM     43  O   UNL     1       2.699  -1.951  27.478  0.00  0.00    -0.343 OA
ATOM     44  C   UNL     1       4.020  -2.493  27.420  0.00  0.00    +0.282 C 
ATOM     45  C   UNL     1       5.035  -1.477  26.859  0.00  0.00    +0.201 C 
ATOM     46  C   UNL     1       4.969  -0.185  27.678  0.00  0.00    +0.179 C 
ATOM     47  C   UNL     1       3.527   0.339  27.756  0.00  0.00    +0.174 C 
BRANCH  47  48
ATOM     48  O   UNL     1       3.135   0.781  26.442  0.00  0.00    -0.387 OA
ATOM     49  H   UNL     1       2.189   0.520  26.333  0.00  0.00    +0.210 HD
ENDBRANCH  47  48
BRANCH  46  50
ATOM     50  O   UNL     1       5.808   0.802  27.058  0.00  0.00    -0.386 OA
ATOM     51  H   UNL     1       6.120   0.396  26.222  0.00  0.00    +0.210 HD
ENDBRANCH  46  50
BRANCH  45  52
ATOM     52  O   UNL     1       4.743  -1.160  25.479  0.00  0.00    -0.384 OA
ATOM     53  H   UNL     1       4.330  -1.966  25.116  0.00  0.00    +0.210 HD
ENDBRANCH  45  52
ENDBRANCH  40  44
ENDBRANCH  39  40
ENDBRANCH   1  39
TORSDOF 16
ENDMDL
MODEL 8
REMARK VINA RESULT:      -6.5      2.154      7.820
REMARK  Name = 
REMARK  19 active torsions:
REMARK  status: ('A' for Active; 'I' for Inactive)
REMARK    1  A    between atoms: C_1  and  C_2
REMARK    2  A    between atoms: C_3  and  O_51
REMARK    3  A    between atoms: C_5  and  O_50
REMARK    4  A    between atoms: C_6  and  O_49
REMARK    5  A    between atoms: C_8  and  O_11
REMARK    6  A    between atoms: O_11  and  C_12
REMARK    7  A    between atoms: C_12  and  C_13
REMARK    8  A    between atoms: C_14  and  O_48
REMARK    9  A    between atoms: C_16  and  O_47
REMARK   10  A    between atoms: C_18  and  O_46
REMARK   11  A    between atoms: C_19  and  O_22
REMARK   12  A    between atoms: O_22  and  C_23
REMARK   13  A    between atoms: C_25  and  O_45
REMARK   14  A    between atoms: C_30  and  C_36
REMARK   15  A    between atoms: C_31  and  O_34
REMARK   16  A    between atoms: O_34  and  C_35
REMARK   17  A    between atoms: C_38  and  O_43
REMARK   18  A    between atoms: C_39  and  O_42
REMARK   19  A    between atoms: O_43  and  C_44
REMARK                            x       y       z     vdW  Elec       q    Type
REMARK                         _______ _______ _______ _____ _____    ______ ____
ROOT
ATOM      1  C   UNL     1       9.118   1.363  23.817  0.00  0.00    +0.179 C 
ATOM      2  O   UNL     1       8.505   1.562  25.101  0.00  0.00    -0.331 OA
ATOM      3  C   UNL     1       7.336   2.401  25.084  0.00  0.00    +0.339 C 
ATOM      4  C   UNL     1       7.729   3.814  24.594  0.00  0.00    +0.214 C 
ATOM      5  C   UNL     1       8.327   3.672  23.182  0.00  0.00    +0.180 C 
ATOM      6  C   UNL     1       9.531   2.719  23.207  0.00  0.00    +0.177 C 
ENDROOT
BRANCH   6   7
ATOM      7  O   UNL     1      10.067   2.630  21.885  0.00  0.00    -0.386 OA
ATOM      8  H   UNL     1       9.439   2.108  21.350  0.00  0.00    +0.210 HD
ENDBRANCH   6   7
BRANCH   5   9
ATOM      9  O   UNL     1       8.719   4.932  22.632  0.00  0.00    -0.386 OA
ATOM     10  H   UNL     1       9.154   4.717  21.782  0.00  0.00    +0.210 HD
ENDBRANCH   5   9
BRANCH   4  11
ATOM     11  O   UNL     1       8.686   4.419  25.483  0.00  0.00    -0.383 OA
ATOM     12  H   UNL     1       8.295   4.429  26.376  0.00  0.00    +0.210 HD
ENDBRANCH   4  11
BRANCH   3  13
ATOM     13  O   UNL     1       6.770   2.472  26.401  0.00  0.00    -0.461 OA
BRANCH  13  14
ATOM     14  C   UNL     1       5.682   1.667  26.625  0.00  0.00    +0.131 A 
ATOM     15  C   UNL     1       5.565   0.340  26.216  0.00  0.00    +0.093 A 
ATOM     16  C   UNL     1       4.410  -0.395  26.504  0.00  0.00    +0.147 A 
ATOM     17  O   UNL     1       4.412  -1.690  26.057  0.00  0.00    -0.451 OA
ATOM     18  C   UNL     1       3.335  -2.494  26.360  0.00  0.00    +0.181 A 
ATOM     19  C   UNL     1       2.230  -2.103  27.024  0.00  0.00    +0.211 A 
ATOM     20  C   UNL     1       2.164  -0.667  27.471  0.00  0.00    +0.238 A 
ATOM     21  O   UNL     1       1.179  -0.217  28.042  0.00  0.00    -0.283 OA
ATOM     22  C   UNL     1       3.350   0.180  27.194  0.00  0.00    +0.109 A 
ATOM     23  C   UNL     1       3.456   1.524  27.581  0.00  0.00    +0.135 A 
ATOM     24  C   UNL     1       4.611   2.265  27.296  0.00  0.00    +0.092 A 
BRANCH  18  25
ATOM     25  C   UNL     1       3.506  -3.869  25.853  0.00  0.00    +0.025 A 
ATOM     26  C   UNL     1       3.009  -4.212  24.587  0.00  0.00    +0.015 A 
ATOM     27  C   UNL     1       3.190  -5.500  24.085  0.00  0.00    +0.050 A 
ATOM     28  C   UNL     1       3.874  -6.436  24.848  0.00  0.00    +0.158 A 
ATOM     29  C   UNL     1       4.385  -6.120  26.113  0.00  0.00    +0.162 A 
ATOM     30  C   UNL     1       4.194  -4.831  26.615  0.00  0.00    +0.061 A 
BRANCH  29  31
ATOM     31  O   UNL     1       5.049  -7.147  26.733  0.00  0.00    -0.491 OA
ATOM     32  C   UNL     1       5.152  -7.079  28.150  0.00  0.00    +0.277 C 
ENDBRANCH  29  31
BRANCH  28  33
ATOM     33  O   UNL     1       4.045  -7.692  24.331  0.00  0.00    -0.503 OA
ATOM     34  H   UNL     1       4.778  -7.603  23.690  0.00  0.00    +0.292 HD
ENDBRANCH  28  33
ENDBRANCH  18  25
BRANCH  23  35
ATOM     35  O   UNL     1       2.440   2.141  28.255  0.00  0.00    -0.506 OA
ATOM     36  H   UNL     1       1.862   1.489  28.682  0.00  0.00    +0.292 HD
ENDBRANCH  23  35
BRANCH  19  37
ATOM     37  O   UNL     1       1.229  -3.026  27.300  0.00  0.00    -0.488 OA
ATOM     38  C   UNL     1       1.210  -3.582  28.609  0.00  0.00    +0.277 C 
ENDBRANCH  19  37
ENDBRANCH  13  14
ENDBRANCH   3  13
BRANCH   1  39
ATOM     39  C   UNL     1       8.240   0.474  22.919  0.00  0.00    +0.197 C 
BRANCH  39  40
ATOM     40  O   UNL     1       8.985  -0.633  22.431  0.00  0.00    -0.346 OA
BRANCH  40  44
ATOM     41  C   UNL     1       5.665  -3.372  21.987  0.00  0.00    +0.041 C 
ATOM     42  C   UNL     1       6.151  -2.779  23.307  0.00  0.00    +0.149 C 
ATOM     43  O   UNL     1       6.961  -1.614  23.087  0.00  0.00    -0.343 OA
ATOM     44  C   UNL     1       8.261  -1.862  22.548  0.00  0.00    +0.282 C 
ATOM     45  C   UNL     1       9.078  -2.823  23.435  0.00  0.00    +0.201 C 
ATOM     46  C   UNL     1       8.283  -4.111  23.661  0.00  0.00    +0.179 C 
ATOM     47  C   UNL     1       6.878  -3.798  24.196  0.00  0.00    +0.174 C 
BRANCH  47  48
ATOM     48  O   UNL     1       7.009  -3.273  25.531  0.00  0.00    -0.387 OA
ATOM     49  H   UNL     1       6.160  -3.476  25.993  0.00  0.00    +0.210 HD
ENDBRANCH  47  48
BRANCH  46  50
ATOM     50  O   UNL     1       8.987  -4.933  24.606  0.00  0.00    -0.386 OA
ATOM     51  H   UNL     1       9.903  -4.584  24.629  0.00  0.00    +0.210 HD
ENDBRANCH  46  50
BRANCH  45  52
ATOM     52  O   UNL     1       9.359  -2.226  24.722  0.00  0.00    -0.384 OA
ATOM     53  H   UNL     1      10.178  -2.662  25.029  0.00  0.00    +0.210 HD
ENDBRANCH  45  52
ENDBRANCH  40  44
ENDBRANCH  39  40
ENDBRANCH   1  39
TORSDOF 16
ENDMDL
MODEL 9
REMARK VINA RESULT:      -6.4      2.152      5.321
REMARK  Name = 
REMARK  19 active torsions:
REMARK  status: ('A' for Active; 'I' for Inactive)
REMARK    1  A    between atoms: C_1  and  C_2
REMARK    2  A    between atoms: C_3  and  O_51
REMARK    3  A    between atoms: C_5  and  O_50
REMARK    4  A    between atoms: C_6  and  O_49
REMARK    5  A    between atoms: C_8  and  O_11
REMARK    6  A    between atoms: O_11  and  C_12
REMARK    7  A    between atoms: C_12  and  C_13
REMARK    8  A    between atoms: C_14  and  O_48
REMARK    9  A    between atoms: C_16  and  O_47
REMARK   10  A    between atoms: C_18  and  O_46
REMARK   11  A    between atoms: C_19  and  O_22
REMARK   12  A    between atoms: O_22  and  C_23
REMARK   13  A    between atoms: C_25  and  O_45
REMARK   14  A    between atoms: C_30  and  C_36
REMARK   15  A    between atoms: C_31  and  O_34
REMARK   16  A    between atoms: O_34  and  C_35
REMARK   17  A    between atoms: C_38  and  O_43
REMARK   18  A    between atoms: C_39  and  O_42
REMARK   19  A    between atoms: O_43  and  C_44
REMARK                            x       y       z     vdW  Elec       q    Type
REMARK                         _______ _______ _______ _____ _____    ______ ____
ROOT
ATOM      1  C   UNL     1       5.679  -5.407  25.469  0.00  0.00    +0.179 C 
ATOM      2  O   UNL     1       6.323  -4.849  24.313  0.00  0.00    -0.331 OA
ATOM      3  C   UNL     1       5.436  -4.533  23.226  0.00  0.00    +0.339 C 
ATOM      4  C   UNL     1       4.753  -5.830  22.730  0.00  0.00    +0.214 C 
ATOM      5  C   UNL     1       3.980  -6.435  23.916  0.00  0.00    +0.180 C 
ATOM      6  C   UNL     1       4.930  -6.702  25.091  0.00  0.00    +0.177 C 
ENDROOT
BRANCH   6   7
ATOM      7  O   UNL     1       4.178  -7.280  26.161  0.00  0.00    -0.386 OA
ATOM      8  H   UNL     1       4.814  -7.545  26.854  0.00  0.00    +0.210 HD
ENDBRANCH   6   7
BRANCH   5   9
ATOM      9  O   UNL     1       3.301  -7.642  23.559  0.00  0.00    -0.386 OA
ATOM     10  H   UNL     1       3.881  -8.365  23.873  0.00  0.00    +0.210 HD
ENDBRANCH   5   9
BRANCH   4  11
ATOM     11  O   UNL     1       5.727  -6.768  22.238  0.00  0.00    -0.383 OA
ATOM     12  H   UNL     1       5.395  -7.124  21.393  0.00  0.00    +0.210 HD
ENDBRANCH   4  11
BRANCH   3  13
ATOM     13  O   UNL     1       6.175  -3.923  22.157  0.00  0.00    -0.461 OA
BRANCH  13  14
ATOM     14  C   UNL     1       6.999  -2.888  22.520  0.00  0.00    +0.131 A 
ATOM     15  C   UNL     1       6.628  -1.546  22.577  0.00  0.00    +0.093 A 
ATOM     16  C   UNL     1       7.548  -0.567  22.968  0.00  0.00    +0.147 A 
ATOM     17  O   UNL     1       7.068   0.715  22.992  0.00  0.00    -0.451 OA
ATOM     18  C   UNL     1       7.900   1.723  23.430  0.00  0.00    +0.181 A 
ATOM     19  C   UNL     1       9.187   1.571  23.794  0.00  0.00    +0.211 A 
ATOM     20  C   UNL     1       9.769   0.185  23.716  0.00  0.00    +0.238 A 
ATOM     21  O   UNL     1      10.942  -0.036  23.987  0.00  0.00    -0.283 OA
ATOM     22  C   UNL     1       8.855  -0.907  23.300  0.00  0.00    +0.109 A 
ATOM     23  C   UNL     1       9.236  -2.254  23.215  0.00  0.00    +0.135 A 
ATOM     24  C   UNL     1       8.317  -3.238  22.824  0.00  0.00    +0.092 A 
BRANCH  18  25
ATOM     25  C   UNL     1       7.225   3.035  23.444  0.00  0.00    +0.025 A 
ATOM     26  C   UNL     1       7.283   3.861  22.311  0.00  0.00    +0.015 A 
ATOM     27  C   UNL     1       6.626   5.090  22.301  0.00  0.00    +0.050 A 
ATOM     28  C   UNL     1       5.907   5.483  23.421  0.00  0.00    +0.158 A 
ATOM     29  C   UNL     1       5.827   4.678  24.563  0.00  0.00    +0.162 A 
ATOM     30  C   UNL     1       6.494   3.451  24.572  0.00  0.00    +0.061 A 
BRANCH  29  31
ATOM     31  O   UNL     1       5.066   5.199  25.578  0.00  0.00    -0.491 OA
ATOM     32  C   UNL     1       5.753   5.573  26.766  0.00  0.00    +0.277 C 
ENDBRANCH  29  31
BRANCH  28  33
ATOM     33  O   UNL     1       5.264   6.692  23.385  0.00  0.00    -0.503 OA
ATOM     34  H   UNL     1       5.668   7.214  24.105  0.00  0.00    +0.292 HD
ENDBRANCH  28  33
ENDBRANCH  18  25
BRANCH  23  35
ATOM     35  O   UNL     1      10.509  -2.642  23.523  0.00  0.00    -0.506 OA
ATOM     36  H   UNL     1      10.831  -3.306  22.892  0.00  0.00    +0.292 HD
ENDBRANCH  23  35
BRANCH  19  37
ATOM     37  O   UNL     1       9.907   2.666  24.256  0.00  0.00    -0.488 OA
ATOM     38  C   UNL     1      10.847   3.242  23.358  0.00  0.00    +0.277 C 
ENDBRANCH  19  37
ENDBRANCH  13  14
ENDBRANCH   3  13
BRANCH   1  39
ATOM     39  C   UNL     1       4.835  -4.344  26.195  0.00  0.00    +0.197 C 
BRANCH  39  40
ATOM     40  O   UNL     1       5.576  -3.757  27.256  0.00  0.00    -0.346 OA
BRANCH  40  44
ATOM     41  C   UNL     1       2.824  -0.547  28.177  0.00  0.00    +0.041 C 
ATOM     42  C   UNL     1       3.550  -0.735  26.847  0.00  0.00    +0.149 C 
ATOM     43  O   UNL     1       4.037  -2.078  26.706  0.00  0.00    -0.343 OA
ATOM     44  C   UNL     1       5.152  -2.418  27.533  0.00  0.00    +0.282 C 
ATOM     45  C   UNL     1       6.349  -1.474  27.301  0.00  0.00    +0.201 C 
ATOM     46  C   UNL     1       5.900  -0.023  27.492  0.00  0.00    +0.179 C 
ATOM     47  C   UNL     1       4.673   0.288  26.621  0.00  0.00    +0.174 C 
BRANCH  47  48
ATOM     48  O   UNL     1       5.081   0.265  25.240  0.00  0.00    -0.387 OA
ATOM     49  H   UNL     1       5.555  -0.591  25.106  0.00  0.00    +0.210 HD
ENDBRANCH  47  48
BRANCH  46  50
ATOM     50  O   UNL     1       6.981   0.850  27.129  0.00  0.00    -0.386 OA
ATOM     51  H   UNL     1       6.689   1.308  26.313  0.00  0.00    +0.210 HD
ENDBRANCH  46  50
BRANCH  45  52
ATOM     52  O   UNL     1       6.872  -1.619  25.961  0.00  0.00    -0.384 OA
ATOM     53  H   UNL     1       7.585  -0.956  25.894  0.00  0.00    +0.210 HD
ENDBRANCH  45  52
ENDBRANCH  40  44
ENDBRANCH  39  40
ENDBRANCH   1  39
TORSDOF 16
ENDMDL
