MODEL 1
REMARK VINA RESULT:      -6.9      0.000      0.000
REMARK  Name = 
REMARK  8 active torsions:
REMARK  status: ('A' for Active; 'I' for Inactive)
REMARK    1  A    between atoms: C_1  and  O_2
REMARK    2  A    between atoms: O_2  and  C_3
REMARK    3  A    between atoms: C_4  and  O_24
REMARK    4  A    between atoms: C_6  and  C_9
REMARK    5  A    between atoms: C_10  and  O_22
REMARK    6  A    between atoms: C_14  and  O_21
REMARK    7  A    between atoms: C_16  and  O_20
REMARK    8  A    between atoms: O_22  and  C_23
REMARK                            x       y       z     vdW  Elec       q    Type
REMARK                         _______ _______ _______ _____ _____    ______ ____
ROOT
ATOM      1  C   UNL     1       6.511  -3.498  24.007  0.00  0.00    +0.181 A 
ATOM      2  O   UNL     1       6.683  -3.508  25.404  0.00  0.00    -0.451 OA
ATOM      3  C   UNL     1       6.166  -4.524  26.164  0.00  0.00    +0.147 A 
ATOM      4  C   UNL     1       5.433  -5.558  25.610  0.00  0.00    +0.109 A 
ATOM      5  C   UNL     1       4.931  -6.601  26.415  0.00  0.00    +0.135 A 
ATOM      6  C   UNL     1       5.166  -6.600  27.782  0.00  0.00    +0.091 A 
ATOM      7  C   UNL     1       5.899  -5.557  28.336  0.00  0.00    +0.124 A 
ATOM      8  C   UNL     1       5.194  -5.536  24.182  0.00  0.00    +0.238 A 
ATOM      9  O   UNL     1       4.527  -6.447  23.686  0.00  0.00    -0.283 OA
ATOM     10  C   UNL     1       6.401  -4.522  27.541  0.00  0.00    +0.092 A 
ATOM     11  C   UNL     1       5.774  -4.438  23.349  0.00  0.00    +0.211 A 
ENDROOT
BRANCH   1  15
ATOM     12  C   UNL     1       8.681  -0.179  22.230  0.00  0.00    +0.161 A 
ATOM     13  C   UNL     1       7.424   0.002  22.783  0.00  0.00    +0.050 A 
ATOM     14  C   UNL     1       6.717  -1.097  23.291  0.00  0.00    +0.015 A 
ATOM     15  C   UNL     1       7.281  -2.374  23.394  0.00  0.00    +0.025 A 
ATOM     16  C   UNL     1       8.528  -2.559  22.770  0.00  0.00    +0.060 A 
ATOM     17  C   UNL     1       9.191  -1.478  22.169  0.00  0.00    +0.159 A 
BRANCH  12  19
ATOM     18  C   UNL     1       9.961   1.803  22.479  0.00  0.00    +0.277 C 
ATOM     19  O   UNL     1       9.409   0.807  21.616  0.00  0.00    -0.491 OA
ENDBRANCH  12  19
BRANCH  17  20
ATOM     20  O   UNL     1      10.349  -1.721  21.479  0.00  0.00    -0.503 OA
ATOM     21  H   UNL     1      10.066  -2.118  20.632  0.00  0.00    +0.292 HD
ENDBRANCH  17  20
ENDBRANCH   1  15
BRANCH   5  22
ATOM     22  O   UNL     1       4.212  -7.651  25.913  0.00  0.00    -0.506 OA
ATOM     23  H   UNL     1       3.932  -7.417  24.997  0.00  0.00    +0.292 HD
ENDBRANCH   5  22
BRANCH   7  24
ATOM     24  O   UNL     1       6.148  -5.520  29.683  0.00  0.00    -0.507 OA
ATOM     25  H   UNL     1       5.783  -6.326  30.085  0.00  0.00    +0.292 HD
ENDBRANCH   7  24
BRANCH  11  26
ATOM     26  O   UNL     1       5.434  -4.634  22.044  0.00  0.00    -0.488 OA
ATOM     27  C   UNL     1       6.142  -5.217  20.979  0.00  0.00    +0.277 C 
ENDBRANCH  11  26
TORSDOF 6
ENDMDL
MODEL 2
REMARK VINA RESULT:      -6.8      2.972      5.127
REMARK  Name = 
REMARK  8 active torsions:
REMARK  status: ('A' for Active; 'I' for Inactive)
REMARK    1  A    between atoms: C_1  and  O_2
REMARK    2  A    between atoms: O_2  and  C_3
REMARK    3  A    between atoms: C_4  and  O_24
REMARK    4  A    between atoms: C_6  and  C_9
REMARK    5  A    between atoms: C_10  and  O_22
REMARK    6  A    between atoms: C_14  and  O_21
REMARK    7  A    between atoms: C_16  and  O_20
REMARK    8  A    between atoms: O_22  and  C_23
REMARK                            x       y       z     vdW  Elec       q    Type
REMARK                         _______ _______ _______ _____ _____    ______ ____
ROOT
ATOM      1  C   UNL     1       7.659  -0.750  23.048  0.00  0.00    +0.181 A 
ATOM      2  O   UNL     1       6.585  -1.575  22.662  0.00  0.00    -0.451 OA
ATOM      3  C   UNL     1       6.660  -2.935  22.816  0.00  0.00    +0.147 A 
ATOM      4  C   UNL     1       7.786  -3.558  23.319  0.00  0.00    +0.109 A 
ATOM      5  C   UNL     1       7.826  -4.958  23.485  0.00  0.00    +0.135 A 
ATOM      6  C   UNL     1       6.727  -5.731  23.139  0.00  0.00    +0.091 A 
ATOM      7  C   UNL     1       5.599  -5.101  22.630  0.00  0.00    +0.124 A 
ATOM      8  C   UNL     1       8.926  -2.733  23.667  0.00  0.00    +0.238 A 
ATOM      9  O   UNL     1       9.939  -3.286  24.100  0.00  0.00    -0.283 OA
ATOM     10  C   UNL     1       5.554  -3.714  22.466  0.00  0.00    +0.092 A 
ATOM     11  C   UNL     1       8.838  -1.248  23.517  0.00  0.00    +0.211 A 
ENDROOT
BRANCH   1  15
ATOM     12  C   UNL     1       6.634   3.450  22.609  0.00  0.00    +0.161 A 
ATOM     13  C   UNL     1       7.586   2.857  21.797  0.00  0.00    +0.050 A 
ATOM     14  C   UNL     1       7.946   1.518  22.001  0.00  0.00    +0.015 A 
ATOM     15  C   UNL     1       7.284   0.690  22.916  0.00  0.00    +0.025 A 
ATOM     16  C   UNL     1       6.367   1.318  23.778  0.00  0.00    +0.060 A 
ATOM     17  C   UNL     1       6.083   2.685  23.641  0.00  0.00    +0.159 A 
BRANCH  12  19
ATOM     18  C   UNL     1       7.308   5.671  22.120  0.00  0.00    +0.277 C 
ATOM     19  O   UNL     1       6.286   4.774  22.560  0.00  0.00    -0.491 OA
ENDBRANCH  12  19
BRANCH  17  20
ATOM     20  O   UNL     1       5.270   3.282  24.567  0.00  0.00    -0.503 OA
ATOM     21  H   UNL     1       4.635   2.589  24.837  0.00  0.00    +0.292 HD
ENDBRANCH  17  20
ENDBRANCH   1  15
BRANCH   5  22
ATOM     22  O   UNL     1       8.912  -5.619  23.989  0.00  0.00    -0.506 OA
ATOM     23  H   UNL     1       9.710  -5.312  23.498  0.00  0.00    +0.292 HD
ENDBRANCH   5  22
BRANCH   7  24
ATOM     24  O   UNL     1       4.495  -5.833  22.274  0.00  0.00    -0.507 OA
ATOM     25  H   UNL     1       4.194  -6.331  23.052  0.00  0.00    +0.292 HD
ENDBRANCH   7  24
BRANCH  11  26
ATOM     26  O   UNL     1      10.012  -0.685  23.918  0.00  0.00    -0.488 OA
ATOM     27  C   UNL     1      10.294   0.259  24.921  0.00  0.00    +0.277 C 
ENDBRANCH  11  26
TORSDOF 6
ENDMDL
MODEL 3
REMARK VINA RESULT:      -6.8      1.462      3.227
REMARK  Name = 
REMARK  8 active torsions:
REMARK  status: ('A' for Active; 'I' for Inactive)
REMARK    1  A    between atoms: C_1  and  O_2
REMARK    2  A    between atoms: O_2  and  C_3
REMARK    3  A    between atoms: C_4  and  O_24
REMARK    4  A    between atoms: C_6  and  C_9
REMARK    5  A    between atoms: C_10  and  O_22
REMARK    6  A    between atoms: C_14  and  O_21
REMARK    7  A    between atoms: C_16  and  O_20
REMARK    8  A    between atoms: O_22  and  C_23
REMARK                            x       y       z     vdW  Elec       q    Type
REMARK                         _______ _______ _______ _____ _____    ______ ____
ROOT
ATOM      1  C   UNL     1       6.879  -3.731  24.156  0.00  0.00    +0.181 A 
ATOM      2  O   UNL     1       5.835  -4.245  23.363  0.00  0.00    -0.451 OA
ATOM      3  C   UNL     1       5.040  -5.259  23.828  0.00  0.00    +0.147 A 
ATOM      4  C   UNL     1       5.240  -5.843  25.065  0.00  0.00    +0.109 A 
ATOM      5  C   UNL     1       4.393  -6.871  25.526  0.00  0.00    +0.135 A 
ATOM      6  C   UNL     1       3.343  -7.315  24.734  0.00  0.00    +0.091 A 
ATOM      7  C   UNL     1       3.148  -6.729  23.489  0.00  0.00    +0.124 A 
ATOM      8  C   UNL     1       6.346  -5.370  25.873  0.00  0.00    +0.238 A 
ATOM      9  O   UNL     1       6.538  -5.898  26.970  0.00  0.00    -0.283 OA
ATOM     10  C   UNL     1       3.984  -5.707  23.030  0.00  0.00    +0.092 A 
ATOM     11  C   UNL     1       7.202  -4.249  25.374  0.00  0.00    +0.211 A 
ENDROOT
BRANCH   1  15
ATOM     12  C   UNL     1       8.621  -0.245  22.232  0.00  0.00    +0.161 A 
ATOM     13  C   UNL     1       7.353  -0.197  22.788  0.00  0.00    +0.050 A 
ATOM     14  C   UNL     1       6.788  -1.352  23.345  0.00  0.00    +0.015 A 
ATOM     15  C   UNL     1       7.503  -2.547  23.493  0.00  0.00    +0.025 A 
ATOM     16  C   UNL     1       8.762  -2.603  22.867  0.00  0.00    +0.060 A 
ATOM     17  C   UNL     1       9.285  -1.474  22.217  0.00  0.00    +0.159 A 
BRANCH  12  19
ATOM     18  C   UNL     1       9.857   1.773  22.401  0.00  0.00    +0.277 C 
ATOM     19  O   UNL     1       9.221   0.796  21.574  0.00  0.00    -0.491 OA
ENDBRANCH  12  19
BRANCH  17  20
ATOM     20  O   UNL     1      10.462  -1.601  21.528  0.00  0.00    -0.503 OA
ATOM     21  H   UNL     1      10.470  -0.858  20.893  0.00  0.00    +0.292 HD
ENDBRANCH  17  20
ENDBRANCH   1  15
BRANCH   5  22
ATOM     22  O   UNL     1       4.541  -7.471  26.746  0.00  0.00    -0.506 OA
ATOM     23  H   UNL     1       5.349  -8.036  26.710  0.00  0.00    +0.292 HD
ENDBRANCH   5  22
BRANCH   7  24
ATOM     24  O   UNL     1       2.124  -7.143  22.678  0.00  0.00    -0.507 OA
ATOM     25  H   UNL     1       2.474  -7.265  21.780  0.00  0.00    +0.292 HD
ENDBRANCH   7  24
BRANCH  11  26
ATOM     26  O   UNL     1       8.159  -3.966  26.302  0.00  0.00    -0.488 OA
ATOM     27  C   UNL     1       9.468  -4.454  26.464  0.00  0.00    +0.277 C 
ENDBRANCH  11  26
TORSDOF 6
ENDMDL
MODEL 4
REMARK VINA RESULT:      -6.7      1.891      7.313
REMARK  Name = 
REMARK  8 active torsions:
REMARK  status: ('A' for Active; 'I' for Inactive)
REMARK    1  A    between atoms: C_1  and  O_2
REMARK    2  A    between atoms: O_2  and  C_3
REMARK    3  A    between atoms: C_4  and  O_24
REMARK    4  A    between atoms: C_6  and  C_9
REMARK    5  A    between atoms: C_10  and  O_22
REMARK    6  A    between atoms: C_14  and  O_21
REMARK    7  A    between atoms: C_16  and  O_20
REMARK    8  A    between atoms: O_22  and  C_23
REMARK                            x       y       z     vdW  Elec       q    Type
REMARK                         _______ _______ _______ _____ _____    ______ ____
ROOT
ATOM      1  C   UNL     1       7.051  -3.856  24.160  0.00  0.00    +0.181 A 
ATOM      2  O   UNL     1       6.365  -2.660  23.876  0.00  0.00    -0.451 OA
ATOM      3  C   UNL     1       7.049  -1.537  23.489  0.00  0.00    +0.147 A 
ATOM      4  C   UNL     1       8.428  -1.512  23.394  0.00  0.00    +0.109 A 
ATOM      5  C   UNL     1       9.103  -0.348  22.974  0.00  0.00    +0.135 A 
ATOM      6  C   UNL     1       8.385   0.796  22.654  0.00  0.00    +0.091 A 
ATOM      7  C   UNL     1       7.000   0.768  22.756  0.00  0.00    +0.124 A 
ATOM      8  C   UNL     1       9.158  -2.714  23.739  0.00  0.00    +0.238 A 
ATOM      9  O   UNL     1      10.389  -2.692  23.671  0.00  0.00    -0.283 OA
ATOM     10  C   UNL     1       6.326  -0.385  23.169  0.00  0.00    +0.092 A 
ATOM     11  C   UNL     1       8.411  -3.946  24.142  0.00  0.00    +0.211 A 
ENDROOT
BRANCH   1  15
ATOM     12  C   UNL     1       4.195  -7.060  24.837  0.00  0.00    +0.161 A 
ATOM     13  C   UNL     1       4.201  -6.345  23.651  0.00  0.00    +0.050 A 
ATOM     14  C   UNL     1       5.088  -5.274  23.482  0.00  0.00    +0.015 A 
ATOM     15  C   UNL     1       6.084  -4.964  24.417  0.00  0.00    +0.025 A 
ATOM     16  C   UNL     1       6.025  -5.652  25.643  0.00  0.00    +0.060 A 
ATOM     17  C   UNL     1       5.067  -6.656  25.851  0.00  0.00    +0.159 A 
BRANCH  12  19
ATOM     18  C   UNL     1       2.189  -8.184  24.255  0.00  0.00    +0.277 C 
ATOM     19  O   UNL     1       3.302  -8.053  25.141  0.00  0.00    -0.491 OA
ENDBRANCH  12  19
BRANCH  17  20
ATOM     20  O   UNL     1       4.973  -7.225  27.093  0.00  0.00    -0.503 OA
ATOM     21  H   UNL     1       4.078  -7.616  27.130  0.00  0.00    +0.292 HD
ENDBRANCH  17  20
ENDBRANCH   1  15
BRANCH   5  22
ATOM     22  O   UNL     1      10.463  -0.277  22.851  0.00  0.00    -0.506 OA
ATOM     23  H   UNL     1      10.671   0.399  22.163  0.00  0.00    +0.292 HD
ENDBRANCH   5  22
BRANCH   7  24
ATOM     24  O   UNL     1       6.257   1.879  22.451  0.00  0.00    -0.507 OA
ATOM     25  H   UNL     1       5.318   1.661  22.566  0.00  0.00    +0.292 HD
ENDBRANCH   7  24
BRANCH  11  26
ATOM     26  O   UNL     1       9.299  -4.947  24.401  0.00  0.00    -0.488 OA
ATOM     27  C   UNL     1       9.814  -5.439  25.614  0.00  0.00    +0.277 C 
ENDBRANCH  11  26
TORSDOF 6
ENDMDL
MODEL 5
REMARK VINA RESULT:      -6.7      2.076      4.360
REMARK  Name = 
REMARK  8 active torsions:
REMARK  status: ('A' for Active; 'I' for Inactive)
REMARK    1  A    between atoms: C_1  and  O_2
REMARK    2  A    between atoms: O_2  and  C_3
REMARK    3  A    between atoms: C_4  and  O_24
REMARK    4  A    between atoms: C_6  and  C_9
REMARK    5  A    between atoms: C_10  and  O_22
REMARK    6  A    between atoms: C_14  and  O_21
REMARK    7  A    between atoms: C_16  and  O_20
REMARK    8  A    between atoms: O_22  and  C_23
REMARK                            x       y       z     vdW  Elec       q    Type
REMARK                         _______ _______ _______ _____ _____    ______ ____
ROOT
ATOM      1  C   UNL     1       8.387  -1.774  24.255  0.00  0.00    +0.181 A 
ATOM      2  O   UNL     1       8.075  -2.545  23.119  0.00  0.00    -0.451 OA
ATOM      3  C   UNL     1       7.325  -3.685  23.234  0.00  0.00    +0.147 A 
ATOM      4  C   UNL     1       6.871  -4.148  24.455  0.00  0.00    +0.109 A 
ATOM      5  C   UNL     1       6.083  -5.314  24.540  0.00  0.00    +0.135 A 
ATOM      6  C   UNL     1       5.755  -6.018  23.390  0.00  0.00    +0.091 A 
ATOM      7  C   UNL     1       6.217  -5.552  22.165  0.00  0.00    +0.124 A 
ATOM      8  C   UNL     1       7.230  -3.403  25.644  0.00  0.00    +0.238 A 
ATOM      9  O   UNL     1       6.841  -3.820  26.737  0.00  0.00    -0.283 OA
ATOM     10  C   UNL     1       6.996  -4.395  22.076  0.00  0.00    +0.092 A 
ATOM     11  C   UNL     1       8.033  -2.147  25.517  0.00  0.00    +0.211 A 
ENDROOT
BRANCH   1  15
ATOM     12  C   UNL     1      10.464   1.886  23.169  0.00  0.00    +0.161 A 
ATOM     13  C   UNL     1      10.840   1.152  24.282  0.00  0.00    +0.050 A 
ATOM     14  C   UNL     1      10.113   0.011  24.648  0.00  0.00    +0.015 A 
ATOM     15  C   UNL     1       9.086  -0.516  23.856  0.00  0.00    +0.025 A 
ATOM     16  C   UNL     1       8.670   0.272  22.768  0.00  0.00    +0.060 A 
ATOM     17  C   UNL     1       9.332   1.470  22.461  0.00  0.00    +0.159 A 
BRANCH  12  19
ATOM     18  C   UNL     1      10.757   4.197  23.613  0.00  0.00    +0.277 C 
ATOM     19  O   UNL     1      11.041   3.067  22.785  0.00  0.00    -0.491 OA
ENDBRANCH  12  19
BRANCH  17  20
ATOM     20  O   UNL     1       8.830   2.261  21.462  0.00  0.00    -0.503 OA
ATOM     21  H   UNL     1       9.025   1.783  20.632  0.00  0.00    +0.292 HD
ENDBRANCH  17  20
ENDBRANCH   1  15
BRANCH   5  22
ATOM     22  O   UNL     1       5.600  -5.805  25.722  0.00  0.00    -0.506 OA
ATOM     23  H   UNL     1       6.147  -6.586  25.972  0.00  0.00    +0.292 HD
ENDBRANCH   5  22
BRANCH   7  24
ATOM     24  O   UNL     1       5.917  -6.223  21.008  0.00  0.00    -0.507 OA
ATOM     25  H   UNL     1       6.243  -7.134  21.088  0.00  0.00    +0.292 HD
ENDBRANCH   7  24
BRANCH  11  26
ATOM     26  O   UNL     1       8.233  -1.614  26.756  0.00  0.00    -0.488 OA
ATOM     27  C   UNL     1       7.768  -0.421  27.338  0.00  0.00    +0.277 C 
ENDBRANCH  11  26
TORSDOF 6
ENDMDL
MODEL 6
REMARK VINA RESULT:      -6.5      3.384      9.049
REMARK  Name = 
REMARK  8 active torsions:
REMARK  status: ('A' for Active; 'I' for Inactive)
REMARK    1  A    between atoms: C_1  and  O_2
REMARK    2  A    between atoms: O_2  and  C_3
REMARK    3  A    between atoms: C_4  and  O_24
REMARK    4  A    between atoms: C_6  and  C_9
REMARK    5  A    between atoms: C_10  and  O_22
REMARK    6  A    between atoms: C_14  and  O_21
REMARK    7  A    between atoms: C_16  and  O_20
REMARK    8  A    between atoms: O_22  and  C_23
REMARK                            x       y       z     vdW  Elec       q    Type
REMARK                         _______ _______ _______ _____ _____    ______ ____
ROOT
ATOM      1  C   UNL     1       8.914   1.566  23.574  0.00  0.00    +0.181 A 
ATOM      2  O   UNL     1      10.252   1.956  23.377  0.00  0.00    -0.451 OA
ATOM      3  C   UNL     1      10.619   3.272  23.488  0.00  0.00    +0.147 A 
ATOM      4  C   UNL     1       9.704   4.271  23.761  0.00  0.00    +0.109 A 
ATOM      5  C   UNL     1      10.114   5.613  23.890  0.00  0.00    +0.135 A 
ATOM      6  C   UNL     1      11.452   5.950  23.739  0.00  0.00    +0.091 A 
ATOM      7  C   UNL     1      12.369   4.943  23.460  0.00  0.00    +0.124 A 
ATOM      8  C   UNL     1       8.311   3.900  23.907  0.00  0.00    +0.238 A 
ATOM      9  O   UNL     1       7.488   4.789  24.134  0.00  0.00    -0.283 OA
ATOM     10  C   UNL     1      11.966   3.610  23.335  0.00  0.00    +0.092 A 
ATOM     11  C   UNL     1       7.913   2.462  23.806  0.00  0.00    +0.211 A 
ENDROOT
BRANCH   1  15
ATOM     12  C   UNL     1       8.645  -2.771  23.501  0.00  0.00    +0.161 A 
ATOM     13  C   UNL     1       9.757  -2.131  24.024  0.00  0.00    +0.050 A 
ATOM     14  C   UNL     1       9.849  -0.733  23.976  0.00  0.00    +0.015 A 
ATOM     15  C   UNL     1       8.794   0.078  23.541  0.00  0.00    +0.025 A 
ATOM     16  C   UNL     1       7.700  -0.583  22.952  0.00  0.00    +0.060 A 
ATOM     17  C   UNL     1       7.656  -1.985  22.906  0.00  0.00    +0.159 A 
BRANCH  12  19
ATOM     18  C   UNL     1       8.272  -4.821  24.635  0.00  0.00    +0.277 C 
ATOM     19  O   UNL     1       8.505  -4.130  23.406  0.00  0.00    -0.491 OA
ENDBRANCH  12  19
BRANCH  17  20
ATOM     20  O   UNL     1       6.628  -2.586  22.230  0.00  0.00    -0.503 OA
ATOM     21  H   UNL     1       5.828  -2.403  22.761  0.00  0.00    +0.292 HD
ENDBRANCH  17  20
ENDBRANCH   1  15
BRANCH   5  22
ATOM     22  O   UNL     1       9.250   6.635  24.171  0.00  0.00    -0.506 OA
ATOM     23  H   UNL     1       8.398   6.447  23.712  0.00  0.00    +0.292 HD
ENDBRANCH   5  22
BRANCH   7  24
ATOM     24  O   UNL     1      13.698   5.237  23.302  0.00  0.00    -0.507 OA
ATOM     25  H   UNL     1      13.773   6.147  22.970  0.00  0.00    +0.292 HD
ENDBRANCH   7  24
BRANCH  11  26
ATOM     26  O   UNL     1       6.567   2.353  23.993  0.00  0.00    -0.488 OA
ATOM     27  C   UNL     1       5.818   1.848  25.070  0.00  0.00    +0.277 C 
ENDBRANCH  11  26
TORSDOF 6
ENDMDL
MODEL 7
REMARK VINA RESULT:      -6.5      3.087      4.755
REMARK  Name = 
REMARK  8 active torsions:
REMARK  status: ('A' for Active; 'I' for Inactive)
REMARK    1  A    between atoms: C_1  and  O_2
REMARK    2  A    between atoms: O_2  and  C_3
REMARK    3  A    between atoms: C_4  and  O_24
REMARK    4  A    between atoms: C_6  and  C_9
REMARK    5  A    between atoms: C_10  and  O_22
REMARK    6  A    between atoms: C_14  and  O_21
REMARK    7  A    between atoms: C_16  and  O_20
REMARK    8  A    between atoms: O_22  and  C_23
REMARK                            x       y       z     vdW  Elec       q    Type
REMARK                         _______ _______ _______ _____ _____    ______ ____
ROOT
ATOM      1  C   UNL     1       7.966  -0.664  24.461  0.00  0.00    +0.181 A 
ATOM      2  O   UNL     1       7.298  -1.457  25.412  0.00  0.00    -0.451 OA
ATOM      3  C   UNL     1       7.754  -2.713  25.718  0.00  0.00    +0.147 A 
ATOM      4  C   UNL     1       8.855  -3.268  25.093  0.00  0.00    +0.109 A 
ATOM      5  C   UNL     1       9.314  -4.554  25.443  0.00  0.00    +0.135 A 
ATOM      6  C   UNL     1       8.657  -5.285  26.423  0.00  0.00    +0.091 A 
ATOM      7  C   UNL     1       7.547  -4.725  27.045  0.00  0.00    +0.124 A 
ATOM      8  C   UNL     1       9.522  -2.492  24.068  0.00  0.00    +0.238 A 
ATOM      9  O   UNL     1      10.495  -2.989  23.496  0.00  0.00    -0.283 OA
ATOM     10  C   UNL     1       7.091  -3.449  26.703  0.00  0.00    +0.092 A 
ATOM     11  C   UNL     1       9.037  -1.114  23.748  0.00  0.00    +0.211 A 
ENDROOT
BRANCH   1  15
ATOM     12  C   UNL     1       6.290   3.345  24.349  0.00  0.00    +0.161 A 
ATOM     13  C   UNL     1       7.596   3.125  24.756  0.00  0.00    +0.050 A 
ATOM     14  C   UNL     1       8.092   1.818  24.846  0.00  0.00    +0.015 A 
ATOM     15  C   UNL     1       7.366   0.704  24.408  0.00  0.00    +0.025 A 
ATOM     16  C   UNL     1       6.022   0.930  24.061  0.00  0.00    +0.060 A 
ATOM     17  C   UNL     1       5.494   2.230  24.071  0.00  0.00    +0.159 A 
BRANCH  12  19
ATOM     18  C   UNL     1       5.987   5.400  23.204  0.00  0.00    +0.277 C 
ATOM     19  O   UNL     1       5.679   4.570  24.326  0.00  0.00    -0.491 OA
ENDBRANCH  12  19
BRANCH  17  20
ATOM     20  O   UNL     1       4.156   2.396  23.832  0.00  0.00    -0.503 OA
ATOM     21  H   UNL     1       4.032   3.359  23.714  0.00  0.00    +0.292 HD
ENDBRANCH  17  20
ENDBRANCH   1  15
BRANCH   5  22
ATOM     22  O   UNL     1      10.405  -5.141  24.864  0.00  0.00    -0.506 OA
ATOM     23  H   UNL     1      11.209  -4.821  25.337  0.00  0.00    +0.292 HD
ENDBRANCH   5  22
BRANCH   7  24
ATOM     24  O   UNL     1       6.871  -5.418  28.015  0.00  0.00    -0.507 OA
ATOM     25  H   UNL     1       7.492  -5.628  28.732  0.00  0.00    +0.292 HD
ENDBRANCH   7  24
BRANCH  11  26
ATOM     26  O   UNL     1       9.822  -0.575  22.773  0.00  0.00    -0.488 OA
ATOM     27  C   UNL     1       9.507  -0.083  21.494  0.00  0.00    +0.277 C 
ENDBRANCH  11  26
TORSDOF 6
ENDMDL
MODEL 8
REMARK VINA RESULT:      -6.4      2.764      7.536
REMARK  Name = 
REMARK  8 active torsions:
REMARK  status: ('A' for Active; 'I' for Inactive)
REMARK    1  A    between atoms: C_1  and  O_2
REMARK    2  A    between atoms: O_2  and  C_3
REMARK    3  A    between atoms: C_4  and  O_24
REMARK    4  A    between atoms: C_6  and  C_9
REMARK    5  A    between atoms: C_10  and  O_22
REMARK    6  A    between atoms: C_14  and  O_21
REMARK    7  A    between atoms: C_16  and  O_20
REMARK    8  A    between atoms: O_22  and  C_23
REMARK                            x       y       z     vdW  Elec       q    Type
REMARK                         _______ _______ _______ _____ _____    ______ ____
ROOT
ATOM      1  C   UNL     1       7.192  -1.753  23.200  0.00  0.00    +0.181 A 
ATOM      2  O   UNL     1       6.521  -0.550  22.910  0.00  0.00    -0.451 OA
ATOM      3  C   UNL     1       7.219   0.621  22.767  0.00  0.00    +0.147 A 
ATOM      4  C   UNL     1       8.590   0.685  22.929  0.00  0.00    +0.109 A 
ATOM      5  C   UNL     1       9.283   1.900  22.755  0.00  0.00    +0.135 A 
ATOM      6  C   UNL     1       8.591   3.055  22.420  0.00  0.00    +0.091 A 
ATOM      7  C   UNL     1       7.212   2.987  22.263  0.00  0.00    +0.124 A 
ATOM      8  C   UNL     1       9.293  -0.530  23.286  0.00  0.00    +0.238 A 
ATOM      9  O   UNL     1      10.514  -0.475  23.448  0.00  0.00    -0.283 OA
ATOM     10  C   UNL     1       6.521   1.784  22.431  0.00  0.00    +0.092 A 
ATOM     11  C   UNL     1       8.535  -1.812  23.423  0.00  0.00    +0.211 A 
ENDROOT
BRANCH   1  15
ATOM     12  C   UNL     1       4.385  -5.072  23.175  0.00  0.00    +0.161 A 
ATOM     13  C   UNL     1       4.265  -4.038  24.091  0.00  0.00    +0.050 A 
ATOM     14  C   UNL     1       5.221  -3.014  24.121  0.00  0.00    +0.015 A 
ATOM     15  C   UNL     1       6.239  -2.903  23.166  0.00  0.00    +0.025 A 
ATOM     16  C   UNL     1       6.391  -3.990  22.285  0.00  0.00    +0.060 A 
ATOM     17  C   UNL     1       5.494  -5.068  22.325  0.00  0.00    +0.159 A 
BRANCH  12  19
ATOM     18  C   UNL     1       2.168  -5.900  23.027  0.00  0.00    +0.277 C 
ATOM     19  O   UNL     1       3.567  -6.169  23.131  0.00  0.00    -0.491 OA
ENDBRANCH  12  19
BRANCH  17  20
ATOM     20  O   UNL     1       5.739  -6.154  21.527  0.00  0.00    -0.503 OA
ATOM     21  H   UNL     1       6.625  -5.997  21.144  0.00  0.00    +0.292 HD
ENDBRANCH  17  20
ENDBRANCH   1  15
BRANCH   5  22
ATOM     22  O   UNL     1      10.640   2.012  22.892  0.00  0.00    -0.506 OA
ATOM     23  H   UNL     1      10.856   1.931  23.850  0.00  0.00    +0.292 HD
ENDBRANCH   5  22
BRANCH   7  24
ATOM     24  O   UNL     1       6.493   4.108  21.935  0.00  0.00    -0.507 OA
ATOM     25  H   UNL     1       5.560   3.947  22.150  0.00  0.00    +0.292 HD
ENDBRANCH   7  24
BRANCH  11  26
ATOM     26  O   UNL     1       9.400  -2.815  23.745  0.00  0.00    -0.488 OA
ATOM     27  C   UNL     1       9.337  -3.814  24.731  0.00  0.00    +0.277 C 
ENDBRANCH  11  26
TORSDOF 6
ENDMDL
MODEL 9
REMARK VINA RESULT:      -6.3      2.126      7.347
REMARK  Name = 
REMARK  8 active torsions:
REMARK  status: ('A' for Active; 'I' for Inactive)
REMARK    1  A    between atoms: C_1  and  O_2
REMARK    2  A    between atoms: O_2  and  C_3
REMARK    3  A    between atoms: C_4  and  O_24
REMARK    4  A    between atoms: C_6  and  C_9
REMARK    5  A    between atoms: C_10  and  O_22
REMARK    6  A    between atoms: C_14  and  O_21
REMARK    7  A    between atoms: C_16  and  O_20
REMARK    8  A    between atoms: O_22  and  C_23
REMARK                            x       y       z     vdW  Elec       q    Type
REMARK                         _______ _______ _______ _____ _____    ______ ____
ROOT
ATOM      1  C   UNL     1       7.804  -1.773  24.857  0.00  0.00    +0.181 A 
ATOM      2  O   UNL     1       7.865  -0.489  25.428  0.00  0.00    -0.451 OA
ATOM      3  C   UNL     1       8.277   0.587  24.685  0.00  0.00    +0.147 A 
ATOM      4  C   UNL     1       8.678   0.461  23.368  0.00  0.00    +0.109 A 
ATOM      5  C   UNL     1       9.078   1.589  22.623  0.00  0.00    +0.135 A 
ATOM      6  C   UNL     1       9.076   2.847  23.208  0.00  0.00    +0.091 A 
ATOM      7  C   UNL     1       8.677   2.968  24.534  0.00  0.00    +0.124 A 
ATOM      8  C   UNL     1       8.680  -0.862  22.778  0.00  0.00    +0.238 A 
ATOM      9  O   UNL     1       9.052  -0.982  21.609  0.00  0.00    -0.283 OA
ATOM     10  C   UNL     1       8.277   1.853  25.276  0.00  0.00    +0.092 A 
ATOM     11  C   UNL     1       8.212  -2.033  23.582  0.00  0.00    +0.211 A 
ENDROOT
BRANCH   1  15
ATOM     12  C   UNL     1       5.974  -4.535  27.670  0.00  0.00    +0.161 A 
ATOM     13  C   UNL     1       5.370  -3.329  27.355  0.00  0.00    +0.050 A 
ATOM     14  C   UNL     1       6.012  -2.427  26.496  0.00  0.00    +0.015 A 
ATOM     15  C   UNL     1       7.195  -2.743  25.817  0.00  0.00    +0.025 A 
ATOM     16  C   UNL     1       7.832  -3.939  26.194  0.00  0.00    +0.060 A 
ATOM     17  C   UNL     1       7.238  -4.795  27.135  0.00  0.00    +0.159 A 
BRANCH  12  19
ATOM     18  C   UNL     1       4.603  -6.433  28.049  0.00  0.00    +0.277 C 
ATOM     19  O   UNL     1       5.482  -5.437  28.576  0.00  0.00    -0.491 OA
ENDBRANCH  12  19
BRANCH  17  20
ATOM     20  O   UNL     1       7.940  -5.893  27.556  0.00  0.00    -0.503 OA
ATOM     21  H   UNL     1       8.633  -6.031  26.880  0.00  0.00    +0.292 HD
ENDBRANCH  17  20
ENDBRANCH   1  15
BRANCH   5  22
ATOM     22  O   UNL     1       9.471   1.518  21.314  0.00  0.00    -0.506 OA
ATOM     23  H   UNL     1      10.017   0.705  21.205  0.00  0.00    +0.292 HD
ENDBRANCH   5  22
BRANCH   7  24
ATOM     24  O   UNL     1       8.665   4.194  25.147  0.00  0.00    -0.507 OA
ATOM     25  H   UNL     1       8.334   4.851  24.513  0.00  0.00    +0.292 HD
ENDBRANCH   7  24
BRANCH  11  26
ATOM     26  O   UNL     1       8.285  -3.161  22.821  0.00  0.00    -0.488 OA
ATOM     27  C   UNL     1       7.282  -4.018  22.335  0.00  0.00    +0.277 C 
ENDBRANCH  11  26
TORSDOF 6
ENDMDL
