MODEL 1
REMARK VINA RESULT:      -7.7      0.000      0.000
REMARK  Name = 
REMARK  12 active torsions:
REMARK  status: ('A' for Active; 'I' for Inactive)
REMARK    1  A    between atoms: C_1  and  C_2
REMARK    2  A    between atoms: C_2  and  C_4
REMARK    3  A    between atoms: C_2  and  O_37
REMARK    4  A    between atoms: C_6  and  O_36
REMARK    5  A    between atoms: C_8  and  O_35
REMARK    6  A    between atoms: C_10  and  O_13
REMARK    7  A    between atoms: O_13  and  C_14
REMARK    8  A    between atoms: C_15  and  C_27
REMARK    9  A    between atoms: C_19  and  O_26
REMARK   10  A    between atoms: C_21  and  O_25
REMARK   11  A    between atoms: C_29  and  O_34
REMARK   12  A    between atoms: C_30  and  O_33
REMARK                            x       y       z     vdW  Elec       q    Type
REMARK                         _______ _______ _______ _____ _____    ______ ____
ROOT
ATOM      1  C   UNL     1       8.281  -2.017  24.186  0.00  0.00    +0.214 A 
ATOM      2  C   UNL     1       9.120  -0.811  24.286  0.00  0.00    +0.238 A 
ATOM      3  O   UNL     1      10.240  -0.898  24.735  0.00  0.00    -0.283 OA
ATOM      4  C   UNL     1       8.637   0.436  23.732  0.00  0.00    +0.109 A 
ATOM      5  C   UNL     1       7.506   0.411  22.922  0.00  0.00    +0.147 A 
ATOM      6  C   UNL     1       7.101   1.607  22.308  0.00  0.00    +0.092 A 
ATOM      7  C   UNL     1       7.860   2.777  22.503  0.00  0.00    +0.124 A 
ATOM      8  C   UNL     1       8.985   2.788  23.321  0.00  0.00    +0.091 A 
ATOM      9  O   UNL     1       6.812  -0.760  22.699  0.00  0.00    -0.451 OA
ATOM     10  C   UNL     1       9.357   1.619  23.956  0.00  0.00    +0.135 A 
ATOM     11  C   UNL     1       7.233  -1.972  23.309  0.00  0.00    +0.181 A 
ENDROOT
BRANCH  11  12
ATOM     12  C   UNL     1       6.617  -3.209  22.671  0.00  0.00    +0.025 A 
ATOM     13  C   UNL     1       7.415  -4.345  22.391  0.00  0.00    +0.015 A 
ATOM     14  C   UNL     1       6.866  -5.638  22.414  0.00  0.00    +0.050 A 
ATOM     15  C   UNL     1       5.525  -5.792  22.707  0.00  0.00    +0.158 A 
ATOM     16  C   UNL     1       4.704  -4.680  22.765  0.00  0.00    +0.159 A 
ATOM     17  C   UNL     1       5.226  -3.399  22.649  0.00  0.00    +0.060 A 
BRANCH  15  18
ATOM     18  O   UNL     1       5.029  -7.020  23.033  0.00  0.00    -0.503 OA
ATOM     19  H   UNL     1       5.581  -7.652  22.530  0.00  0.00    +0.292 HD
ENDBRANCH  15  18
BRANCH  16  20
ATOM     20  O   UNL     1       3.390  -4.877  23.090  0.00  0.00    -0.503 OA
ATOM     21  H   UNL     1       2.898  -4.148  22.667  0.00  0.00    +0.292 HD
ENDBRANCH  16  20
ENDBRANCH  11  12
BRANCH   7  22
ATOM     22  O   UNL     1       7.566   3.972  21.917  0.00  0.00    -0.507 OA
ATOM     23  H   UNL     1       8.225   4.624  22.178  0.00  0.00    +0.292 HD
ENDBRANCH   7  22
BRANCH  10  24
ATOM     24  O   UNL     1      10.428   1.640  24.803  0.00  0.00    -0.506 OA
ATOM     25  H   UNL     1      10.127   1.734  25.720  0.00  0.00    +0.292 HD
ENDBRANCH  10  24
BRANCH   1  26
ATOM     26  O   UNL     1       8.781  -3.162  24.818  0.00  0.00    -0.453 OA
BRANCH  26  29
ATOM     27  C   UNL     1       5.720  -3.907  26.324  0.00  0.00    +0.182 C 
ATOM     28  O   UNL     1       6.769  -2.957  25.974  0.00  0.00    -0.331 OA
ATOM     29  C   UNL     1       8.067  -3.587  26.016  0.00  0.00    +0.340 C 
ATOM     30  C   UNL     1       7.829  -5.110  26.107  0.00  0.00    +0.214 C 
ATOM     31  C   UNL     1       6.324  -5.287  26.049  0.00  0.00    +0.180 C 
BRANCH  27  33
ATOM     32  C   UNL     1       3.651  -2.877  27.647  0.00  0.00    +0.040 C 
ATOM     33  C   UNL     1       5.081  -3.417  27.654  0.00  0.00    +0.143 C 
BRANCH  33  34
ATOM     34  O   UNL     1       5.226  -4.340  28.734  0.00  0.00    -0.389 OA
ATOM     35  H   UNL     1       5.563  -5.157  28.362  0.00  0.00    +0.210 HD
ENDBRANCH  33  34
ENDBRANCH  27  33
BRANCH  30  36
ATOM     36  O   UNL     1       8.345  -5.691  27.323  0.00  0.00    -0.383 OA
ATOM     37  H   UNL     1       9.152  -5.171  27.536  0.00  0.00    +0.210 HD
ENDBRANCH  30  36
BRANCH  31  38
ATOM     38  O   UNL     1       5.810  -6.400  26.759  0.00  0.00    -0.386 OA
ATOM     39  H   UNL     1       4.891  -6.158  27.001  0.00  0.00    +0.210 HD
ENDBRANCH  31  38
ENDBRANCH  26  29
ENDBRANCH   1  26
TORSDOF 11
ENDMDL
MODEL 2
REMARK VINA RESULT:      -7.6      4.561      8.675
REMARK  Name = 
REMARK  12 active torsions:
REMARK  status: ('A' for Active; 'I' for Inactive)
REMARK    1  A    between atoms: C_1  and  C_2
REMARK    2  A    between atoms: C_2  and  C_4
REMARK    3  A    between atoms: C_2  and  O_37
REMARK    4  A    between atoms: C_6  and  O_36
REMARK    5  A    between atoms: C_8  and  O_35
REMARK    6  A    between atoms: C_10  and  O_13
REMARK    7  A    between atoms: O_13  and  C_14
REMARK    8  A    between atoms: C_15  and  C_27
REMARK    9  A    between atoms: C_19  and  O_26
REMARK   10  A    between atoms: C_21  and  O_25
REMARK   11  A    between atoms: C_29  and  O_34
REMARK   12  A    between atoms: C_30  and  O_33
REMARK                            x       y       z     vdW  Elec       q    Type
REMARK                         _______ _______ _______ _____ _____    ______ ____
ROOT
ATOM      1  C   UNL     1       8.139   3.734  24.231  0.00  0.00    +0.214 A 
ATOM      2  C   UNL     1       6.785   3.172  24.370  0.00  0.00    +0.238 A 
ATOM      3  O   UNL     1       6.604   2.221  25.095  0.00  0.00    -0.283 OA
ATOM      4  C   UNL     1       5.671   3.843  23.734  0.00  0.00    +0.109 A 
ATOM      5  C   UNL     1       5.873   5.114  23.208  0.00  0.00    +0.147 A 
ATOM      6  C   UNL     1       4.765   5.800  22.681  0.00  0.00    +0.092 A 
ATOM      7  C   UNL     1       3.492   5.199  22.728  0.00  0.00    +0.124 A 
ATOM      8  C   UNL     1       3.308   3.924  23.253  0.00  0.00    +0.091 A 
ATOM      9  O   UNL     1       7.119   5.707  23.225  0.00  0.00    -0.451 OA
ATOM     10  C   UNL     1       4.407   3.236  23.732  0.00  0.00    +0.135 A 
ATOM     11  C   UNL     1       8.234   5.018  23.772  0.00  0.00    +0.181 A 
ENDROOT
BRANCH  11  12
ATOM     12  C   UNL     1       9.416   5.930  24.065  0.00  0.00    +0.025 A 
ATOM     13  C   UNL     1       9.413   6.762  25.212  0.00  0.00    +0.015 A 
ATOM     14  C   UNL     1      10.613   7.108  25.856  0.00  0.00    +0.050 A 
ATOM     15  C   UNL     1      11.807   6.631  25.351  0.00  0.00    +0.158 A 
ATOM     16  C   UNL     1      11.829   6.006  24.118  0.00  0.00    +0.159 A 
ATOM     17  C   UNL     1      10.653   5.743  23.429  0.00  0.00    +0.060 A 
BRANCH  15  18
ATOM     18  O   UNL     1      12.943   6.689  26.104  0.00  0.00    -0.503 OA
ATOM     19  H   UNL     1      12.666   6.396  26.995  0.00  0.00    +0.292 HD
ENDBRANCH  15  18
BRANCH  16  20
ATOM     20  O   UNL     1      13.029   5.522  23.672  0.00  0.00    -0.503 OA
ATOM     21  H   UNL     1      12.841   5.085  22.820  0.00  0.00    +0.292 HD
ENDBRANCH  16  20
ENDBRANCH  11  12
BRANCH   7  22
ATOM     22  O   UNL     1       2.358   5.803  22.278  0.00  0.00    -0.507 OA
ATOM     23  H   UNL     1       1.772   5.137  21.900  0.00  0.00    +0.292 HD
ENDBRANCH   7  22
BRANCH  10  24
ATOM     24  O   UNL     1       4.237   1.963  24.196  0.00  0.00    -0.506 OA
ATOM     25  H   UNL     1       3.844   1.405  23.506  0.00  0.00    +0.292 HD
ENDBRANCH  10  24
BRANCH   1  26
ATOM     26  O   UNL     1       9.172   2.983  24.804  0.00  0.00    -0.453 OA
BRANCH  26  29
ATOM     27  C   UNL     1       9.092  -0.087  23.144  0.00  0.00    +0.182 C 
ATOM     28  O   UNL     1       9.427   0.721  24.310  0.00  0.00    -0.331 OA
ATOM     29  C   UNL     1       9.844   2.045  23.913  0.00  0.00    +0.340 C 
ATOM     30  C   UNL     1       9.476   2.209  22.422  0.00  0.00    +0.214 C 
ATOM     31  C   UNL     1       8.774   0.921  22.037  0.00  0.00    +0.180 C 
BRANCH  27  33
ATOM     32  C   UNL     1       9.799  -2.583  23.754  0.00  0.00    +0.040 C 
ATOM     33  C   UNL     1      10.123  -1.250  23.078  0.00  0.00    +0.143 C 
BRANCH  33  34
ATOM     34  O   UNL     1      10.621  -1.501  21.763  0.00  0.00    -0.389 OA
ATOM     35  H   UNL     1      10.907  -0.658  21.406  0.00  0.00    +0.210 HD
ENDBRANCH  33  34
ENDBRANCH  27  33
BRANCH  30  36
ATOM     36  O   UNL     1      10.625   2.414  21.575  0.00  0.00    -0.383 OA
ATOM     37  H   UNL     1      10.262   2.714  20.712  0.00  0.00    +0.210 HD
ENDBRANCH  30  36
BRANCH  31  38
ATOM     38  O   UNL     1       8.935   0.514  20.689  0.00  0.00    -0.386 OA
ATOM     39  H   UNL     1       8.030   0.457  20.320  0.00  0.00    +0.210 HD
ENDBRANCH  31  38
ENDBRANCH  26  29
ENDBRANCH   1  26
TORSDOF 11
ENDMDL
MODEL 3
REMARK VINA RESULT:      -7.4      1.577      1.983
REMARK  Name = 
REMARK  12 active torsions:
REMARK  status: ('A' for Active; 'I' for Inactive)
REMARK    1  A    between atoms: C_1  and  C_2
REMARK    2  A    between atoms: C_2  and  C_4
REMARK    3  A    between atoms: C_2  and  O_37
REMARK    4  A    between atoms: C_6  and  O_36
REMARK    5  A    between atoms: C_8  and  O_35
REMARK    6  A    between atoms: C_10  and  O_13
REMARK    7  A    between atoms: O_13  and  C_14
REMARK    8  A    between atoms: C_15  and  C_27
REMARK    9  A    between atoms: C_19  and  O_26
REMARK   10  A    between atoms: C_21  and  O_25
REMARK   11  A    between atoms: C_29  and  O_34
REMARK   12  A    between atoms: C_30  and  O_33
REMARK                            x       y       z     vdW  Elec       q    Type
REMARK                         _______ _______ _______ _____ _____    ______ ____
ROOT
ATOM      1  C   UNL     1       6.309  -1.515  24.438  0.00  0.00    +0.214 A 
ATOM      2  C   UNL     1       7.192  -0.458  24.961  0.00  0.00    +0.238 A 
ATOM      3  O   UNL     1       7.316  -0.321  26.157  0.00  0.00    -0.283 OA
ATOM      4  C   UNL     1       7.989   0.320  24.038  0.00  0.00    +0.109 A 
ATOM      5  C   UNL     1       8.077  -0.102  22.715  0.00  0.00    +0.147 A 
ATOM      6  C   UNL     1       8.931   0.599  21.848  0.00  0.00    +0.092 A 
ATOM      7  C   UNL     1       9.689   1.678  22.345  0.00  0.00    +0.124 A 
ATOM      8  C   UNL     1       9.586   2.091  23.669  0.00  0.00    +0.091 A 
ATOM      9  O   UNL     1       7.369  -1.198  22.265  0.00  0.00    -0.451 OA
ATOM     10  C   UNL     1       8.714   1.425  24.508  0.00  0.00    +0.135 A 
ATOM     11  C   UNL     1       6.518  -1.914  23.148  0.00  0.00    +0.181 A 
ENDROOT
BRANCH  11  12
ATOM     12  C   UNL     1       6.126  -3.286  22.619  0.00  0.00    +0.025 A 
ATOM     13  C   UNL     1       7.120  -4.211  22.217  0.00  0.00    +0.015 A 
ATOM     14  C   UNL     1       6.907  -5.596  22.330  0.00  0.00    +0.050 A 
ATOM     15  C   UNL     1       5.705  -6.050  22.835  0.00  0.00    +0.158 A 
ATOM     16  C   UNL     1       4.660  -5.163  23.020  0.00  0.00    +0.159 A 
ATOM     17  C   UNL     1       4.835  -3.800  22.820  0.00  0.00    +0.060 A 
BRANCH  15  18
ATOM     18  O   UNL     1       5.575  -7.347  23.238  0.00  0.00    -0.503 OA
ATOM     19  H   UNL     1       4.643  -7.575  23.044  0.00  0.00    +0.292 HD
ENDBRANCH  15  18
BRANCH  16  20
ATOM     20  O   UNL     1       3.498  -5.652  23.552  0.00  0.00    -0.503 OA
ATOM     21  H   UNL     1       2.906  -5.816  22.794  0.00  0.00    +0.292 HD
ENDBRANCH  16  20
ENDBRANCH  11  12
BRANCH   7  22
ATOM     22  O   UNL     1      10.571   2.389  21.589  0.00  0.00    -0.507 OA
ATOM     23  H   UNL     1      11.423   2.418  22.038  0.00  0.00    +0.292 HD
ENDBRANCH   7  22
BRANCH  10  24
ATOM     24  O   UNL     1       8.570   1.865  25.793  0.00  0.00    -0.506 OA
ATOM     25  H   UNL     1       8.221   1.154  26.353  0.00  0.00    +0.292 HD
ENDBRANCH  10  24
BRANCH   1  26
ATOM     26  O   UNL     1       5.509  -2.164  25.385  0.00  0.00    -0.453 OA
BRANCH  26  29
ATOM     27  C   UNL     1       6.115  -5.354  26.669  0.00  0.00    +0.182 C 
ATOM     28  O   UNL     1       5.358  -4.107  26.660  0.00  0.00    -0.331 OA
ATOM     29  C   UNL     1       6.217  -2.988  26.357  0.00  0.00    +0.340 C 
ATOM     30  C   UNL     1       7.554  -3.568  25.844  0.00  0.00    +0.214 C 
ATOM     31  C   UNL     1       7.359  -5.072  25.823  0.00  0.00    +0.180 C 
BRANCH  27  33
ATOM     32  C   UNL     1       4.905  -6.768  28.575  0.00  0.00    +0.040 C 
ATOM     33  C   UNL     1       6.082  -5.902  28.124  0.00  0.00    +0.143 C 
BRANCH  33  34
ATOM     34  O   UNL     1       7.302  -6.522  28.531  0.00  0.00    -0.389 OA
ATOM     35  H   UNL     1       7.472  -7.238  27.916  0.00  0.00    +0.210 HD
ENDBRANCH  33  34
ENDBRANCH  27  33
BRANCH  30  36
ATOM     36  O   UNL     1       8.676  -3.231  26.687  0.00  0.00    -0.383 OA
ATOM     37  H   UNL     1       8.857  -4.041  27.213  0.00  0.00    +0.210 HD
ENDBRANCH  30  36
BRANCH  31  38
ATOM     38  O   UNL     1       8.523  -5.844  26.059  0.00  0.00    -0.386 OA
ATOM     39  H   UNL     1       8.989  -5.890  25.198  0.00  0.00    +0.210 HD
ENDBRANCH  31  38
ENDBRANCH  26  29
ENDBRANCH   1  26
TORSDOF 11
ENDMDL
MODEL 4
REMARK VINA RESULT:      -7.2      2.515      7.403
REMARK  Name = 
REMARK  12 active torsions:
REMARK  status: ('A' for Active; 'I' for Inactive)
REMARK    1  A    between atoms: C_1  and  C_2
REMARK    2  A    between atoms: C_2  and  C_4
REMARK    3  A    between atoms: C_2  and  O_37
REMARK    4  A    between atoms: C_6  and  O_36
REMARK    5  A    between atoms: C_8  and  O_35
REMARK    6  A    between atoms: C_10  and  O_13
REMARK    7  A    between atoms: O_13  and  C_14
REMARK    8  A    between atoms: C_15  and  C_27
REMARK    9  A    between atoms: C_19  and  O_26
REMARK   10  A    between atoms: C_21  and  O_25
REMARK   11  A    between atoms: C_29  and  O_34
REMARK   12  A    between atoms: C_30  and  O_33
REMARK                            x       y       z     vdW  Elec       q    Type
REMARK                         _______ _______ _______ _____ _____    ______ ____
ROOT
ATOM      1  C   UNL     1       7.238  -1.692  23.938  0.00  0.00    +0.214 A 
ATOM      2  C   UNL     1       7.375  -3.009  23.293  0.00  0.00    +0.238 A 
ATOM      3  O   UNL     1       8.475  -3.425  23.012  0.00  0.00    -0.283 OA
ATOM      4  C   UNL     1       6.201  -3.837  23.118  0.00  0.00    +0.109 A 
ATOM      5  C   UNL     1       5.025  -3.471  23.765  0.00  0.00    +0.147 A 
ATOM      6  C   UNL     1       3.918  -4.331  23.672  0.00  0.00    +0.092 A 
ATOM      7  C   UNL     1       4.039  -5.539  22.959  0.00  0.00    +0.124 A 
ATOM      8  C   UNL     1       5.220  -5.888  22.312  0.00  0.00    +0.091 A 
ATOM      9  O   UNL     1       4.948  -2.310  24.507  0.00  0.00    -0.451 OA
ATOM     10  C   UNL     1       6.293  -5.021  22.371  0.00  0.00    +0.135 A 
ATOM     11  C   UNL     1       6.073  -1.450  24.612  0.00  0.00    +0.181 A 
ENDROOT
BRANCH  11  12
ATOM     12  C   UNL     1       5.954  -0.445  25.749  0.00  0.00    +0.025 A 
ATOM     13  C   UNL     1       6.707  -0.613  26.937  0.00  0.00    +0.015 A 
ATOM     14  C   UNL     1       7.123   0.497  27.692  0.00  0.00    +0.050 A 
ATOM     15  C   UNL     1       6.782   1.765  27.264  0.00  0.00    +0.158 A 
ATOM     16  C   UNL     1       5.872   1.920  26.235  0.00  0.00    +0.159 A 
ATOM     17  C   UNL     1       5.381   0.820  25.543  0.00  0.00    +0.060 A 
BRANCH  15  18
ATOM     18  O   UNL     1       7.409   2.858  27.786  0.00  0.00    -0.503 OA
ATOM     19  H   UNL     1       6.685   3.422  28.124  0.00  0.00    +0.292 HD
ENDBRANCH  15  18
BRANCH  16  20
ATOM     20  O   UNL     1       5.588   3.193  25.823  0.00  0.00    -0.503 OA
ATOM     21  H   UNL     1       4.634   3.320  25.983  0.00  0.00    +0.292 HD
ENDBRANCH  16  20
ENDBRANCH  11  12
BRANCH   7  22
ATOM     22  O   UNL     1       3.033  -6.451  22.848  0.00  0.00    -0.507 OA
ATOM     23  H   UNL     1       3.200  -7.017  22.086  0.00  0.00    +0.292 HD
ENDBRANCH   7  22
BRANCH  10  24
ATOM     24  O   UNL     1       7.434  -5.335  21.690  0.00  0.00    -0.506 OA
ATOM     25  H   UNL     1       7.598  -4.682  20.993  0.00  0.00    +0.292 HD
ENDBRANCH  10  24
BRANCH   1  26
ATOM     26  O   UNL     1       8.403  -0.917  23.995  0.00  0.00    -0.453 OA
BRANCH  26  29
ATOM     27  C   UNL     1       9.579   2.369  23.914  0.00  0.00    +0.182 C 
ATOM     28  O   UNL     1       8.669   1.354  24.433  0.00  0.00    -0.331 OA
ATOM     29  C   UNL     1       8.311   0.410  23.401  0.00  0.00    +0.340 C 
ATOM     30  C   UNL     1       9.274   0.646  22.217  0.00  0.00    +0.214 C 
ATOM     31  C   UNL     1      10.226   1.732  22.681  0.00  0.00    +0.180 C 
BRANCH  27  33
ATOM     32  C   UNL     1       7.671   3.998  23.019  0.00  0.00    +0.040 C 
ATOM     33  C   UNL     1       8.833   3.732  23.976  0.00  0.00    +0.143 C 
BRANCH  33  34
ATOM     34  O   UNL     1       8.448   4.116  25.297  0.00  0.00    -0.389 OA
ATOM     35  H   UNL     1       7.497   4.235  25.288  0.00  0.00    +0.210 HD
ENDBRANCH  33  34
ENDBRANCH  27  33
BRANCH  30  36
ATOM     36  O   UNL     1       8.599   1.066  21.013  0.00  0.00    -0.383 OA
ATOM     37  H   UNL     1       7.890   1.678  21.314  0.00  0.00    +0.210 HD
ENDBRANCH  30  36
BRANCH  31  38
ATOM     38  O   UNL     1      10.724   2.585  21.666  0.00  0.00    -0.386 OA
ATOM     39  H   UNL     1      10.944   3.428  22.114  0.00  0.00    +0.210 HD
ENDBRANCH  31  38
ENDBRANCH  26  29
ENDBRANCH   1  26
TORSDOF 11
ENDMDL
MODEL 5
REMARK VINA RESULT:      -7.2      2.401      7.653
REMARK  Name = 
REMARK  12 active torsions:
REMARK  status: ('A' for Active; 'I' for Inactive)
REMARK    1  A    between atoms: C_1  and  C_2
REMARK    2  A    between atoms: C_2  and  C_4
REMARK    3  A    between atoms: C_2  and  O_37
REMARK    4  A    between atoms: C_6  and  O_36
REMARK    5  A    between atoms: C_8  and  O_35
REMARK    6  A    between atoms: C_10  and  O_13
REMARK    7  A    between atoms: O_13  and  C_14
REMARK    8  A    between atoms: C_15  and  C_27
REMARK    9  A    between atoms: C_19  and  O_26
REMARK   10  A    between atoms: C_21  and  O_25
REMARK   11  A    between atoms: C_29  and  O_34
REMARK   12  A    between atoms: C_30  and  O_33
REMARK                            x       y       z     vdW  Elec       q    Type
REMARK                         _______ _______ _______ _____ _____    ______ ____
ROOT
ATOM      1  C   UNL     1       6.605  -1.092  24.737  0.00  0.00    +0.214 A 
ATOM      2  C   UNL     1       5.652  -2.091  25.252  0.00  0.00    +0.238 A 
ATOM      3  O   UNL     1       4.499  -2.058  24.890  0.00  0.00    -0.283 OA
ATOM      4  C   UNL     1       6.139  -3.168  26.086  0.00  0.00    +0.109 A 
ATOM      5  C   UNL     1       7.512  -3.364  26.188  0.00  0.00    +0.147 A 
ATOM      6  C   UNL     1       7.975  -4.471  26.919  0.00  0.00    +0.092 A 
ATOM      7  C   UNL     1       7.044  -5.358  27.494  0.00  0.00    +0.124 A 
ATOM      8  C   UNL     1       5.674  -5.146  27.388  0.00  0.00    +0.091 A 
ATOM      9  O   UNL     1       8.404  -2.514  25.567  0.00  0.00    -0.451 OA
ATOM     10  C   UNL     1       5.223  -4.034  26.704  0.00  0.00    +0.135 A 
ATOM     11  C   UNL     1       7.933  -1.404  24.817  0.00  0.00    +0.181 A 
ENDROOT
BRANCH  11  12
ATOM     12  C   UNL     1       8.991  -0.811  23.897  0.00  0.00    +0.025 A 
ATOM     13  C   UNL     1       8.889  -0.963  22.493  0.00  0.00    +0.015 A 
ATOM     14  C   UNL     1       9.403   0.011  21.621  0.00  0.00    +0.050 A 
ATOM     15  C   UNL     1      10.022   1.127  22.151  0.00  0.00    +0.158 A 
ATOM     16  C   UNL     1      10.314   1.171  23.502  0.00  0.00    +0.159 A 
ATOM     17  C   UNL     1       9.890   0.164  24.359  0.00  0.00    +0.060 A 
BRANCH  15  18
ATOM     18  O   UNL     1      10.258   2.218  21.368  0.00  0.00    -0.503 OA
ATOM     19  H   UNL     1      11.119   2.565  21.678  0.00  0.00    +0.292 HD
ENDBRANCH  15  18
BRANCH  16  20
ATOM     20  O   UNL     1      10.898   2.309  23.988  0.00  0.00    -0.503 OA
ATOM     21  H   UNL     1      11.535   2.595  23.307  0.00  0.00    +0.292 HD
ENDBRANCH  16  20
ENDBRANCH  11  12
BRANCH   7  22
ATOM     22  O   UNL     1       7.400  -6.477  28.185  0.00  0.00    -0.507 OA
ATOM     23  H   UNL     1       6.928  -6.495  29.025  0.00  0.00    +0.292 HD
ENDBRANCH   7  22
BRANCH  10  24
ATOM     24  O   UNL     1       3.880  -3.794  26.647  0.00  0.00    -0.506 OA
ATOM     25  H   UNL     1       3.455  -4.415  26.035  0.00  0.00    +0.292 HD
ENDBRANCH  10  24
BRANCH   1  26
ATOM     26  O   UNL     1       6.045  -0.035  24.009  0.00  0.00    -0.453 OA
BRANCH  26  29
ATOM     27  C   UNL     1       6.480   3.362  23.336  0.00  0.00    +0.182 C 
ATOM     28  O   UNL     1       7.019   2.018  23.501  0.00  0.00    -0.331 OA
ATOM     29  C   UNL     1       6.304   1.301  24.529  0.00  0.00    +0.340 C 
ATOM     30  C   UNL     1       5.031   2.116  24.849  0.00  0.00    +0.214 C 
ATOM     31  C   UNL     1       5.055   3.292  23.892  0.00  0.00    +0.180 C 
BRANCH  27  33
ATOM     32  C   UNL     1       8.037   4.426  25.218  0.00  0.00    +0.040 C 
ATOM     33  C   UNL     1       7.596   4.361  23.755  0.00  0.00    +0.143 C 
BRANCH  33  34
ATOM     34  O   UNL     1       8.753   4.312  22.919  0.00  0.00    -0.389 OA
ATOM     35  H   UNL     1       8.985   5.219  22.708  0.00  0.00    +0.210 HD
ENDBRANCH  33  34
ENDBRANCH  27  33
BRANCH  30  36
ATOM     36  O   UNL     1       4.993   2.593  26.211  0.00  0.00    -0.383 OA
ATOM     37  H   UNL     1       4.039   2.723  26.413  0.00  0.00    +0.210 HD
ENDBRANCH  30  36
BRANCH  31  38
ATOM     38  O   UNL     1       4.460   4.485  24.371  0.00  0.00    -0.386 OA
ATOM     39  H   UNL     1       4.974   4.735  25.167  0.00  0.00    +0.210 HD
ENDBRANCH  31  38
ENDBRANCH  26  29
ENDBRANCH   1  26
TORSDOF 11
ENDMDL
MODEL 6
REMARK VINA RESULT:      -7.0      1.555      2.236
REMARK  Name = 
REMARK  12 active torsions:
REMARK  status: ('A' for Active; 'I' for Inactive)
REMARK    1  A    between atoms: C_1  and  C_2
REMARK    2  A    between atoms: C_2  and  C_4
REMARK    3  A    between atoms: C_2  and  O_37
REMARK    4  A    between atoms: C_6  and  O_36
REMARK    5  A    between atoms: C_8  and  O_35
REMARK    6  A    between atoms: C_10  and  O_13
REMARK    7  A    between atoms: O_13  and  C_14
REMARK    8  A    between atoms: C_15  and  C_27
REMARK    9  A    between atoms: C_19  and  O_26
REMARK   10  A    between atoms: C_21  and  O_25
REMARK   11  A    between atoms: C_29  and  O_34
REMARK   12  A    between atoms: C_30  and  O_33
REMARK                            x       y       z     vdW  Elec       q    Type
REMARK                         _______ _______ _______ _____ _____    ______ ____
ROOT
ATOM      1  C   UNL     1       7.534  -2.409  24.737  0.00  0.00    +0.214 A 
ATOM      2  C   UNL     1       8.650  -1.499  25.047  0.00  0.00    +0.238 A 
ATOM      3  O   UNL     1       9.318  -1.687  26.037  0.00  0.00    -0.283 OA
ATOM      4  C   UNL     1       9.005  -0.466  24.097  0.00  0.00    +0.109 A 
ATOM      5  C   UNL     1       8.442  -0.508  22.826  0.00  0.00    +0.147 A 
ATOM      6  C   UNL     1       8.866   0.438  21.878  0.00  0.00    +0.092 A 
ATOM      7  C   UNL     1       9.861   1.371  22.229  0.00  0.00    +0.124 A 
ATOM      8  C   UNL     1      10.411   1.403  23.506  0.00  0.00    +0.091 A 
ATOM      9  O   UNL     1       7.510  -1.468  22.487  0.00  0.00    -0.451 OA
ATOM     10  C   UNL     1       9.961   0.498  24.448  0.00  0.00    +0.135 A 
ATOM     11  C   UNL     1       7.094  -2.433  23.443  0.00  0.00    +0.181 A 
ENDROOT
BRANCH  11  12
ATOM     12  C   UNL     1       6.382  -3.624  22.820  0.00  0.00    +0.025 A 
ATOM     13  C   UNL     1       7.068  -4.847  22.621  0.00  0.00    +0.015 A 
ATOM     14  C   UNL     1       6.385  -6.075  22.662  0.00  0.00    +0.050 A 
ATOM     15  C   UNL     1       5.023  -6.077  22.893  0.00  0.00    +0.158 A 
ATOM     16  C   UNL     1       4.322  -4.885  22.870  0.00  0.00    +0.159 A 
ATOM     17  C   UNL     1       4.981  -3.670  22.735  0.00  0.00    +0.060 A 
BRANCH  15  18
ATOM     18  O   UNL     1       4.387  -7.233  23.237  0.00  0.00    -0.503 OA
ATOM     19  H   UNL     1       4.512  -7.824  22.468  0.00  0.00    +0.292 HD
ENDBRANCH  15  18
BRANCH  16  20
ATOM     20  O   UNL     1       2.981  -4.932  23.135  0.00  0.00    -0.503 OA
ATOM     21  H   UNL     1       2.822  -5.797  23.557  0.00  0.00    +0.292 HD
ENDBRANCH  16  20
ENDBRANCH  11  12
BRANCH   7  22
ATOM     22  O   UNL     1      10.362   2.298  21.365  0.00  0.00    -0.507 OA
ATOM     23  H   UNL     1      11.138   2.712  21.759  0.00  0.00    +0.292 HD
ENDBRANCH   7  22
BRANCH  10  24
ATOM     24  O   UNL     1      10.459   0.565  25.718  0.00  0.00    -0.506 OA
ATOM     25  H   UNL     1      11.008   1.358  25.820  0.00  0.00    +0.292 HD
ENDBRANCH  10  24
BRANCH   1  26
ATOM     26  O   UNL     1       7.199  -3.325  25.741  0.00  0.00    -0.453 OA
BRANCH  26  29
ATOM     27  C   UNL     1       4.624  -5.052  27.347  0.00  0.00    +0.182 C 
ATOM     28  O   UNL     1       5.418  -4.767  26.157  0.00  0.00    -0.331 OA
ATOM     29  C   UNL     1       5.790  -3.373  26.111  0.00  0.00    +0.340 C 
ATOM     30  C   UNL     1       5.475  -2.773  27.499  0.00  0.00    +0.214 C 
ATOM     31  C   UNL     1       4.967  -3.933  28.334  0.00  0.00    +0.180 C 
BRANCH  27  33
ATOM     32  C   UNL     1       2.175  -4.385  26.538  0.00  0.00    +0.040 C 
ATOM     33  C   UNL     1       3.205  -5.467  26.865  0.00  0.00    +0.143 C 
BRANCH  33  34
ATOM     34  O   UNL     1       3.216  -6.435  25.815  0.00  0.00    -0.389 OA
ATOM     35  H   UNL     1       3.944  -6.209  25.232  0.00  0.00    +0.210 HD
ENDBRANCH  33  34
ENDBRANCH  27  33
BRANCH  30  36
ATOM     36  O   UNL     1       4.479  -1.730  27.451  0.00  0.00    -0.383 OA
ATOM     37  H   UNL     1       4.454  -1.438  26.512  0.00  0.00    +0.210 HD
ENDBRANCH  30  36
BRANCH  31  38
ATOM     38  O   UNL     1       4.018  -3.600  29.331  0.00  0.00    -0.386 OA
ATOM     39  H   UNL     1       3.204  -4.093  29.096  0.00  0.00    +0.210 HD
ENDBRANCH  31  38
ENDBRANCH  26  29
ENDBRANCH   1  26
TORSDOF 11
ENDMDL
MODEL 7
REMARK VINA RESULT:      -7.0      1.889      4.236
REMARK  Name = 
REMARK  12 active torsions:
REMARK  status: ('A' for Active; 'I' for Inactive)
REMARK    1  A    between atoms: C_1  and  C_2
REMARK    2  A    between atoms: C_2  and  C_4
REMARK    3  A    between atoms: C_2  and  O_37
REMARK    4  A    between atoms: C_6  and  O_36
REMARK    5  A    between atoms: C_8  and  O_35
REMARK    6  A    between atoms: C_10  and  O_13
REMARK    7  A    between atoms: O_13  and  C_14
REMARK    8  A    between atoms: C_15  and  C_27
REMARK    9  A    between atoms: C_19  and  O_26
REMARK   10  A    between atoms: C_21  and  O_25
REMARK   11  A    between atoms: C_29  and  O_34
REMARK   12  A    between atoms: C_30  and  O_33
REMARK                            x       y       z     vdW  Elec       q    Type
REMARK                         _______ _______ _______ _____ _____    ______ ____
ROOT
ATOM      1  C   UNL     1       7.295  -0.650  24.207  0.00  0.00    +0.214 A 
ATOM      2  C   UNL     1       7.082   0.775  23.903  0.00  0.00    +0.238 A 
ATOM      3  O   UNL     1       5.965   1.237  23.958  0.00  0.00    -0.283 OA
ATOM      4  C   UNL     1       8.227   1.626  23.662  0.00  0.00    +0.109 A 
ATOM      5  C   UNL     1       9.495   1.134  23.950  0.00  0.00    +0.147 A 
ATOM      6  C   UNL     1      10.593   1.999  23.809  0.00  0.00    +0.092 A 
ATOM      7  C   UNL     1      10.377   3.333  23.413  0.00  0.00    +0.124 A 
ATOM      8  C   UNL     1       9.103   3.809  23.123  0.00  0.00    +0.091 A 
ATOM      9  O   UNL     1       9.677  -0.160  24.393  0.00  0.00    -0.451 OA
ATOM     10  C   UNL     1       8.030   2.944  23.223  0.00  0.00    +0.135 A 
ATOM     11  C   UNL     1       8.563  -1.028  24.549  0.00  0.00    +0.181 A 
ENDROOT
BRANCH  11  12
ATOM     12  C   UNL     1       8.875  -2.256  25.393  0.00  0.00    +0.025 A 
ATOM     13  C   UNL     1       8.163  -2.502  26.592  0.00  0.00    +0.015 A 
ATOM     14  C   UNL     1       7.942  -3.814  27.044  0.00  0.00    +0.050 A 
ATOM     15  C   UNL     1       8.438  -4.871  26.306  0.00  0.00    +0.158 A 
ATOM     16  C   UNL     1       9.312  -4.627  25.262  0.00  0.00    +0.159 A 
ATOM     17  C   UNL     1       9.610  -3.330  24.867  0.00  0.00    +0.060 A 
BRANCH  15  18
ATOM     18  O   UNL     1       7.995  -6.140  26.539  0.00  0.00    -0.503 OA
ATOM     19  H   UNL     1       8.511  -6.700  25.925  0.00  0.00    +0.292 HD
ENDBRANCH  15  18
BRANCH  16  20
ATOM     20  O   UNL     1       9.752  -5.702  24.538  0.00  0.00    -0.503 OA
ATOM     21  H   UNL     1      10.725  -5.690  24.608  0.00  0.00    +0.292 HD
ENDBRANCH  16  20
ENDBRANCH  11  12
BRANCH   7  22
ATOM     22  O   UNL     1      11.375   4.252  23.288  0.00  0.00    -0.507 OA
ATOM     23  H   UNL     1      11.709   4.479  24.163  0.00  0.00    +0.292 HD
ENDBRANCH   7  22
BRANCH  10  24
ATOM     24  O   UNL     1       6.786   3.394  22.884  0.00  0.00    -0.506 OA
ATOM     25  H   UNL     1       6.598   4.231  23.338  0.00  0.00    +0.292 HD
ENDBRANCH  10  24
BRANCH   1  26
ATOM     26  O   UNL     1       6.137  -1.424  24.344  0.00  0.00    -0.453 OA
BRANCH  26  29
ATOM     27  C   UNL     1       4.558  -4.132  22.807  0.00  0.00    +0.182 C 
ATOM     28  O   UNL     1       4.917  -3.378  24.002  0.00  0.00    -0.331 OA
ATOM     29  C   UNL     1       6.232  -2.798  23.867  0.00  0.00    +0.340 C 
ATOM     30  C   UNL     1       6.636  -2.930  22.382  0.00  0.00    +0.214 C 
ATOM     31  C   UNL     1       5.440  -3.560  21.694  0.00  0.00    +0.180 C 
BRANCH  27  33
ATOM     32  C   UNL     1       3.065  -6.302  23.209  0.00  0.00    +0.040 C 
ATOM     33  C   UNL     1       4.436  -5.625  23.224  0.00  0.00    +0.143 C 
BRANCH  33  34
ATOM     34  O   UNL     1       5.386  -6.479  22.584  0.00  0.00    -0.389 OA
ATOM     35  H   UNL     1       5.814  -6.989  23.275  0.00  0.00    +0.210 HD
ENDBRANCH  33  34
ENDBRANCH  27  33
BRANCH  30  36
ATOM     36  O   UNL     1       7.805  -3.753  22.185  0.00  0.00    -0.383 OA
ATOM     37  H   UNL     1       7.621  -4.272  21.371  0.00  0.00    +0.210 HD
ENDBRANCH  30  36
BRANCH  31  38
ATOM     38  O   UNL     1       5.737  -4.383  20.580  0.00  0.00    -0.386 OA
ATOM     39  H   UNL     1       5.477  -3.864  19.791  0.00  0.00    +0.210 HD
ENDBRANCH  31  38
ENDBRANCH  26  29
ENDBRANCH   1  26
TORSDOF 11
ENDMDL
MODEL 8
REMARK VINA RESULT:      -6.8      2.052      7.098
REMARK  Name = 
REMARK  12 active torsions:
REMARK  status: ('A' for Active; 'I' for Inactive)
REMARK    1  A    between atoms: C_1  and  C_2
REMARK    2  A    between atoms: C_2  and  C_4
REMARK    3  A    between atoms: C_2  and  O_37
REMARK    4  A    between atoms: C_6  and  O_36
REMARK    5  A    between atoms: C_8  and  O_35
REMARK    6  A    between atoms: C_10  and  O_13
REMARK    7  A    between atoms: O_13  and  C_14
REMARK    8  A    between atoms: C_15  and  C_27
REMARK    9  A    between atoms: C_19  and  O_26
REMARK   10  A    between atoms: C_21  and  O_25
REMARK   11  A    between atoms: C_29  and  O_34
REMARK   12  A    between atoms: C_30  and  O_33
REMARK                            x       y       z     vdW  Elec       q    Type
REMARK                         _______ _______ _______ _____ _____    ______ ____
ROOT
ATOM      1  C   UNL     1       7.736  -1.699  25.502  0.00  0.00    +0.214 A 
ATOM      2  C   UNL     1       6.504  -2.371  25.950  0.00  0.00    +0.238 A 
ATOM      3  O   UNL     1       5.745  -1.793  26.694  0.00  0.00    -0.283 OA
ATOM      4  C   UNL     1       6.162  -3.664  25.397  0.00  0.00    +0.109 A 
ATOM      5  C   UNL     1       6.875  -4.127  24.297  0.00  0.00    +0.147 A 
ATOM      6  C   UNL     1       6.473  -5.336  23.703  0.00  0.00    +0.092 A 
ATOM      7  C   UNL     1       5.353  -6.019  24.216  0.00  0.00    +0.124 A 
ATOM      8  C   UNL     1       4.653  -5.545  25.321  0.00  0.00    +0.091 A 
ATOM      9  O   UNL     1       7.933  -3.411  23.776  0.00  0.00    -0.451 OA
ATOM     10  C   UNL     1       5.077  -4.378  25.927  0.00  0.00    +0.135 A 
ATOM     11  C   UNL     1       8.328  -2.182  24.369  0.00  0.00    +0.181 A 
ENDROOT
BRANCH  11  12
ATOM     12  C   UNL     1       9.228  -1.346  23.470  0.00  0.00    +0.025 A 
ATOM     13  C   UNL     1       8.920  -1.184  22.097  0.00  0.00    +0.015 A 
ATOM     14  C   UNL     1       9.283  -0.014  21.408  0.00  0.00    +0.050 A 
ATOM     15  C   UNL     1       9.956   0.982  22.087  0.00  0.00    +0.158 A 
ATOM     16  C   UNL     1      10.446   0.737  23.357  0.00  0.00    +0.159 A 
ATOM     17  C   UNL     1      10.170  -0.457  24.010  0.00  0.00    +0.060 A 
BRANCH  15  18
ATOM     18  O   UNL     1      10.056   2.232  21.550  0.00  0.00    -0.503 OA
ATOM     19  H   UNL     1       9.901   2.105  20.593  0.00  0.00    +0.292 HD
ENDBRANCH  15  18
BRANCH  16  20
ATOM     20  O   UNL     1      11.078   1.763  24.003  0.00  0.00    -0.503 OA
ATOM     21  H   UNL     1      11.131   2.493  23.358  0.00  0.00    +0.292 HD
ENDBRANCH  16  20
ENDBRANCH  11  12
BRANCH   7  22
ATOM     22  O   UNL     1       4.868  -7.174  23.682  0.00  0.00    -0.507 OA
ATOM     23  H   UNL     1       5.584  -7.647  23.244  0.00  0.00    +0.292 HD
ENDBRANCH   7  22
BRANCH  10  24
ATOM     24  O   UNL     1       4.426  -3.942  27.045  0.00  0.00    -0.506 OA
ATOM     25  H   UNL     1       3.467  -3.956  26.901  0.00  0.00    +0.292 HD
ENDBRANCH  10  24
BRANCH   1  26
ATOM     26  O   UNL     1       8.041  -0.493  26.145  0.00  0.00    -0.453 OA
BRANCH  26  29
ATOM     27  C   UNL     1       7.536   2.555  24.520  0.00  0.00    +0.182 C 
ATOM     28  O   UNL     1       7.971   1.788  25.681  0.00  0.00    -0.331 OA
ATOM     29  C   UNL     1       7.143   0.620  25.864  0.00  0.00    +0.340 C 
ATOM     30  C   UNL     1       6.305   0.452  24.577  0.00  0.00    +0.214 C 
ATOM     31  C   UNL     1       6.766   1.559  23.648  0.00  0.00    +0.180 C 
BRANCH  27  33
ATOM     32  C   UNL     1       7.741   5.210  24.618  0.00  0.00    +0.040 C 
ATOM     33  C   UNL     1       7.023   3.928  25.042  0.00  0.00    +0.143 C 
BRANCH  33  34
ATOM     34  O   UNL     1       5.614   4.109  24.891  0.00  0.00    -0.389 OA
ATOM     35  H   UNL     1       5.320   4.645  25.629  0.00  0.00    +0.210 HD
ENDBRANCH  33  34
ENDBRANCH  27  33
BRANCH  30  36
ATOM     36  O   UNL     1       4.885   0.565  24.808  0.00  0.00    -0.383 OA
ATOM     37  H   UNL     1       4.466   0.385  23.937  0.00  0.00    +0.210 HD
ENDBRANCH  30  36
BRANCH  31  38
ATOM     38  O   UNL     1       5.785   2.061  22.759  0.00  0.00    -0.386 OA
ATOM     39  H   UNL     1       4.923   1.900  23.197  0.00  0.00    +0.210 HD
ENDBRANCH  31  38
ENDBRANCH  26  29
ENDBRANCH   1  26
TORSDOF 11
ENDMDL
MODEL 9
REMARK VINA RESULT:      -6.8      2.354      7.404
REMARK  Name = 
REMARK  12 active torsions:
REMARK  status: ('A' for Active; 'I' for Inactive)
REMARK    1  A    between atoms: C_1  and  C_2
REMARK    2  A    between atoms: C_2  and  C_4
REMARK    3  A    between atoms: C_2  and  O_37
REMARK    4  A    between atoms: C_6  and  O_36
REMARK    5  A    between atoms: C_8  and  O_35
REMARK    6  A    between atoms: C_10  and  O_13
REMARK    7  A    between atoms: O_13  and  C_14
REMARK    8  A    between atoms: C_15  and  C_27
REMARK    9  A    between atoms: C_19  and  O_26
REMARK   10  A    between atoms: C_21  and  O_25
REMARK   11  A    between atoms: C_29  and  O_34
REMARK   12  A    between atoms: C_30  and  O_33
REMARK                            x       y       z     vdW  Elec       q    Type
REMARK                         _______ _______ _______ _____ _____    ______ ____
ROOT
ATOM      1  C   UNL     1       6.821  -1.248  24.961  0.00  0.00    +0.214 A 
ATOM      2  C   UNL     1       5.528  -1.918  25.181  0.00  0.00    +0.238 A 
ATOM      3  O   UNL     1       4.571  -1.268  25.536  0.00  0.00    -0.283 OA
ATOM      4  C   UNL     1       5.392  -3.320  24.852  0.00  0.00    +0.109 A 
ATOM      5  C   UNL     1       6.406  -3.935  24.125  0.00  0.00    +0.147 A 
ATOM      6  C   UNL     1       6.223  -5.269  23.723  0.00  0.00    +0.092 A 
ATOM      7  C   UNL     1       5.018  -5.927  24.037  0.00  0.00    +0.124 A 
ATOM      8  C   UNL     1       4.015  -5.300  24.770  0.00  0.00    +0.091 A 
ATOM      9  O   UNL     1       7.554  -3.252  23.779  0.00  0.00    -0.451 OA
ATOM     10  C   UNL     1       4.216  -4.002  25.199  0.00  0.00    +0.135 A 
ATOM     11  C   UNL     1       7.730  -1.899  24.174  0.00  0.00    +0.181 A 
ENDROOT
BRANCH  11  12
ATOM     12  C   UNL     1       8.834  -1.189  23.403  0.00  0.00    +0.025 A 
ATOM     13  C   UNL     1       8.727  -1.003  22.003  0.00  0.00    +0.015 A 
ATOM     14  C   UNL     1       9.317   0.106  21.374  0.00  0.00    +0.050 A 
ATOM     15  C   UNL     1      10.016   1.018  22.140  0.00  0.00    +0.158 A 
ATOM     16  C   UNL     1      10.305   0.725  23.461  0.00  0.00    +0.159 A 
ATOM     17  C   UNL     1       9.802  -0.419  24.066  0.00  0.00    +0.060 A 
BRANCH  15  18
ATOM     18  O   UNL     1      10.338   2.241  21.629  0.00  0.00    -0.503 OA
ATOM     19  H   UNL     1      10.967   2.050  20.905  0.00  0.00    +0.292 HD
ENDBRANCH  15  18
BRANCH  16  20
ATOM     20  O   UNL     1      10.972   1.672  24.190  0.00  0.00    -0.503 OA
ATOM     21  H   UNL     1      10.453   1.793  25.008  0.00  0.00    +0.292 HD
ENDBRANCH  16  20
ENDBRANCH  11  12
BRANCH   7  22
ATOM     22  O   UNL     1       4.736  -7.204  23.656  0.00  0.00    -0.507 OA
ATOM     23  H   UNL     1       4.821  -7.275  22.698  0.00  0.00    +0.292 HD
ENDBRANCH   7  22
BRANCH  10  24
ATOM     24  O   UNL     1       3.257  -3.405  25.965  0.00  0.00    -0.506 OA
ATOM     25  H   UNL     1       3.587  -3.266  26.866  0.00  0.00    +0.292 HD
ENDBRANCH  10  24
BRANCH   1  26
ATOM     26  O   UNL     1       6.897   0.085  25.382  0.00  0.00    -0.453 OA
BRANCH  26  29
ATOM     27  C   UNL     1       4.829   2.696  24.337  0.00  0.00    +0.182 C 
ATOM     28  O   UNL     1       5.164   1.278  24.384  0.00  0.00    -0.331 OA
ATOM     29  C   UNL     1       6.595   1.088  24.369  0.00  0.00    +0.340 C 
ATOM     30  C   UNL     1       7.239   2.469  24.629  0.00  0.00    +0.214 C 
ATOM     31  C   UNL     1       6.078   3.419  24.851  0.00  0.00    +0.180 C 
BRANCH  27  33
ATOM     32  C   UNL     1       2.658   3.481  23.007  0.00  0.00    +0.040 C 
ATOM     33  C   UNL     1       4.093   2.952  22.992  0.00  0.00    +0.143 C 
BRANCH  33  34
ATOM     34  O   UNL     1       4.859   3.707  22.052  0.00  0.00    -0.389 OA
ATOM     35  H   UNL     1       4.317   3.813  21.269  0.00  0.00    +0.210 HD
ENDBRANCH  33  34
ENDBRANCH  27  33
BRANCH  30  36
ATOM     36  O   UNL     1       8.048   2.931  23.528  0.00  0.00    -0.383 OA
ATOM     37  H   UNL     1       7.420   3.367  22.910  0.00  0.00    +0.210 HD
ENDBRANCH  30  36
BRANCH  31  38
ATOM     38  O   UNL     1       6.296   4.758  24.445  0.00  0.00    -0.386 OA
ATOM     39  H   UNL     1       5.411   5.113  24.219  0.00  0.00    +0.210 HD
ENDBRANCH  31  38
ENDBRANCH  26  29
ENDBRANCH   1  26
TORSDOF 11
ENDMDL
