MODEL 1
REMARK VINA RESULT:      -7.1      0.000      0.000
REMARK  Name = 
REMARK  26 active torsions:
REMARK  status: ('A' for Active; 'I' for Inactive)
REMARK    1  A    between atoms: C_1  and  C_2
REMARK    2  A    between atoms: C_4  and  O_66
REMARK    3  A    between atoms: C_6  and  O_65
REMARK    4  A    between atoms: C_8  and  O_64
REMARK    5  A    between atoms: C_10  and  C_12
REMARK    6  A    between atoms: C_10  and  O_63
REMARK    7  A    between atoms: C_12  and  O_62
REMARK    8  A    between atoms: C_13  and  O_61
REMARK    9  A    between atoms: C_14  and  O_60
REMARK   10  A    between atoms: C_15  and  C_58
REMARK   11  A    between atoms: C_17  and  O_18
REMARK   12  A    between atoms: C_17  and  O_19
REMARK   13  A    between atoms: O_19  and  C_20
REMARK   14  A    between atoms: C_21  and  C_50
REMARK   15  A    between atoms: C_27  and  O_37
REMARK   16  A    between atoms: C_29  and  O_36
REMARK   17  A    between atoms: O_37  and  C_38
REMARK   18  A    between atoms: C_38  and  O_49
REMARK   19  A    between atoms: C_39  and  O_48
REMARK   20  A    between atoms: C_40  and  O_47
REMARK   21  A    between atoms: C_41  and  O_46
REMARK   22  A    between atoms: C_42  and  C_44
REMARK   23  A    between atoms: C_44  and  O_45
REMARK   24  A    between atoms: C_52  and  O_57
REMARK   25  A    between atoms: C_53  and  O_56
REMARK   26  A    between atoms: C_58  and  O_59
REMARK                            x       y       z     vdW  Elec       q    Type
REMARK                         _______ _______ _______ _____ _____    ______ ____
ROOT
ATOM      1  C   UNL     1       4.786  -1.540  26.006  0.00  0.00    +0.216 A 
ATOM      2  C   UNL     1       5.395  -0.465  25.129  0.00  0.00    +0.239 A 
ATOM      3  O   UNL     1       6.081  -0.640  24.135  0.00  0.00    -0.283 OA
ATOM      4  C   UNL     1       5.198   0.910  25.613  0.00  0.00    +0.117 A 
ATOM      5  C   UNL     1       6.064   1.986  25.349  0.00  0.00    +0.190 A 
ATOM      6  C   UNL     1       5.770   3.190  26.020  0.00  0.00    +0.247 A 
ATOM      7  O   UNL     1       5.541   4.276  25.148  0.00  0.00    -0.309 OA
ATOM      8  S   UNL     1       3.928   4.501  24.834  0.00  0.00    +0.300 S 
ATOM      9  O   UNL     1       3.765   4.470  23.394  0.00  0.00    -0.097 OA
ATOM     10  O   UNL     1       3.483   5.647  25.608  0.00  0.00    -0.097 OA
ATOM     11  O   UNL     1       3.157   3.157  25.489  0.00  0.00    -0.309 OA
ATOM     12  C   UNL     1       3.762   2.484  26.685  0.00  0.00    +0.247 A 
ATOM     13  C   UNL     1       4.858   3.211  27.059  0.00  0.00    +0.215 A 
ATOM     14  C   UNL     1       4.048   1.149  26.360  0.00  0.00    +0.191 A 
ATOM     15  O   UNL     1       3.299   0.142  26.934  0.00  0.00    -0.447 OA
ATOM     16  C   UNL     1       3.816  -1.152  26.883  0.00  0.00    +0.181 A 
ENDROOT
BRANCH  16  17
ATOM     17  C   UNL     1       3.399  -2.097  27.986  0.00  0.00    +0.025 A 
ATOM     18  C   UNL     1       2.070  -2.582  28.091  0.00  0.00    +0.015 A 
ATOM     19  C   UNL     1       1.743  -3.705  28.865  0.00  0.00    +0.050 A 
ATOM     20  C   UNL     1       2.728  -4.311  29.616  0.00  0.00    +0.158 A 
ATOM     21  C   UNL     1       4.024  -3.804  29.609  0.00  0.00    +0.159 A 
ATOM     22  C   UNL     1       4.369  -2.708  28.803  0.00  0.00    +0.060 A 
BRANCH  21  23
ATOM     23  O   UNL     1       4.943  -4.460  30.386  0.00  0.00    -0.503 OA
ATOM     24  H   UNL     1       4.650  -4.422  31.312  0.00  0.00    +0.292 HD
ENDBRANCH  21  23
BRANCH  20  25
ATOM     25  O   UNL     1       2.419  -5.423  30.347  0.00  0.00    -0.503 OA
ATOM     26  H   UNL     1       1.777  -5.916  29.798  0.00  0.00    +0.292 HD
ENDBRANCH  20  25
ENDBRANCH  16  17
BRANCH  13  27
ATOM     27  O   UNL     1       4.736   4.371  27.775  0.00  0.00    -0.501 OA
ATOM     28  H   UNL     1       4.605   5.148  27.196  0.00  0.00    +0.292 HD
ENDBRANCH  13  27
BRANCH   5  29
ATOM     29  O   UNL     1       7.052   1.876  24.410  0.00  0.00    -0.432 OA
BRANCH  29  30
ATOM     30  C   UNL     1       8.429   1.873  24.855  0.00  0.00    +0.358 C 
ATOM     31  O   UNL     1       8.901   3.187  25.189  0.00  0.00    -0.307 OA
ATOM     32  C   UNL     1       8.843   4.114  24.087  0.00  0.00    +0.181 C 
ATOM     33  C   UNL     1       9.753   3.625  22.944  0.00  0.00    +0.177 C 
ATOM     34  C   UNL     1       9.298   2.233  22.495  0.00  0.00    +0.183 C 
ATOM     35  C   UNL     1       9.306   1.290  23.704  0.00  0.00    +0.249 C 
BRANCH  35  36
ATOM     36  O   UNL     1       8.873  -0.042  23.368  0.00  0.00    -0.380 OA
ATOM     37  H   UNL     1       8.630  -0.030  22.424  0.00  0.00    +0.210 HD
ENDBRANCH  35  36
BRANCH  34  38
ATOM     38  O   UNL     1      10.193   1.742  21.485  0.00  0.00    -0.386 OA
ATOM     39  H   UNL     1      11.095   1.898  21.836  0.00  0.00    +0.210 HD
ENDBRANCH  34  38
BRANCH  33  40
ATOM     40  O   UNL     1      11.130   3.469  23.336  0.00  0.00    -0.386 OA
ATOM     41  H   UNL     1      11.219   2.602  23.781  0.00  0.00    +0.210 HD
ENDBRANCH  33  40
BRANCH  30  42
ATOM     42  O   UNL     1       8.624   1.021  25.985  0.00  0.00    -0.331 OA
ATOM     43  H   UNL     1       9.349   0.417  25.742  0.00  0.00    +0.216 HD
ENDBRANCH  30  42
BRANCH  32  44
ATOM     44  C   UNL     1       9.246   5.496  24.623  0.00  0.00    +0.190 C 
BRANCH  44  45
ATOM     45  O   UNL     1       9.965   6.231  23.633  0.00  0.00    -0.392 OA
ATOM     46  H   UNL     1      10.487   6.897  24.119  0.00  0.00    +0.210 HD
ENDBRANCH  44  45
ENDBRANCH  32  44
ENDBRANCH  29  30
ENDBRANCH   5  29
BRANCH   1  47
ATOM     47  O   UNL     1       5.297  -2.826  26.138  0.00  0.00    -0.428 OA
BRANCH  47  49
ATOM     48  C   UNL     1       4.915  -5.192  25.502  0.00  0.00    +0.244 C 
ATOM     49  C   UNL     1       5.301  -3.739  25.051  0.00  0.00    +0.367 C 
ATOM     50  O   UNL     1       6.609  -3.794  24.468  0.00  0.00    -0.306 OA
ATOM     51  C   UNL     1       7.685  -4.176  25.373  0.00  0.00    +0.181 C 
ATOM     52  C   UNL     1       7.410  -5.521  26.078  0.00  0.00    +0.177 C 
ATOM     53  C   UNL     1       5.957  -5.629  26.556  0.00  0.00    +0.192 C 
BRANCH  48  57
ATOM     54  C   UNL     1       1.878  -7.892  25.859  0.00  0.00    +0.041 C 
ATOM     55  C   UNL     1       2.675  -7.892  24.552  0.00  0.00    +0.150 C 
ATOM     56  O   UNL     1       4.059  -7.504  24.718  0.00  0.00    -0.338 OA
ATOM     57  C   UNL     1       4.569  -6.232  24.278  0.00  0.00    +0.238 C 
ATOM     58  C   UNL     1       3.837  -5.789  22.985  0.00  0.00    +0.208 C 
ATOM     59  C   UNL     1       2.313  -5.826  23.063  0.00  0.00    +0.179 C 
ATOM     60  C   UNL     1       1.858  -7.236  23.414  0.00  0.00    +0.174 C 
BRANCH  60  61
ATOM     61  O   UNL     1       1.943  -8.024  22.218  0.00  0.00    -0.387 OA
ATOM     62  H   UNL     1       1.272  -8.729  22.236  0.00  0.00    +0.210 HD
ENDBRANCH  60  61
BRANCH  59  63
ATOM     63  O   UNL     1       1.782  -4.866  23.946  0.00  0.00    -0.386 OA
ATOM     64  H   UNL     1       0.974  -5.211  24.380  0.00  0.00    +0.210 HD
ENDBRANCH  59  63
BRANCH  58  65
ATOM     65  O   UNL     1       4.398  -4.590  22.446  0.00  0.00    -0.384 OA
ATOM     66  H   UNL     1       5.117  -4.289  23.035  0.00  0.00    +0.210 HD
ENDBRANCH  58  65
BRANCH  57  67
ATOM     67  O   UNL     1       5.931  -6.540  23.796  0.00  0.00    -0.360 OA
ATOM     68  H   UNL     1       6.203  -5.876  23.141  0.00  0.00    +0.213 HD
ENDBRANCH  57  67
ENDBRANCH  48  57
BRANCH  53  69
ATOM     69  O   UNL     1       5.701  -6.923  27.125  0.00  0.00    -0.386 OA
ATOM     70  H   UNL     1       4.747  -6.980  27.354  0.00  0.00    +0.210 HD
ENDBRANCH  53  69
BRANCH  52  71
ATOM     71  O   UNL     1       8.302  -5.735  27.182  0.00  0.00    -0.386 OA
ATOM     72  H   UNL     1       7.734  -5.812  27.978  0.00  0.00    +0.210 HD
ENDBRANCH  52  71
BRANCH  49  73
ATOM     73  O   UNL     1       4.266  -3.288  24.199  0.00  0.00    -0.330 OA
ATOM     74  H   UNL     1       4.215  -2.313  24.300  0.00  0.00    +0.216 HD
ENDBRANCH  49  73
BRANCH  48  75
ATOM     75  O   UNL     1       3.654  -5.030  26.266  0.00  0.00    -0.374 OA
ATOM     76  H   UNL     1       2.962  -5.381  25.664  0.00  0.00    +0.211 HD
ENDBRANCH  48  75
BRANCH  51  77
ATOM     77  C   UNL     1       8.158  -3.101  26.364  0.00  0.00    +0.190 C 
BRANCH  77  78
ATOM     78  O   UNL     1       8.356  -1.840  25.733  0.00  0.00    -0.392 OA
ATOM     79  H   UNL     1       8.921  -1.324  26.350  0.00  0.00    +0.210 HD
ENDBRANCH  77  78
ENDBRANCH  51  77
ENDBRANCH  47  49
ENDBRANCH   1  47
TORSDOF 25
ENDMDL
MODEL 2
REMARK VINA RESULT:      -6.2      2.579      9.881
REMARK  Name = 
REMARK  26 active torsions:
REMARK  status: ('A' for Active; 'I' for Inactive)
REMARK    1  A    between atoms: C_1  and  C_2
REMARK    2  A    between atoms: C_4  and  O_66
REMARK    3  A    between atoms: C_6  and  O_65
REMARK    4  A    between atoms: C_8  and  O_64
REMARK    5  A    between atoms: C_10  and  C_12
REMARK    6  A    between atoms: C_10  and  O_63
REMARK    7  A    between atoms: C_12  and  O_62
REMARK    8  A    between atoms: C_13  and  O_61
REMARK    9  A    between atoms: C_14  and  O_60
REMARK   10  A    between atoms: C_15  and  C_58
REMARK   11  A    between atoms: C_17  and  O_18
REMARK   12  A    between atoms: C_17  and  O_19
REMARK   13  A    between atoms: O_19  and  C_20
REMARK   14  A    between atoms: C_21  and  C_50
REMARK   15  A    between atoms: C_27  and  O_37
REMARK   16  A    between atoms: C_29  and  O_36
REMARK   17  A    between atoms: O_37  and  C_38
REMARK   18  A    between atoms: C_38  and  O_49
REMARK   19  A    between atoms: C_39  and  O_48
REMARK   20  A    between atoms: C_40  and  O_47
REMARK   21  A    between atoms: C_41  and  O_46
REMARK   22  A    between atoms: C_42  and  C_44
REMARK   23  A    between atoms: C_44  and  O_45
REMARK   24  A    between atoms: C_52  and  O_57
REMARK   25  A    between atoms: C_53  and  O_56
REMARK   26  A    between atoms: C_58  and  O_59
REMARK                            x       y       z     vdW  Elec       q    Type
REMARK                         _______ _______ _______ _____ _____    ______ ____
ROOT
ATOM      1  C   UNL     1       6.703   0.503  24.629  0.00  0.00    +0.216 A 
ATOM      2  C   UNL     1       5.820  -0.714  24.809  0.00  0.00    +0.239 A 
ATOM      3  O   UNL     1       4.671  -0.724  25.222  0.00  0.00    -0.283 OA
ATOM      4  C   UNL     1       6.481  -2.000  24.542  0.00  0.00    +0.117 A 
ATOM      5  C   UNL     1       6.120  -3.226  25.131  0.00  0.00    +0.190 A 
ATOM      6  C   UNL     1       6.967  -4.316  24.847  0.00  0.00    +0.247 A 
ATOM      7  O   UNL     1       6.302  -5.397  24.229  0.00  0.00    -0.309 OA
ATOM      8  S   UNL     1       6.434  -5.355  22.577  0.00  0.00    +0.300 S 
ATOM      9  O   UNL     1       5.088  -5.386  22.040  0.00  0.00    -0.097 OA
ATOM     10  O   UNL     1       7.412  -6.356  22.185  0.00  0.00    -0.097 OA
ATOM     11  O   UNL     1       7.117  -3.859  22.224  0.00  0.00    -0.309 OA
ATOM     12  C   UNL     1       8.041  -3.230  23.223  0.00  0.00    +0.247 A 
ATOM     13  C   UNL     1       8.200  -4.113  24.255  0.00  0.00    +0.215 A 
ATOM     14  C   UNL     1       7.516  -1.988  23.611  0.00  0.00    +0.191 A 
ATOM     15  O   UNL     1       8.151  -0.832  23.207  0.00  0.00    -0.447 OA
ATOM     16  C   UNL     1       7.834   0.346  23.882  0.00  0.00    +0.181 A 
ENDROOT
BRANCH  16  17
ATOM     17  C   UNL     1       8.900   1.416  23.925  0.00  0.00    +0.025 A 
ATOM     18  C   UNL     1      10.277   1.093  24.039  0.00  0.00    +0.015 A 
ATOM     19  C   UNL     1      11.289   2.014  23.733  0.00  0.00    +0.050 A 
ATOM     20  C   UNL     1      10.940   3.302  23.387  0.00  0.00    +0.158 A 
ATOM     21  C   UNL     1       9.600   3.679  23.355  0.00  0.00    +0.159 A 
ATOM     22  C   UNL     1       8.580   2.752  23.617  0.00  0.00    +0.060 A 
BRANCH  21  23
ATOM     23  O   UNL     1       9.337   4.978  23.007  0.00  0.00    -0.503 OA
ATOM     24  H   UNL     1       8.481   5.234  23.389  0.00  0.00    +0.292 HD
ENDBRANCH  21  23
BRANCH  20  25
ATOM     25  O   UNL     1      11.922   4.193  23.058  0.00  0.00    -0.503 OA
ATOM     26  H   UNL     1      12.648   3.647  22.697  0.00  0.00    +0.292 HD
ENDBRANCH  20  25
ENDBRANCH  16  17
BRANCH  13  27
ATOM     27  O   UNL     1       9.042  -5.187  24.153  0.00  0.00    -0.501 OA
ATOM     28  H   UNL     1       9.889  -5.036  24.619  0.00  0.00    +0.292 HD
ENDBRANCH  13  27
BRANCH   5  29
ATOM     29  O   UNL     1       4.956  -3.349  25.835  0.00  0.00    -0.432 OA
BRANCH  29  30
ATOM     30  C   UNL     1       5.012  -3.279  27.280  0.00  0.00    +0.358 C 
ATOM     31  O   UNL     1       5.436  -4.516  27.873  0.00  0.00    -0.307 OA
ATOM     32  C   UNL     1       4.571  -5.626  27.565  0.00  0.00    +0.181 C 
ATOM     33  C   UNL     1       3.160  -5.361  28.123  0.00  0.00    +0.177 C 
ATOM     34  C   UNL     1       2.608  -4.068  27.514  0.00  0.00    +0.183 C 
ATOM     35  C   UNL     1       3.586  -2.922  27.802  0.00  0.00    +0.249 C 
BRANCH  35  36
ATOM     36  O   UNL     1       3.147  -1.668  27.245  0.00  0.00    -0.380 OA
ATOM     37  H   UNL     1       2.427  -1.342  27.816  0.00  0.00    +0.210 HD
ENDBRANCH  35  36
BRANCH  34  38
ATOM     38  O   UNL     1       1.328  -3.776  28.094  0.00  0.00    -0.386 OA
ATOM     39  H   UNL     1       0.671  -3.986  27.397  0.00  0.00    +0.210 HD
ENDBRANCH  34  38
BRANCH  33  40
ATOM     40  O   UNL     1       3.139  -5.149  29.548  0.00  0.00    -0.386 OA
ATOM     41  H   UNL     1       3.074  -6.024  29.981  0.00  0.00    +0.210 HD
ENDBRANCH  33  40
BRANCH  30  42
ATOM     42  O   UNL     1       5.882  -2.240  27.731  0.00  0.00    -0.331 OA
ATOM     43  H   UNL     1       6.787  -2.559  27.562  0.00  0.00    +0.216 HD
ENDBRANCH  30  42
BRANCH  32  44
ATOM     44  C   UNL     1       5.216  -6.892  28.146  0.00  0.00    +0.190 C 
BRANCH  44  45
ATOM     45  O   UNL     1       4.286  -7.603  28.963  0.00  0.00    -0.392 OA
ATOM     46  H   UNL     1       4.765  -7.830  29.783  0.00  0.00    +0.210 HD
ENDBRANCH  44  45
ENDBRANCH  32  44
ENDBRANCH  29  30
ENDBRANCH   5  29
BRANCH   1  47
ATOM     47  O   UNL     1       6.564   1.685  25.347  0.00  0.00    -0.428 OA
BRANCH  47  49
ATOM     48  C   UNL     1       5.491   3.910  25.133  0.00  0.00    +0.244 C 
ATOM     49  C   UNL     1       5.325   2.375  25.410  0.00  0.00    +0.367 C 
ATOM     50  O   UNL     1       4.752   2.224  26.716  0.00  0.00    -0.306 OA
ATOM     51  C   UNL     1       5.577   2.692  27.821  0.00  0.00    +0.181 C 
ATOM     52  C   UNL     1       6.015   4.162  27.648  0.00  0.00    +0.177 C 
ATOM     53  C   UNL     1       6.452   4.462  26.209  0.00  0.00    +0.192 C 
BRANCH  48  57
ATOM     54  C   UNL     1       5.371   7.006  22.479  0.00  0.00    +0.041 C 
ATOM     55  C   UNL     1       4.070   6.641  23.199  0.00  0.00    +0.150 C 
ATOM     56  O   UNL     1       4.275   6.114  24.531  0.00  0.00    -0.338 OA
ATOM     57  C   UNL     1       4.091   4.723  24.855  0.00  0.00    +0.238 C 
ATOM     58  C   UNL     1       2.935   4.133  24.006  0.00  0.00    +0.208 C 
ATOM     59  C   UNL     1       3.043   4.387  22.506  0.00  0.00    +0.179 C 
ATOM     60  C   UNL     1       3.112   5.886  22.248  0.00  0.00    +0.174 C 
BRANCH  60  61
ATOM     61  O   UNL     1       1.779   6.403  22.368  0.00  0.00    -0.387 OA
ATOM     62  H   UNL     1       1.143   5.670  22.436  0.00  0.00    +0.210 HD
ENDBRANCH  60  61
BRANCH  59  63
ATOM     63  O   UNL     1       4.116   3.700  21.906  0.00  0.00    -0.386 OA
ATOM     64  H   UNL     1       4.318   2.880  22.402  0.00  0.00    +0.210 HD
ENDBRANCH  59  63
BRANCH  58  65
ATOM     65  O   UNL     1       2.637   2.788  24.385  0.00  0.00    -0.384 OA
ATOM     66  H   UNL     1       3.413   2.228  24.190  0.00  0.00    +0.210 HD
ENDBRANCH  58  65
BRANCH  57  67
ATOM     67  O   UNL     1       3.521   4.746  26.218  0.00  0.00    -0.360 OA
ATOM     68  H   UNL     1       2.652   4.311  26.214  0.00  0.00    +0.213 HD
ENDBRANCH  57  67
ENDBRANCH  48  57
BRANCH  53  69
ATOM     69  O   UNL     1       6.765   5.855  26.050  0.00  0.00    -0.386 OA
ATOM     70  H   UNL     1       6.383   6.349  26.808  0.00  0.00    +0.210 HD
ENDBRANCH  53  69
BRANCH  52  71
ATOM     71  O   UNL     1       7.066   4.516  28.559  0.00  0.00    -0.386 OA
ATOM     72  H   UNL     1       6.667   4.494  29.454  0.00  0.00    +0.210 HD
ENDBRANCH  52  71
BRANCH  49  73
ATOM     73  O   UNL     1       4.565   1.847  24.340  0.00  0.00    -0.330 OA
ATOM     74  H   UNL     1       3.760   1.442  24.732  0.00  0.00    +0.216 HD
ENDBRANCH  49  73
BRANCH  48  75
ATOM     75  O   UNL     1       6.262   3.986  23.867  0.00  0.00    -0.374 OA
ATOM     76  H   UNL     1       5.813   3.345  23.274  0.00  0.00    +0.211 HD
ENDBRANCH  48  75
BRANCH  51  77
ATOM     77  C   UNL     1       6.758   1.792  28.221  0.00  0.00    +0.190 C 
BRANCH  77  78
ATOM     78  O   UNL     1       6.427   0.409  28.142  0.00  0.00    -0.392 OA
ATOM     79  H   UNL     1       7.272  -0.051  27.940  0.00  0.00    +0.210 HD
ENDBRANCH  77  78
ENDBRANCH  51  77
ENDBRANCH  47  49
ENDBRANCH   1  47
TORSDOF 25
ENDMDL
MODEL 3
REMARK VINA RESULT:      -6.2      2.430      9.947
REMARK  Name = 
REMARK  26 active torsions:
REMARK  status: ('A' for Active; 'I' for Inactive)
REMARK    1  A    between atoms: C_1  and  C_2
REMARK    2  A    between atoms: C_4  and  O_66
REMARK    3  A    between atoms: C_6  and  O_65
REMARK    4  A    between atoms: C_8  and  O_64
REMARK    5  A    between atoms: C_10  and  C_12
REMARK    6  A    between atoms: C_10  and  O_63
REMARK    7  A    between atoms: C_12  and  O_62
REMARK    8  A    between atoms: C_13  and  O_61
REMARK    9  A    between atoms: C_14  and  O_60
REMARK   10  A    between atoms: C_15  and  C_58
REMARK   11  A    between atoms: C_17  and  O_18
REMARK   12  A    between atoms: C_17  and  O_19
REMARK   13  A    between atoms: O_19  and  C_20
REMARK   14  A    between atoms: C_21  and  C_50
REMARK   15  A    between atoms: C_27  and  O_37
REMARK   16  A    between atoms: C_29  and  O_36
REMARK   17  A    between atoms: O_37  and  C_38
REMARK   18  A    between atoms: C_38  and  O_49
REMARK   19  A    between atoms: C_39  and  O_48
REMARK   20  A    between atoms: C_40  and  O_47
REMARK   21  A    between atoms: C_41  and  O_46
REMARK   22  A    between atoms: C_42  and  C_44
REMARK   23  A    between atoms: C_44  and  O_45
REMARK   24  A    between atoms: C_52  and  O_57
REMARK   25  A    between atoms: C_53  and  O_56
REMARK   26  A    between atoms: C_58  and  O_59
REMARK                            x       y       z     vdW  Elec       q    Type
REMARK                         _______ _______ _______ _____ _____    ______ ____
ROOT
ATOM      1  C   UNL     1       6.355  -0.190  25.214  0.00  0.00    +0.216 A 
ATOM      2  C   UNL     1       5.588  -1.478  25.424  0.00  0.00    +0.239 A 
ATOM      3  O   UNL     1       4.578  -1.622  26.094  0.00  0.00    -0.283 OA
ATOM      4  C   UNL     1       6.207  -2.670  24.824  0.00  0.00    +0.117 A 
ATOM      5  C   UNL     1       6.047  -3.984  25.299  0.00  0.00    +0.190 A 
ATOM      6  C   UNL     1       6.836  -4.966  24.667  0.00  0.00    +0.247 A 
ATOM      7  O   UNL     1       6.078  -6.000  24.078  0.00  0.00    -0.309 OA
ATOM      8  S   UNL     1       5.795  -5.734  22.466  0.00  0.00    +0.300 S 
ATOM      9  O   UNL     1       4.361  -5.787  22.269  0.00  0.00    -0.097 OA
ATOM     10  O   UNL     1       6.682  -6.604  21.712  0.00  0.00    -0.097 OA
ATOM     11  O   UNL     1       6.317  -4.160  22.178  0.00  0.00    -0.309 OA
ATOM     12  C   UNL     1       7.437  -3.604  23.006  0.00  0.00    +0.247 A 
ATOM     13  C   UNL     1       7.877  -4.601  23.832  0.00  0.00    +0.215 A 
ATOM     14  C   UNL     1       6.979  -2.464  23.684  0.00  0.00    +0.191 A 
ATOM     15  O   UNL     1       7.454  -1.223  23.310  0.00  0.00    -0.447 OA
ATOM     16  C   UNL     1       7.271  -0.169  24.203  0.00  0.00    +0.181 A 
ENDROOT
BRANCH  16  17
ATOM     17  C   UNL     1       8.277   0.958  24.143  0.00  0.00    +0.025 A 
ATOM     18  C   UNL     1       9.644   0.756  24.465  0.00  0.00    +0.015 A 
ATOM     19  C   UNL     1      10.643   1.665  24.088  0.00  0.00    +0.050 A 
ATOM     20  C   UNL     1      10.280   2.835  23.455  0.00  0.00    +0.158 A 
ATOM     21  C   UNL     1       8.938   3.109  23.206  0.00  0.00    +0.159 A 
ATOM     22  C   UNL     1       7.936   2.184  23.541  0.00  0.00    +0.060 A 
BRANCH  21  23
ATOM     23  O   UNL     1       8.660   4.294  22.578  0.00  0.00    -0.503 OA
ATOM     24  H   UNL     1       8.488   4.971  23.255  0.00  0.00    +0.292 HD
ENDBRANCH  21  23
BRANCH  20  25
ATOM     25  O   UNL     1      11.254   3.708  23.059  0.00  0.00    -0.503 OA
ATOM     26  H   UNL     1      10.825   4.281  22.394  0.00  0.00    +0.292 HD
ENDBRANCH  20  25
ENDBRANCH  16  17
BRANCH  13  27
ATOM     27  O   UNL     1       8.705  -5.592  23.379  0.00  0.00    -0.501 OA
ATOM     28  H   UNL     1       8.343  -6.483  23.555  0.00  0.00    +0.292 HD
ENDBRANCH  13  27
BRANCH   5  29
ATOM     29  O   UNL     1       5.098  -4.279  26.237  0.00  0.00    -0.432 OA
BRANCH  29  30
ATOM     30  C   UNL     1       5.247  -5.492  27.013  0.00  0.00    +0.358 C 
ATOM     31  O   UNL     1       4.672  -6.634  26.361  0.00  0.00    -0.307 OA
ATOM     32  C   UNL     1       3.260  -6.499  26.106  0.00  0.00    +0.181 C 
ATOM     33  C   UNL     1       2.500  -6.356  27.438  0.00  0.00    +0.177 C 
ATOM     34  C   UNL     1       3.026  -5.131  28.193  0.00  0.00    +0.183 C 
ATOM     35  C   UNL     1       4.541  -5.276  28.387  0.00  0.00    +0.249 C 
BRANCH  35  36
ATOM     36  O   UNL     1       5.119  -4.151  29.077  0.00  0.00    -0.380 OA
ATOM     37  H   UNL     1       6.086  -4.225  28.977  0.00  0.00    +0.210 HD
ENDBRANCH  35  36
BRANCH  34  38
ATOM     38  O   UNL     1       2.376  -5.042  29.470  0.00  0.00    -0.386 OA
ATOM     39  H   UNL     1       1.626  -4.425  29.339  0.00  0.00    +0.210 HD
ENDBRANCH  34  38
BRANCH  33  40
ATOM     40  O   UNL     1       2.697  -7.468  28.332  0.00  0.00    -0.386 OA
ATOM     41  H   UNL     1       2.986  -8.235  27.798  0.00  0.00    +0.210 HD
ENDBRANCH  33  40
BRANCH  30  42
ATOM     42  O   UNL     1       6.617  -5.777  27.301  0.00  0.00    -0.331 OA
ATOM     43  H   UNL     1       6.780  -6.674  26.958  0.00  0.00    +0.216 HD
ENDBRANCH  30  42
BRANCH  32  44
ATOM     44  C   UNL     1       2.817  -7.723  25.293  0.00  0.00    +0.190 C 
BRANCH  44  45
ATOM     45  O   UNL     1       3.664  -7.911  24.160  0.00  0.00    -0.392 OA
ATOM     46  H   UNL     1       3.813  -8.873  24.090  0.00  0.00    +0.210 HD
ENDBRANCH  44  45
ENDBRANCH  32  44
ENDBRANCH  29  30
ENDBRANCH   5  29
BRANCH   1  47
ATOM     47  O   UNL     1       6.356   0.876  26.107  0.00  0.00    -0.428 OA
BRANCH  47  49
ATOM     48  C   UNL     1       5.177   3.052  26.253  0.00  0.00    +0.244 C 
ATOM     49  C   UNL     1       5.151   1.505  26.514  0.00  0.00    +0.367 C 
ATOM     50  O   UNL     1       4.947   1.300  27.918  0.00  0.00    -0.306 OA
ATOM     51  C   UNL     1       6.014   1.783  28.784  0.00  0.00    +0.181 C 
ATOM     52  C   UNL     1       6.332   3.275  28.551  0.00  0.00    +0.177 C 
ATOM     53  C   UNL     1       6.364   3.626  27.058  0.00  0.00    +0.192 C 
BRANCH  48  57
ATOM     54  C   UNL     1       4.953   7.108  26.625  0.00  0.00    +0.041 C 
ATOM     55  C   UNL     1       3.637   6.325  26.611  0.00  0.00    +0.150 C 
ATOM     56  O   UNL     1       3.747   4.999  27.180  0.00  0.00    -0.338 OA
ATOM     57  C   UNL     1       3.721   3.804  26.378  0.00  0.00    +0.238 C 
ATOM     58  C   UNL     1       2.775   4.002  25.166  0.00  0.00    +0.208 C 
ATOM     59  C   UNL     1       3.033   5.264  24.347  0.00  0.00    +0.179 C 
ATOM     60  C   UNL     1       2.922   6.486  25.249  0.00  0.00    +0.174 C 
BRANCH  60  61
ATOM     61  O   UNL     1       1.524   6.746  25.447  0.00  0.00    -0.387 OA
ATOM     62  H   UNL     1       1.376   7.110  26.337  0.00  0.00    +0.210 HD
ENDBRANCH  60  61
BRANCH  59  63
ATOM     63  O   UNL     1       4.259   5.232  23.655  0.00  0.00    -0.386 OA
ATOM     64  H   UNL     1       4.969   5.633  24.197  0.00  0.00    +0.210 HD
ENDBRANCH  59  63
BRANCH  58  65
ATOM     65  O   UNL     1       2.625   2.797  24.412  0.00  0.00    -0.384 OA
ATOM     66  H   UNL     1       1.860   2.302  24.763  0.00  0.00    +0.210 HD
ENDBRANCH  58  65
BRANCH  57  67
ATOM     67  O   UNL     1       2.988   2.830  27.212  0.00  0.00    -0.360 OA
ATOM     68  H   UNL     1       2.175   3.239  27.552  0.00  0.00    +0.213 HD
ENDBRANCH  57  67
ENDBRANCH  48  57
BRANCH  53  69
ATOM     69  O   UNL     1       6.568   5.035  26.869  0.00  0.00    -0.386 OA
ATOM     70  H   UNL     1       6.612   5.216  25.904  0.00  0.00    +0.210 HD
ENDBRANCH  53  69
BRANCH  52  71
ATOM     71  O   UNL     1       7.570   3.659  29.167  0.00  0.00    -0.386 OA
ATOM     72  H   UNL     1       8.274   3.174  28.685  0.00  0.00    +0.210 HD
ENDBRANCH  52  71
BRANCH  49  73
ATOM     73  O   UNL     1       4.158   0.964  25.664  0.00  0.00    -0.330 OA
ATOM     74  H   UNL     1       3.383   1.566  25.707  0.00  0.00    +0.216 HD
ENDBRANCH  49  73
BRANCH  48  75
ATOM     75  O   UNL     1       5.585   3.190  24.834  0.00  0.00    -0.374 OA
ATOM     76  H   UNL     1       6.555   3.040  24.847  0.00  0.00    +0.211 HD
ENDBRANCH  48  75
BRANCH  51  77
ATOM     77  C   UNL     1       7.293   0.931  28.832  0.00  0.00    +0.190 C 
BRANCH  77  78
ATOM     78  O   UNL     1       8.034   1.145  30.029  0.00  0.00    -0.392 OA
ATOM     79  H   UNL     1       7.422   1.624  30.633  0.00  0.00    +0.210 HD
ENDBRANCH  77  78
ENDBRANCH  51  77
ENDBRANCH  47  49
ENDBRANCH   1  47
TORSDOF 25
ENDMDL
MODEL 4
REMARK VINA RESULT:      -6.0      2.169      4.583
REMARK  Name = 
REMARK  26 active torsions:
REMARK  status: ('A' for Active; 'I' for Inactive)
REMARK    1  A    between atoms: C_1  and  C_2
REMARK    2  A    between atoms: C_4  and  O_66
REMARK    3  A    between atoms: C_6  and  O_65
REMARK    4  A    between atoms: C_8  and  O_64
REMARK    5  A    between atoms: C_10  and  C_12
REMARK    6  A    between atoms: C_10  and  O_63
REMARK    7  A    between atoms: C_12  and  O_62
REMARK    8  A    between atoms: C_13  and  O_61
REMARK    9  A    between atoms: C_14  and  O_60
REMARK   10  A    between atoms: C_15  and  C_58
REMARK   11  A    between atoms: C_17  and  O_18
REMARK   12  A    between atoms: C_17  and  O_19
REMARK   13  A    between atoms: O_19  and  C_20
REMARK   14  A    between atoms: C_21  and  C_50
REMARK   15  A    between atoms: C_27  and  O_37
REMARK   16  A    between atoms: C_29  and  O_36
REMARK   17  A    between atoms: O_37  and  C_38
REMARK   18  A    between atoms: C_38  and  O_49
REMARK   19  A    between atoms: C_39  and  O_48
REMARK   20  A    between atoms: C_40  and  O_47
REMARK   21  A    between atoms: C_41  and  O_46
REMARK   22  A    between atoms: C_42  and  C_44
REMARK   23  A    between atoms: C_44  and  O_45
REMARK   24  A    between atoms: C_52  and  O_57
REMARK   25  A    between atoms: C_53  and  O_56
REMARK   26  A    between atoms: C_58  and  O_59
REMARK                            x       y       z     vdW  Elec       q    Type
REMARK                         _______ _______ _______ _____ _____    ______ ____
ROOT
ATOM      1  C   UNL     1       4.771  -1.590  26.358  0.00  0.00    +0.216 A 
ATOM      2  C   UNL     1       5.042  -0.150  25.977  0.00  0.00    +0.239 A 
ATOM      3  O   UNL     1       4.920   0.344  24.867  0.00  0.00    -0.283 OA
ATOM      4  C   UNL     1       5.599   0.679  27.057  0.00  0.00    +0.117 A 
ATOM      5  C   UNL     1       6.422   1.803  26.863  0.00  0.00    +0.190 A 
ATOM      6  C   UNL     1       6.964   2.376  28.032  0.00  0.00    +0.247 A 
ATOM      7  O   UNL     1       6.612   3.731  28.206  0.00  0.00    -0.309 OA
ATOM      8  S   UNL     1       5.288   3.917  29.186  0.00  0.00    +0.300 S 
ATOM      9  O   UNL     1       4.311   4.688  28.443  0.00  0.00    -0.097 OA
ATOM     10  O   UNL     1       5.758   4.368  30.485  0.00  0.00    -0.097 OA
ATOM     11  O   UNL     1       4.683   2.364  29.413  0.00  0.00    -0.309 OA
ATOM     12  C   UNL     1       5.632   1.204  29.383  0.00  0.00    +0.247 A 
ATOM     13  C   UNL     1       6.896   1.705  29.240  0.00  0.00    +0.215 A 
ATOM     14  C   UNL     1       5.248   0.327  28.357  0.00  0.00    +0.191 A 
ATOM     15  O   UNL     1       4.715  -0.903  28.686  0.00  0.00    -0.447 OA
ATOM     16  C   UNL     1       4.676  -1.875  27.688  0.00  0.00    +0.181 A 
ENDROOT
BRANCH  16  17
ATOM     17  C   UNL     1       4.722  -3.317  28.139  0.00  0.00    +0.025 A 
ATOM     18  C   UNL     1       3.540  -4.079  28.324  0.00  0.00    +0.015 A 
ATOM     19  C   UNL     1       3.556  -5.480  28.393  0.00  0.00    +0.050 A 
ATOM     20  C   UNL     1       4.767  -6.138  28.363  0.00  0.00    +0.158 A 
ATOM     21  C   UNL     1       5.954  -5.416  28.274  0.00  0.00    +0.159 A 
ATOM     22  C   UNL     1       5.944  -4.017  28.160  0.00  0.00    +0.060 A 
BRANCH  21  23
ATOM     23  O   UNL     1       7.114  -6.144  28.254  0.00  0.00    -0.503 OA
ATOM     24  H   UNL     1       7.849  -5.550  28.025  0.00  0.00    +0.292 HD
ENDBRANCH  21  23
BRANCH  20  25
ATOM     25  O   UNL     1       4.784  -7.503  28.398  0.00  0.00    -0.503 OA
ATOM     26  H   UNL     1       5.632  -7.757  27.985  0.00  0.00    +0.292 HD
ENDBRANCH  20  25
ENDBRANCH  16  17
BRANCH  13  27
ATOM     27  O   UNL     1       7.579   2.236  30.300  0.00  0.00    -0.501 OA
ATOM     28  H   UNL     1       7.601   3.213  30.271  0.00  0.00    +0.292 HD
ENDBRANCH  13  27
BRANCH   5  29
ATOM     29  O   UNL     1       6.579   2.351  25.621  0.00  0.00    -0.432 OA
BRANCH  29  30
ATOM     30  C   UNL     1       7.922   2.591  25.137  0.00  0.00    +0.358 C 
ATOM     31  O   UNL     1       8.437   3.864  25.556  0.00  0.00    -0.307 OA
ATOM     32  C   UNL     1       7.647   4.980  25.100  0.00  0.00    +0.181 C 
ATOM     33  C   UNL     1       7.639   5.022  23.560  0.00  0.00    +0.177 C 
ATOM     34  C   UNL     1       7.067   3.707  23.020  0.00  0.00    +0.183 C 
ATOM     35  C   UNL     1       7.889   2.538  23.578  0.00  0.00    +0.249 C 
BRANCH  35  36
ATOM     36  O   UNL     1       7.402   1.259  23.129  0.00  0.00    -0.380 OA
ATOM     37  H   UNL     1       6.814   1.431  22.371  0.00  0.00    +0.210 HD
ENDBRANCH  35  36
BRANCH  34  38
ATOM     38  O   UNL     1       7.134   3.712  21.586  0.00  0.00    -0.386 OA
ATOM     39  H   UNL     1       7.091   4.656  21.325  0.00  0.00    +0.210 HD
ENDBRANCH  34  38
BRANCH  33  40
ATOM     40  O   UNL     1       8.955   5.130  22.984  0.00  0.00    -0.386 OA
ATOM     41  H   UNL     1       9.403   4.267  23.092  0.00  0.00    +0.210 HD
ENDBRANCH  33  40
BRANCH  30  42
ATOM     42  O   UNL     1       8.832   1.573  25.559  0.00  0.00    -0.331 OA
ATOM     43  H   UNL     1       9.555   2.037  26.018  0.00  0.00    +0.216 HD
ENDBRANCH  30  42
BRANCH  32  44
ATOM     44  C   UNL     1       8.234   6.251  25.731  0.00  0.00    +0.190 C 
BRANCH  44  45
ATOM     45  O   UNL     1       8.509   6.047  27.116  0.00  0.00    -0.392 OA
ATOM     46  H   UNL     1       7.688   5.689  27.505  0.00  0.00    +0.210 HD
ENDBRANCH  44  45
ENDBRANCH  32  44
ENDBRANCH  29  30
ENDBRANCH   5  29
BRANCH   1  47
ATOM     47  O   UNL     1       4.839  -2.661  25.473  0.00  0.00    -0.428 OA
BRANCH  47  49
ATOM     48  C   UNL     1       6.404  -2.957  23.573  0.00  0.00    +0.244 C 
ATOM     49  C   UNL     1       6.081  -3.226  25.085  0.00  0.00    +0.367 C 
ATOM     50  O   UNL     1       6.052  -4.646  25.282  0.00  0.00    -0.306 OA
ATOM     51  C   UNL     1       4.999  -5.356  24.568  0.00  0.00    +0.181 C 
ATOM     52  C   UNL     1       5.024  -5.075  23.051  0.00  0.00    +0.177 C 
ATOM     53  C   UNL     1       5.261  -3.591  22.748  0.00  0.00    +0.192 C 
BRANCH  48  57
ATOM     54  C   UNL     1       8.506  -0.295  21.306  0.00  0.00    +0.041 C 
ATOM     55  C   UNL     1       9.212  -1.591  21.713  0.00  0.00    +0.150 C 
ATOM     56  O   UNL     1       8.317  -2.721  21.847  0.00  0.00    -0.338 OA
ATOM     57  C   UNL     1       7.952  -3.277  23.123  0.00  0.00    +0.238 C 
ATOM     58  C   UNL     1       9.147  -3.171  24.106  0.00  0.00    +0.208 C 
ATOM     59  C   UNL     1       9.769  -1.782  24.216  0.00  0.00    +0.179 C 
ATOM     60  C   UNL     1      10.236  -1.325  22.841  0.00  0.00    +0.174 C 
BRANCH  60  61
ATOM     61  O   UNL     1      11.473  -1.996  22.563  0.00  0.00    -0.387 OA
ATOM     62  H   UNL     1      11.687  -1.920  21.617  0.00  0.00    +0.210 HD
ENDBRANCH  60  61
BRANCH  59  63
ATOM     63  O   UNL     1       8.915  -0.841  24.822  0.00  0.00    -0.386 OA
ATOM     64  H   UNL     1       9.434  -0.095  25.190  0.00  0.00    +0.210 HD
ENDBRANCH  59  63
BRANCH  58  65
ATOM     65  O   UNL     1       8.868  -3.823  25.347  0.00  0.00    -0.384 OA
ATOM     66  H   UNL     1       9.525  -4.532  25.483  0.00  0.00    +0.210 HD
ENDBRANCH  58  65
BRANCH  57  67
ATOM     67  O   UNL     1       7.862  -4.729  22.869  0.00  0.00    -0.360 OA
ATOM     68  H   UNL     1       8.182  -4.922  21.972  0.00  0.00    +0.213 HD
ENDBRANCH  57  67
ENDBRANCH  48  57
BRANCH  53  69
ATOM     69  O   UNL     1       5.373  -3.369  21.334  0.00  0.00    -0.386 OA
ATOM     70  H   UNL     1       4.485  -3.137  20.983  0.00  0.00    +0.210 HD
ENDBRANCH  53  69
BRANCH  52  71
ATOM     71  O   UNL     1       3.818  -5.515  22.408  0.00  0.00    -0.386 OA
ATOM     72  H   UNL     1       4.033  -6.374  21.988  0.00  0.00    +0.210 HD
ENDBRANCH  52  71
BRANCH  49  73
ATOM     73  O   UNL     1       7.048  -2.521  25.840  0.00  0.00    -0.330 OA
ATOM     74  H   UNL     1       7.386  -3.139  26.524  0.00  0.00    +0.216 HD
ENDBRANCH  49  73
BRANCH  48  75
ATOM     75  O   UNL     1       6.224  -1.495  23.401  0.00  0.00    -0.374 OA
ATOM     76  H   UNL     1       7.010  -1.216  22.881  0.00  0.00    +0.211 HD
ENDBRANCH  48  75
BRANCH  51  77
ATOM     77  C   UNL     1       3.579  -5.233  25.146  0.00  0.00    +0.190 C 
BRANCH  77  78
ATOM     78  O   UNL     1       2.861  -6.460  25.065  0.00  0.00    -0.392 OA
ATOM     79  H   UNL     1       2.541  -6.636  25.977  0.00  0.00    +0.210 HD
ENDBRANCH  77  78
ENDBRANCH  51  77
ENDBRANCH  47  49
ENDBRANCH   1  47
TORSDOF 25
ENDMDL
MODEL 5
REMARK VINA RESULT:      -5.9      2.465      9.720
REMARK  Name = 
REMARK  26 active torsions:
REMARK  status: ('A' for Active; 'I' for Inactive)
REMARK    1  A    between atoms: C_1  and  C_2
REMARK    2  A    between atoms: C_4  and  O_66
REMARK    3  A    between atoms: C_6  and  O_65
REMARK    4  A    between atoms: C_8  and  O_64
REMARK    5  A    between atoms: C_10  and  C_12
REMARK    6  A    between atoms: C_10  and  O_63
REMARK    7  A    between atoms: C_12  and  O_62
REMARK    8  A    between atoms: C_13  and  O_61
REMARK    9  A    between atoms: C_14  and  O_60
REMARK   10  A    between atoms: C_15  and  C_58
REMARK   11  A    between atoms: C_17  and  O_18
REMARK   12  A    between atoms: C_17  and  O_19
REMARK   13  A    between atoms: O_19  and  C_20
REMARK   14  A    between atoms: C_21  and  C_50
REMARK   15  A    between atoms: C_27  and  O_37
REMARK   16  A    between atoms: C_29  and  O_36
REMARK   17  A    between atoms: O_37  and  C_38
REMARK   18  A    between atoms: C_38  and  O_49
REMARK   19  A    between atoms: C_39  and  O_48
REMARK   20  A    between atoms: C_40  and  O_47
REMARK   21  A    between atoms: C_41  and  O_46
REMARK   22  A    between atoms: C_42  and  C_44
REMARK   23  A    between atoms: C_44  and  O_45
REMARK   24  A    between atoms: C_52  and  O_57
REMARK   25  A    between atoms: C_53  and  O_56
REMARK   26  A    between atoms: C_58  and  O_59
REMARK                            x       y       z     vdW  Elec       q    Type
REMARK                         _______ _______ _______ _____ _____    ______ ____
ROOT
ATOM      1  C   UNL     1       6.479   0.249  24.708  0.00  0.00    +0.216 A 
ATOM      2  C   UNL     1       5.650  -1.006  24.881  0.00  0.00    +0.239 A 
ATOM      3  O   UNL     1       4.513  -1.072  25.321  0.00  0.00    -0.283 OA
ATOM      4  C   UNL     1       6.355  -2.258  24.569  0.00  0.00    +0.117 A 
ATOM      5  C   UNL     1       6.058  -3.510  25.139  0.00  0.00    +0.190 A 
ATOM      6  C   UNL     1       6.941  -4.559  24.810  0.00  0.00    +0.247 A 
ATOM      7  O   UNL     1       6.306  -5.652  24.184  0.00  0.00    -0.309 OA
ATOM      8  S   UNL     1       6.395  -5.569  22.531  0.00  0.00    +0.300 S 
ATOM      9  O   UNL     1       5.039  -5.642  22.025  0.00  0.00    -0.097 OA
ATOM     10  O   UNL     1       7.403  -6.520  22.094  0.00  0.00    -0.097 OA
ATOM     11  O   UNL     1       7.009  -4.039  22.196  0.00  0.00    -0.309 OA
ATOM     12  C   UNL     1       7.932  -3.395  23.187  0.00  0.00    +0.247 A 
ATOM     13  C   UNL     1       8.151  -4.293  24.194  0.00  0.00    +0.215 A 
ATOM     14  C   UNL     1       7.366  -2.184  23.616  0.00  0.00    +0.191 A 
ATOM     15  O   UNL     1       7.945  -0.994  23.223  0.00  0.00    -0.447 OA
ATOM     16  C   UNL     1       7.597   0.154  23.932  0.00  0.00    +0.181 A 
ENDROOT
BRANCH  16  17
ATOM     17  C   UNL     1       8.621   1.266  23.975  0.00  0.00    +0.025 A 
ATOM     18  C   UNL     1       9.992   1.007  24.232  0.00  0.00    +0.015 A 
ATOM     19  C   UNL     1      10.997   1.940  23.935  0.00  0.00    +0.050 A 
ATOM     20  C   UNL     1      10.638   3.181  23.454  0.00  0.00    +0.158 A 
ATOM     21  C   UNL     1       9.295   3.501  23.276  0.00  0.00    +0.159 A 
ATOM     22  C   UNL     1       8.286   2.559  23.529  0.00  0.00    +0.060 A 
BRANCH  21  23
ATOM     23  O   UNL     1       9.022   4.755  22.798  0.00  0.00    -0.503 OA
ATOM     24  H   UNL     1       9.196   5.401  23.504  0.00  0.00    +0.292 HD
ENDBRANCH  21  23
BRANCH  20  25
ATOM     25  O   UNL     1      11.617   4.079  23.134  0.00  0.00    -0.503 OA
ATOM     26  H   UNL     1      11.372   4.898  23.608  0.00  0.00    +0.292 HD
ENDBRANCH  20  25
ENDBRANCH  16  17
BRANCH  13  27
ATOM     27  O   UNL     1       9.032  -5.329  24.049  0.00  0.00    -0.501 OA
ATOM     28  H   UNL     1       9.661  -5.384  24.796  0.00  0.00    +0.292 HD
ENDBRANCH  13  27
BRANCH   5  29
ATOM     29  O   UNL     1       4.917  -3.696  25.867  0.00  0.00    -0.432 OA
BRANCH  29  30
ATOM     30  C   UNL     1       3.669  -3.883  25.159  0.00  0.00    +0.358 C 
ATOM     31  O   UNL     1       2.709  -2.858  25.458  0.00  0.00    -0.307 OA
ATOM     32  C   UNL     1       2.364  -2.785  26.854  0.00  0.00    +0.181 C 
ATOM     33  C   UNL     1       1.711  -4.107  27.302  0.00  0.00    +0.177 C 
ATOM     34  C   UNL     1       2.685  -5.263  27.052  0.00  0.00    +0.183 C 
ATOM     35  C   UNL     1       3.084  -5.270  25.571  0.00  0.00    +0.249 C 
BRANCH  35  36
ATOM     36  O   UNL     1       4.016  -6.322  25.256  0.00  0.00    -0.380 OA
ATOM     37  H   UNL     1       3.961  -6.974  25.979  0.00  0.00    +0.210 HD
ENDBRANCH  35  36
BRANCH  34  38
ATOM     38  O   UNL     1       2.049  -6.504  27.393  0.00  0.00    -0.386 OA
ATOM     39  H   UNL     1       1.761  -6.404  28.325  0.00  0.00    +0.210 HD
ENDBRANCH  34  38
BRANCH  33  40
ATOM     40  O   UNL     1       0.524  -4.440  26.556  0.00  0.00    -0.386 OA
ATOM     41  H   UNL     1       0.266  -5.354  26.794  0.00  0.00    +0.210 HD
ENDBRANCH  33  40
BRANCH  30  42
ATOM     42  O   UNL     1       3.859  -3.927  23.744  0.00  0.00    -0.331 OA
ATOM     43  H   UNL     1       2.972  -4.049  23.360  0.00  0.00    +0.216 HD
ENDBRANCH  30  42
BRANCH  32  44
ATOM     44  C   UNL     1       1.444  -1.570  27.042  0.00  0.00    +0.190 C 
BRANCH  44  45
ATOM     45  O   UNL     1       2.158  -0.356  26.814  0.00  0.00    -0.392 OA
ATOM     46  H   UNL     1       2.645  -0.481  25.977  0.00  0.00    +0.210 HD
ENDBRANCH  44  45
ENDBRANCH  32  44
ENDBRANCH  29  30
ENDBRANCH   5  29
BRANCH   1  47
ATOM     47  O   UNL     1       6.311   1.409  25.456  0.00  0.00    -0.428 OA
BRANCH  47  49
ATOM     48  C   UNL     1       5.333   3.687  25.523  0.00  0.00    +0.244 C 
ATOM     49  C   UNL     1       5.094   2.139  25.431  0.00  0.00    +0.367 C 
ATOM     50  O   UNL     1       4.274   1.755  26.543  0.00  0.00    -0.306 OA
ATOM     51  C   UNL     1       4.875   1.938  27.857  0.00  0.00    +0.181 C 
ATOM     52  C   UNL     1       5.359   3.385  28.087  0.00  0.00    +0.177 C 
ATOM     53  C   UNL     1       6.074   3.951  26.854  0.00  0.00    +0.192 C 
BRANCH  48  57
ATOM     54  C   UNL     1       5.735   7.078  23.291  0.00  0.00    +0.041 C 
ATOM     55  C   UNL     1       4.330   6.715  23.780  0.00  0.00    +0.150 C 
ATOM     56  O   UNL     1       4.321   6.020  25.050  0.00  0.00    -0.338 OA
ATOM     57  C   UNL     1       4.026   4.617  25.167  0.00  0.00    +0.238 C 
ATOM     58  C   UNL     1       2.974   4.208  24.104  0.00  0.00    +0.208 C 
ATOM     59  C   UNL     1       3.303   4.631  22.676  0.00  0.00    +0.179 C 
ATOM     60  C   UNL     1       3.480   6.143  22.622  0.00  0.00    +0.174 C 
BRANCH  60  61
ATOM     61  O   UNL     1       2.169   6.728  22.628  0.00  0.00    -0.387 OA
ATOM     62  H   UNL     1       1.867   6.875  21.715  0.00  0.00    +0.210 HD
ENDBRANCH  60  61
BRANCH  59  63
ATOM     63  O   UNL     1       4.416   3.953  22.142  0.00  0.00    -0.386 OA
ATOM     64  H   UNL     1       5.166   4.570  22.017  0.00  0.00    +0.210 HD
ENDBRANCH  59  63
BRANCH  58  65
ATOM     65  O   UNL     1       2.561   2.849  24.266  0.00  0.00    -0.384 OA
ATOM     66  H   UNL     1       3.042   2.464  25.023  0.00  0.00    +0.210 HD
ENDBRANCH  58  65
BRANCH  57  67
ATOM     67  O   UNL     1       3.273   4.514  26.434  0.00  0.00    -0.360 OA
ATOM     68  H   UNL     1       2.782   5.338  26.588  0.00  0.00    +0.213 HD
ENDBRANCH  57  67
ENDBRANCH  48  57
BRANCH  53  69
ATOM     69  O   UNL     1       6.432   5.326  27.057  0.00  0.00    -0.386 OA
ATOM     70  H   UNL     1       6.959   5.392  27.883  0.00  0.00    +0.210 HD
ENDBRANCH  53  69
BRANCH  52  71
ATOM     71  O   UNL     1       6.217   3.484  29.233  0.00  0.00    -0.386 OA
ATOM     72  H   UNL     1       6.428   2.563  29.494  0.00  0.00    +0.210 HD
ENDBRANCH  52  71
BRANCH  49  73
ATOM     73  O   UNL     1       4.550   1.886  24.150  0.00  0.00    -0.330 OA
ATOM     74  H   UNL     1       5.153   2.299  23.494  0.00  0.00    +0.216 HD
ENDBRANCH  49  73
BRANCH  48  75
ATOM     75  O   UNL     1       6.338   3.978  24.471  0.00  0.00    -0.374 OA
ATOM     76  H   UNL     1       5.846   3.859  23.630  0.00  0.00    +0.211 HD
ENDBRANCH  48  75
BRANCH  51  77
ATOM     77  C   UNL     1       5.940   0.910  28.271  0.00  0.00    +0.190 C 
BRANCH  77  78
ATOM     78  O   UNL     1       5.512  -0.428  28.038  0.00  0.00    -0.392 OA
ATOM     79  H   UNL     1       4.534  -0.411  28.140  0.00  0.00    +0.210 HD
ENDBRANCH  77  78
ENDBRANCH  51  77
ENDBRANCH  47  49
ENDBRANCH   1  47
TORSDOF 25
ENDMDL
MODEL 6
REMARK VINA RESULT:      -5.7      1.741      3.872
REMARK  Name = 
REMARK  26 active torsions:
REMARK  status: ('A' for Active; 'I' for Inactive)
REMARK    1  A    between atoms: C_1  and  C_2
REMARK    2  A    between atoms: C_4  and  O_66
REMARK    3  A    between atoms: C_6  and  O_65
REMARK    4  A    between atoms: C_8  and  O_64
REMARK    5  A    between atoms: C_10  and  C_12
REMARK    6  A    between atoms: C_10  and  O_63
REMARK    7  A    between atoms: C_12  and  O_62
REMARK    8  A    between atoms: C_13  and  O_61
REMARK    9  A    between atoms: C_14  and  O_60
REMARK   10  A    between atoms: C_15  and  C_58
REMARK   11  A    between atoms: C_17  and  O_18
REMARK   12  A    between atoms: C_17  and  O_19
REMARK   13  A    between atoms: O_19  and  C_20
REMARK   14  A    between atoms: C_21  and  C_50
REMARK   15  A    between atoms: C_27  and  O_37
REMARK   16  A    between atoms: C_29  and  O_36
REMARK   17  A    between atoms: O_37  and  C_38
REMARK   18  A    between atoms: C_38  and  O_49
REMARK   19  A    between atoms: C_39  and  O_48
REMARK   20  A    between atoms: C_40  and  O_47
REMARK   21  A    between atoms: C_41  and  O_46
REMARK   22  A    between atoms: C_42  and  C_44
REMARK   23  A    between atoms: C_44  and  O_45
REMARK   24  A    between atoms: C_52  and  O_57
REMARK   25  A    between atoms: C_53  and  O_56
REMARK   26  A    between atoms: C_58  and  O_59
REMARK                            x       y       z     vdW  Elec       q    Type
REMARK                         _______ _______ _______ _____ _____    ______ ____
ROOT
ATOM      1  C   UNL     1       3.976  -0.708  26.786  0.00  0.00    +0.216 A 
ATOM      2  C   UNL     1       4.739   0.378  26.058  0.00  0.00    +0.239 A 
ATOM      3  O   UNL     1       4.830   0.517  24.849  0.00  0.00    -0.283 OA
ATOM      4  C   UNL     1       5.514   1.276  26.928  0.00  0.00    +0.117 A 
ATOM      5  C   UNL     1       6.680   1.960  26.541  0.00  0.00    +0.190 A 
ATOM      6  C   UNL     1       7.349   2.661  27.565  0.00  0.00    +0.247 A 
ATOM      7  O   UNL     1       7.482   4.042  27.305  0.00  0.00    -0.309 OA
ATOM      8  S   UNL     1       6.272   4.934  28.006  0.00  0.00    +0.300 S 
ATOM      9  O   UNL     1       5.646   5.708  26.953  0.00  0.00    -0.097 OA
ATOM     10  O   UNL     1       6.829   5.589  29.178  0.00  0.00    -0.097 OA
ATOM     11  O   UNL     1       5.162   3.805  28.574  0.00  0.00    -0.309 OA
ATOM     12  C   UNL     1       5.653   2.454  28.998  0.00  0.00    +0.247 A 
ATOM     13  C   UNL     1       7.016   2.455  28.892  0.00  0.00    +0.215 A 
ATOM     14  C   UNL     1       5.022   1.474  28.215  0.00  0.00    +0.191 A 
ATOM     15  O   UNL     1       4.088   0.644  28.801  0.00  0.00    -0.447 OA
ATOM     16  C   UNL     1       3.747  -0.523  28.118  0.00  0.00    +0.181 A 
ENDROOT
BRANCH  16  17
ATOM     17  C   UNL     1       3.278  -1.691  28.955  0.00  0.00    +0.025 A 
ATOM     18  C   UNL     1       1.908  -2.047  29.037  0.00  0.00    +0.015 A 
ATOM     19  C   UNL     1       1.489  -3.302  29.503  0.00  0.00    +0.050 A 
ATOM     20  C   UNL     1       2.431  -4.191  29.975  0.00  0.00    +0.158 A 
ATOM     21  C   UNL     1       3.777  -3.837  29.996  0.00  0.00    +0.159 A 
ATOM     22  C   UNL     1       4.209  -2.601  29.491  0.00  0.00    +0.060 A 
BRANCH  21  23
ATOM     23  O   UNL     1       4.650  -4.774  30.485  0.00  0.00    -0.503 OA
ATOM     24  H   UNL     1       5.535  -4.591  30.126  0.00  0.00    +0.292 HD
ENDBRANCH  21  23
BRANCH  20  25
ATOM     25  O   UNL     1       2.028  -5.425  30.400  0.00  0.00    -0.503 OA
ATOM     26  H   UNL     1       2.762  -6.026  30.165  0.00  0.00    +0.292 HD
ENDBRANCH  20  25
ENDBRANCH  16  17
BRANCH  13  27
ATOM     27  O   UNL     1       7.806   3.040  29.844  0.00  0.00    -0.501 OA
ATOM     28  H   UNL     1       7.356   3.098  30.710  0.00  0.00    +0.292 HD
ENDBRANCH  13  27
BRANCH   5  29
ATOM     29  O   UNL     1       7.055   2.018  25.228  0.00  0.00    -0.432 OA
BRANCH  29  30
ATOM     30  C   UNL     1       8.410   1.646  24.880  0.00  0.00    +0.358 C 
ATOM     31  O   UNL     1       9.302   2.770  24.866  0.00  0.00    -0.307 OA
ATOM     32  C   UNL     1       8.920   3.794  23.927  0.00  0.00    +0.181 C 
ATOM     33  C   UNL     1       8.947   3.226  22.495  0.00  0.00    +0.177 C 
ATOM     34  C   UNL     1       7.989   2.034  22.405  0.00  0.00    +0.183 C 
ATOM     35  C   UNL     1       8.382   0.995  23.463  0.00  0.00    +0.249 C 
BRANCH  35  36
ATOM     36  O   UNL     1       7.515  -0.156  23.456  0.00  0.00    -0.380 OA
ATOM     37  H   UNL     1       7.811  -0.728  22.723  0.00  0.00    +0.210 HD
ENDBRANCH  35  36
BRANCH  34  38
ATOM     38  O   UNL     1       8.072   1.453  21.095  0.00  0.00    -0.386 OA
ATOM     39  H   UNL     1       7.258   0.915  20.994  0.00  0.00    +0.210 HD
ENDBRANCH  34  38
BRANCH  33  40
ATOM     40  O   UNL     1      10.235   2.710  22.108  0.00  0.00    -0.386 OA
ATOM     41  H   UNL     1      10.090   2.002  21.448  0.00  0.00    +0.210 HD
ENDBRANCH  33  40
BRANCH  30  42
ATOM     42  O   UNL     1       8.938   0.660  25.770  0.00  0.00    -0.331 OA
ATOM     43  H   UNL     1       9.689   1.085  26.222  0.00  0.00    +0.216 HD
ENDBRANCH  30  42
BRANCH  32  44
ATOM     44  C   UNL     1       9.877   4.979  24.118  0.00  0.00    +0.190 C 
BRANCH  44  45
ATOM     45  O   UNL     1       9.940   5.773  22.934  0.00  0.00    -0.392 OA
ATOM     46  H   UNL     1      10.316   6.632  23.204  0.00  0.00    +0.210 HD
ENDBRANCH  44  45
ENDBRANCH  32  44
ENDBRANCH  29  30
ENDBRANCH   5  29
BRANCH   1  47
ATOM     47  O   UNL     1       3.698  -1.962  26.253  0.00  0.00    -0.428 OA
BRANCH  47  49
ATOM     48  C   UNL     1       5.221  -3.407  24.933  0.00  0.00    +0.244 C 
ATOM     49  C   UNL     1       4.631  -3.028  26.337  0.00  0.00    +0.367 C 
ATOM     50  O   UNL     1       3.990  -4.193  26.873  0.00  0.00    -0.306 OA
ATOM     51  C   UNL     1       2.835  -4.672  26.126  0.00  0.00    +0.181 C 
ATOM     52  C   UNL     1       3.161  -4.936  24.641  0.00  0.00    +0.177 C 
ATOM     53  C   UNL     1       4.030  -3.824  24.041  0.00  0.00    +0.192 C 
BRANCH  48  57
ATOM     54  C   UNL     1       8.352  -2.790  22.393  0.00  0.00    +0.041 C 
ATOM     55  C   UNL     1       8.455  -3.963  23.371  0.00  0.00    +0.150 C 
ATOM     56  O   UNL     1       7.177  -4.561  23.695  0.00  0.00    -0.338 OA
ATOM     57  C   UNL     1       6.539  -4.388  24.973  0.00  0.00    +0.238 C 
ATOM     58  C   UNL     1       7.610  -4.305  26.091  0.00  0.00    +0.208 C 
ATOM     59  C   UNL     1       8.726  -3.295  25.840  0.00  0.00    +0.179 C 
ATOM     60  C   UNL     1       9.424  -3.626  24.528  0.00  0.00    +0.174 C 
BRANCH  60  61
ATOM     61  O   UNL     1      10.306  -4.730  24.779  0.00  0.00    -0.387 OA
ATOM     62  H   UNL     1       9.793  -5.511  25.052  0.00  0.00    +0.210 HD
ENDBRANCH  60  61
BRANCH  59  63
ATOM     63  O   UNL     1       8.280  -1.959  25.876  0.00  0.00    -0.386 OA
ATOM     64  H   UNL     1       7.550  -1.859  26.522  0.00  0.00    +0.210 HD
ENDBRANCH  59  63
BRANCH  58  65
ATOM     65  O   UNL     1       7.014  -4.256  27.389  0.00  0.00    -0.384 OA
ATOM     66  H   UNL     1       7.684  -3.950  28.030  0.00  0.00    +0.210 HD
ENDBRANCH  58  65
BRANCH  57  67
ATOM     67  O   UNL     1       5.894  -5.692  25.230  0.00  0.00    -0.360 OA
ATOM     68  H   UNL     1       6.575  -6.374  25.349  0.00  0.00    +0.213 HD
ENDBRANCH  57  67
ENDBRANCH  48  57
BRANCH  53  69
ATOM     69  O   UNL     1       4.398  -4.136  22.689  0.00  0.00    -0.386 OA
ATOM     70  H   UNL     1       3.638  -3.927  22.102  0.00  0.00    +0.210 HD
ENDBRANCH  53  69
BRANCH  52  71
ATOM     71  O   UNL     1       1.972  -5.101  23.855  0.00  0.00    -0.386 OA
ATOM     72  H   UNL     1       1.916  -4.309  23.279  0.00  0.00    +0.210 HD
ENDBRANCH  52  71
BRANCH  49  73
ATOM     73  O   UNL     1       5.701  -2.509  27.103  0.00  0.00    -0.330 OA
ATOM     74  H   UNL     1       6.528  -2.704  26.610  0.00  0.00    +0.216 HD
ENDBRANCH  49  73
BRANCH  48  75
ATOM     75  O   UNL     1       5.688  -2.121  24.359  0.00  0.00    -0.374 OA
ATOM     76  H   UNL     1       5.773  -2.305  23.398  0.00  0.00    +0.211 HD
ENDBRANCH  48  75
BRANCH  51  77
ATOM     77  C   UNL     1       1.535  -3.867  26.288  0.00  0.00    +0.190 C 
BRANCH  77  78
ATOM     78  O   UNL     1       1.380  -2.891  25.264  0.00  0.00    -0.392 OA
ATOM     79  H   UNL     1       2.212  -2.366  25.275  0.00  0.00    +0.210 HD
ENDBRANCH  77  78
ENDBRANCH  51  77
ENDBRANCH  47  49
ENDBRANCH   1  47
TORSDOF 25
ENDMDL
MODEL 7
REMARK VINA RESULT:      -5.7      2.286      8.448
REMARK  Name = 
REMARK  26 active torsions:
REMARK  status: ('A' for Active; 'I' for Inactive)
REMARK    1  A    between atoms: C_1  and  C_2
REMARK    2  A    between atoms: C_4  and  O_66
REMARK    3  A    between atoms: C_6  and  O_65
REMARK    4  A    between atoms: C_8  and  O_64
REMARK    5  A    between atoms: C_10  and  C_12
REMARK    6  A    between atoms: C_10  and  O_63
REMARK    7  A    between atoms: C_12  and  O_62
REMARK    8  A    between atoms: C_13  and  O_61
REMARK    9  A    between atoms: C_14  and  O_60
REMARK   10  A    between atoms: C_15  and  C_58
REMARK   11  A    between atoms: C_17  and  O_18
REMARK   12  A    between atoms: C_17  and  O_19
REMARK   13  A    between atoms: O_19  and  C_20
REMARK   14  A    between atoms: C_21  and  C_50
REMARK   15  A    between atoms: C_27  and  O_37
REMARK   16  A    between atoms: C_29  and  O_36
REMARK   17  A    between atoms: O_37  and  C_38
REMARK   18  A    between atoms: C_38  and  O_49
REMARK   19  A    between atoms: C_39  and  O_48
REMARK   20  A    between atoms: C_40  and  O_47
REMARK   21  A    between atoms: C_41  and  O_46
REMARK   22  A    between atoms: C_42  and  C_44
REMARK   23  A    between atoms: C_44  and  O_45
REMARK   24  A    between atoms: C_52  and  O_57
REMARK   25  A    between atoms: C_53  and  O_56
REMARK   26  A    between atoms: C_58  and  O_59
REMARK                            x       y       z     vdW  Elec       q    Type
REMARK                         _______ _______ _______ _____ _____    ______ ____
ROOT
ATOM      1  C   UNL     1       4.840   1.246  27.354  0.00  0.00    +0.216 A 
ATOM      2  C   UNL     1       5.211  -0.221  27.395  0.00  0.00    +0.239 A 
ATOM      3  O   UNL     1       6.317  -0.697  27.197  0.00  0.00    -0.283 OA
ATOM      4  C   UNL     1       4.079  -1.138  27.599  0.00  0.00    +0.117 A 
ATOM      5  C   UNL     1       4.031  -2.469  27.144  0.00  0.00    +0.190 A 
ATOM      6  C   UNL     1       2.802  -3.134  27.322  0.00  0.00    +0.247 A 
ATOM      7  O   UNL     1       2.906  -4.307  28.101  0.00  0.00    -0.309 OA
ATOM      8  S   UNL     1       2.555  -4.034  29.698  0.00  0.00    +0.300 S 
ATOM      9  O   UNL     1       3.691  -4.495  30.470  0.00  0.00    -0.097 OA
ATOM     10  O   UNL     1       1.223  -4.557  29.953  0.00  0.00    -0.097 OA
ATOM     11  O   UNL     1       2.446  -2.362  29.850  0.00  0.00    -0.309 OA
ATOM     12  C   UNL     1       1.990  -1.555  28.671  0.00  0.00    +0.247 A 
ATOM     13  C   UNL     1       1.664  -2.429  27.671  0.00  0.00    +0.215 A 
ATOM     14  C   UNL     1       3.000  -0.644  28.325  0.00  0.00    +0.191 A 
ATOM     15  O   UNL     1       2.798   0.702  28.552  0.00  0.00    -0.447 OA
ATOM     16  C   UNL     1       3.636   1.598  27.891  0.00  0.00    +0.181 A 
ENDROOT
BRANCH  16  17
ATOM     17  C   UNL     1       3.075   2.972  27.604  0.00  0.00    +0.025 A 
ATOM     18  C   UNL     1       2.300   3.235  26.445  0.00  0.00    +0.015 A 
ATOM     19  C   UNL     1       1.489   4.373  26.330  0.00  0.00    +0.050 A 
ATOM     20  C   UNL     1       1.504   5.311  27.340  0.00  0.00    +0.158 A 
ATOM     21  C   UNL     1       2.323   5.130  28.451  0.00  0.00    +0.159 A 
ATOM     22  C   UNL     1       3.105   3.973  28.594  0.00  0.00    +0.060 A 
BRANCH  21  23
ATOM     23  O   UNL     1       2.284   6.110  29.407  0.00  0.00    -0.503 OA
ATOM     24  H   UNL     1       1.403   6.521  29.395  0.00  0.00    +0.292 HD
ENDBRANCH  21  23
BRANCH  20  25
ATOM     25  O   UNL     1       0.691   6.405  27.244  0.00  0.00    -0.503 OA
ATOM     26  H   UNL     1      -0.030   6.241  27.883  0.00  0.00    +0.292 HD
ENDBRANCH  20  25
ENDBRANCH  16  17
BRANCH  13  27
ATOM     27  O   UNL     1       0.473  -3.102  27.670  0.00  0.00    -0.501 OA
ATOM     28  H   UNL     1      -0.120  -2.800  28.386  0.00  0.00    +0.292 HD
ENDBRANCH  13  27
BRANCH   5  29
ATOM     29  O   UNL     1       5.153  -3.087  26.669  0.00  0.00    -0.432 OA
BRANCH  29  30
ATOM     30  C   UNL     1       5.242  -3.362  25.250  0.00  0.00    +0.358 C 
ATOM     31  O   UNL     1       4.632  -4.611  24.894  0.00  0.00    -0.307 OA
ATOM     32  C   UNL     1       5.225  -5.747  25.553  0.00  0.00    +0.181 C 
ATOM     33  C   UNL     1       6.705  -5.876  25.145  0.00  0.00    +0.177 C 
ATOM     34  C   UNL     1       7.448  -4.591  25.522  0.00  0.00    +0.183 C 
ATOM     35  C   UNL     1       6.751  -3.396  24.859  0.00  0.00    +0.249 C 
BRANCH  35  36
ATOM     36  O   UNL     1       7.382  -2.142  25.179  0.00  0.00    -0.380 OA
ATOM     37  H   UNL     1       6.871  -1.445  24.727  0.00  0.00    +0.210 HD
ENDBRANCH  35  36
BRANCH  34  38
ATOM     38  O   UNL     1       8.808  -4.677  25.070  0.00  0.00    -0.386 OA
ATOM     39  H   UNL     1       9.230  -3.837  25.349  0.00  0.00    +0.210 HD
ENDBRANCH  34  38
BRANCH  33  40
ATOM     40  O   UNL     1       6.895  -6.024  23.724  0.00  0.00    -0.386 OA
ATOM     41  H   UNL     1       6.937  -5.128  23.332  0.00  0.00    +0.210 HD
ENDBRANCH  33  40
BRANCH  30  42
ATOM     42  O   UNL     1       4.643  -2.327  24.468  0.00  0.00    -0.331 OA
ATOM     43  H   UNL     1       3.729  -2.618  24.297  0.00  0.00    +0.216 HD
ENDBRANCH  30  42
BRANCH  32  44
ATOM     44  C   UNL     1       4.393  -6.984  25.185  0.00  0.00    +0.190 C 
BRANCH  44  45
ATOM     45  O   UNL     1       4.384  -7.184  23.772  0.00  0.00    -0.392 OA
ATOM     46  H   UNL     1       5.012  -6.534  23.403  0.00  0.00    +0.210 HD
ENDBRANCH  44  45
ENDBRANCH  32  44
ENDBRANCH  29  30
ENDBRANCH   5  29
BRANCH   1  47
ATOM     47  O   UNL     1       5.523   2.207  26.617  0.00  0.00    -0.428 OA
BRANCH  47  49
ATOM     48  C   UNL     1       7.043   2.001  24.669  0.00  0.00    +0.244 C 
ATOM     49  C   UNL     1       5.574   2.158  25.200  0.00  0.00    +0.367 C 
ATOM     50  O   UNL     1       5.036   3.368  24.652  0.00  0.00    -0.306 OA
ATOM     51  C   UNL     1       5.694   4.596  25.078  0.00  0.00    +0.181 C 
ATOM     52  C   UNL     1       7.213   4.573  24.809  0.00  0.00    +0.177 C 
ATOM     53  C   UNL     1       7.840   3.223  25.179  0.00  0.00    +0.192 C 
BRANCH  48  57
ATOM     54  C   UNL     1      10.577   2.459  22.684  0.00  0.00    +0.041 C 
ATOM     55  C   UNL     1       9.388   1.909  21.893  0.00  0.00    +0.150 C 
ATOM     56  O   UNL     1       8.109   2.412  22.347  0.00  0.00    -0.338 OA
ATOM     57  C   UNL     1       7.170   1.603  23.080  0.00  0.00    +0.238 C 
ATOM     58  C   UNL     1       7.246   0.133  22.590  0.00  0.00    +0.208 C 
ATOM     59  C   UNL     1       8.649  -0.464  22.557  0.00  0.00    +0.179 C 
ATOM     60  C   UNL     1       9.542   0.388  21.663  0.00  0.00    +0.174 C 
BRANCH  60  61
ATOM     61  O   UNL     1       9.229   0.054  20.303  0.00  0.00    -0.387 OA
ATOM     62  H   UNL     1       8.390  -0.437  20.265  0.00  0.00    +0.210 HD
ENDBRANCH  60  61
BRANCH  59  63
ATOM     63  O   UNL     1       9.205  -0.641  23.838  0.00  0.00    -0.386 OA
ATOM     64  H   UNL     1       9.057   0.156  24.389  0.00  0.00    +0.210 HD
ENDBRANCH  59  63
BRANCH  58  65
ATOM     65  O   UNL     1       6.244  -0.679  23.205  0.00  0.00    -0.384 OA
ATOM     66  H   UNL     1       6.610  -1.059  24.027  0.00  0.00    +0.210 HD
ENDBRANCH  58  65
BRANCH  57  67
ATOM     67  O   UNL     1       5.852   2.048  22.586  0.00  0.00    -0.360 OA
ATOM     68  H   UNL     1       5.951   2.886  22.105  0.00  0.00    +0.213 HD
ENDBRANCH  57  67
ENDBRANCH  48  57
BRANCH  53  69
ATOM     69  O   UNL     1       9.233   3.194  24.834  0.00  0.00    -0.386 OA
ATOM     70  H   UNL     1       9.613   2.343  25.144  0.00  0.00    +0.210 HD
ENDBRANCH  53  69
BRANCH  52  71
ATOM     71  O   UNL     1       7.893   5.630  25.503  0.00  0.00    -0.386 OA
ATOM     72  H   UNL     1       8.762   5.263  25.771  0.00  0.00    +0.210 HD
ENDBRANCH  52  71
BRANCH  49  73
ATOM     73  O   UNL     1       4.888   0.969  24.856  0.00  0.00    -0.330 OA
ATOM     74  H   UNL     1       4.598   1.064  23.923  0.00  0.00    +0.216 HD
ENDBRANCH  49  73
BRANCH  48  75
ATOM     75  O   UNL     1       7.598   0.851  25.423  0.00  0.00    -0.374 OA
ATOM     76  H   UNL     1       6.820   0.276  25.591  0.00  0.00    +0.211 HD
ENDBRANCH  48  75
BRANCH  51  77
ATOM     77  C   UNL     1       5.377   5.084  26.501  0.00  0.00    +0.190 C 
BRANCH  77  78
ATOM     78  O   UNL     1       5.562   6.488  26.639  0.00  0.00    -0.392 OA
ATOM     79  H   UNL     1       5.290   6.874  25.776  0.00  0.00    +0.210 HD
ENDBRANCH  77  78
ENDBRANCH  51  77
ENDBRANCH  47  49
ENDBRANCH   1  47
TORSDOF 25
ENDMDL
MODEL 8
REMARK VINA RESULT:      -5.5      2.384      9.930
REMARK  Name = 
REMARK  26 active torsions:
REMARK  status: ('A' for Active; 'I' for Inactive)
REMARK    1  A    between atoms: C_1  and  C_2
REMARK    2  A    between atoms: C_4  and  O_66
REMARK    3  A    between atoms: C_6  and  O_65
REMARK    4  A    between atoms: C_8  and  O_64
REMARK    5  A    between atoms: C_10  and  C_12
REMARK    6  A    between atoms: C_10  and  O_63
REMARK    7  A    between atoms: C_12  and  O_62
REMARK    8  A    between atoms: C_13  and  O_61
REMARK    9  A    between atoms: C_14  and  O_60
REMARK   10  A    between atoms: C_15  and  C_58
REMARK   11  A    between atoms: C_17  and  O_18
REMARK   12  A    between atoms: C_17  and  O_19
REMARK   13  A    between atoms: O_19  and  C_20
REMARK   14  A    between atoms: C_21  and  C_50
REMARK   15  A    between atoms: C_27  and  O_37
REMARK   16  A    between atoms: C_29  and  O_36
REMARK   17  A    between atoms: O_37  and  C_38
REMARK   18  A    between atoms: C_38  and  O_49
REMARK   19  A    between atoms: C_39  and  O_48
REMARK   20  A    between atoms: C_40  and  O_47
REMARK   21  A    between atoms: C_41  and  O_46
REMARK   22  A    between atoms: C_42  and  C_44
REMARK   23  A    between atoms: C_44  and  O_45
REMARK   24  A    between atoms: C_52  and  O_57
REMARK   25  A    between atoms: C_53  and  O_56
REMARK   26  A    between atoms: C_58  and  O_59
REMARK                            x       y       z     vdW  Elec       q    Type
REMARK                         _______ _______ _______ _____ _____    ______ ____
ROOT
ATOM      1  C   UNL     1       6.513   0.231  25.001  0.00  0.00    +0.216 A 
ATOM      2  C   UNL     1       5.676  -1.014  25.208  0.00  0.00    +0.239 A 
ATOM      3  O   UNL     1       4.601  -1.080  25.781  0.00  0.00    -0.283 OA
ATOM      4  C   UNL     1       6.303  -2.262  24.745  0.00  0.00    +0.117 A 
ATOM      5  C   UNL     1       6.043  -3.537  25.279  0.00  0.00    +0.190 A 
ATOM      6  C   UNL     1       6.849  -4.584  24.788  0.00  0.00    +0.247 A 
ATOM      7  O   UNL     1       6.111  -5.627  24.188  0.00  0.00    -0.309 OA
ATOM      8  S   UNL     1       6.000  -5.452  22.543  0.00  0.00    +0.300 S 
ATOM      9  O   UNL     1       4.590  -5.468  22.206  0.00  0.00    -0.097 OA
ATOM     10  O   UNL     1       6.920  -6.399  21.935  0.00  0.00    -0.097 OA
ATOM     11  O   UNL     1       6.611  -3.919  22.217  0.00  0.00    -0.309 OA
ATOM     12  C   UNL     1       7.666  -3.352  23.119  0.00  0.00    +0.247 A 
ATOM     13  C   UNL     1       7.981  -4.309  24.043  0.00  0.00    +0.215 A 
ATOM     14  C   UNL     1       7.191  -2.155  23.679  0.00  0.00    +0.191 A 
ATOM     15  O   UNL     1       7.750  -0.958  23.282  0.00  0.00    -0.447 OA
ATOM     16  C   UNL     1       7.524   0.156  24.088  0.00  0.00    +0.181 A 
ENDROOT
BRANCH  16  17
ATOM     17  C   UNL     1       8.576   1.241  24.063  0.00  0.00    +0.025 A 
ATOM     18  C   UNL     1       9.950   0.953  24.267  0.00  0.00    +0.015 A 
ATOM     19  C   UNL     1      10.964   1.852  23.907  0.00  0.00    +0.050 A 
ATOM     20  C   UNL     1      10.616   3.093  23.415  0.00  0.00    +0.158 A 
ATOM     21  C   UNL     1       9.275   3.444  23.289  0.00  0.00    +0.159 A 
ATOM     22  C   UNL     1       8.255   2.533  23.605  0.00  0.00    +0.060 A 
BRANCH  21  23
ATOM     23  O   UNL     1       9.012   4.695  22.797  0.00  0.00    -0.503 OA
ATOM     24  H   UNL     1       8.932   4.638  21.830  0.00  0.00    +0.292 HD
ENDBRANCH  21  23
BRANCH  20  25
ATOM     25  O   UNL     1      11.601   3.959  23.035  0.00  0.00    -0.503 OA
ATOM     26  H   UNL     1      12.438   3.486  23.216  0.00  0.00    +0.292 HD
ENDBRANCH  20  25
ENDBRANCH  16  17
BRANCH  13  27
ATOM     27  O   UNL     1       8.808  -5.355  23.734  0.00  0.00    -0.501 OA
ATOM     28  H   UNL     1       9.397  -5.148  22.981  0.00  0.00    +0.292 HD
ENDBRANCH  13  27
BRANCH   5  29
ATOM     29  O   UNL     1       4.995  -3.739  26.132  0.00  0.00    -0.432 OA
BRANCH  29  30
ATOM     30  C   UNL     1       5.143  -4.717  27.190  0.00  0.00    +0.358 C 
ATOM     31  O   UNL     1       4.883  -6.055  26.740  0.00  0.00    -0.307 OA
ATOM     32  C   UNL     1       3.552  -6.236  26.219  0.00  0.00    +0.181 C 
ATOM     33  C   UNL     1       2.515  -5.961  27.325  0.00  0.00    +0.177 C 
ATOM     34  C   UNL     1       2.695  -4.531  27.844  0.00  0.00    +0.183 C 
ATOM     35  C   UNL     1       4.140  -4.353  28.328  0.00  0.00    +0.249 C 
BRANCH  35  36
ATOM     36  O   UNL     1       4.398  -3.023  28.818  0.00  0.00    -0.380 OA
ATOM     37  H   UNL     1       4.739  -3.118  29.727  0.00  0.00    +0.210 HD
ENDBRANCH  35  36
BRANCH  34  38
ATOM     38  O   UNL     1       1.785  -4.299  28.930  0.00  0.00    -0.386 OA
ATOM     39  H   UNL     1       1.223  -5.102  28.976  0.00  0.00    +0.210 HD
ENDBRANCH  34  38
BRANCH  33  40
ATOM     40  O   UNL     1       2.672  -6.808  28.480  0.00  0.00    -0.386 OA
ATOM     41  H   UNL     1       3.524  -7.280  28.393  0.00  0.00    +0.210 HD
ENDBRANCH  33  40
BRANCH  30  42
ATOM     42  O   UNL     1       6.448  -4.680  27.771  0.00  0.00    -0.331 OA
ATOM     43  H   UNL     1       6.999  -4.163  27.156  0.00  0.00    +0.216 HD
ENDBRANCH  30  42
BRANCH  32  44
ATOM     44  C   UNL     1       3.464  -7.663  25.659  0.00  0.00    +0.190 C 
BRANCH  44  45
ATOM     45  O   UNL     1       3.919  -7.703  24.307  0.00  0.00    -0.392 OA
ATOM     46  H   UNL     1       4.592  -7.000  24.227  0.00  0.00    +0.210 HD
ENDBRANCH  44  45
ENDBRANCH  32  44
ENDBRANCH  29  30
ENDBRANCH   5  29
BRANCH   1  47
ATOM     47  O   UNL     1       6.470   1.350  25.825  0.00  0.00    -0.428 OA
BRANCH  47  49
ATOM     48  C   UNL     1       5.284   3.504  26.142  0.00  0.00    +0.244 C 
ATOM     49  C   UNL     1       5.239   1.937  26.216  0.00  0.00    +0.367 C 
ATOM     50  O   UNL     1       4.934   1.570  27.568  0.00  0.00    -0.306 OA
ATOM     51  C   UNL     1       5.935   1.938  28.559  0.00  0.00    +0.181 C 
ATOM     52  C   UNL     1       6.270   3.445  28.527  0.00  0.00    +0.177 C 
ATOM     53  C   UNL     1       6.410   3.969  27.092  0.00  0.00    +0.192 C 
BRANCH  48  57
ATOM     54  C   UNL     1       2.881   2.916  29.386  0.00  0.00    +0.041 C 
ATOM     55  C   UNL     1       2.368   3.847  28.285  0.00  0.00    +0.150 C 
ATOM     56  O   UNL     1       2.830   3.488  26.961  0.00  0.00    -0.338 OA
ATOM     57  C   UNL     1       3.823   4.249  26.250  0.00  0.00    +0.238 C 
ATOM     58  C   UNL     1       3.675   5.755  26.588  0.00  0.00    +0.208 C 
ATOM     59  C   UNL     1       3.629   6.079  28.078  0.00  0.00    +0.179 C 
ATOM     60  C   UNL     1       2.475   5.325  28.726  0.00  0.00    +0.174 C 
BRANCH  60  61
ATOM     61  O   UNL     1       1.268   6.032  28.405  0.00  0.00    -0.387 OA
ATOM     62  H   UNL     1       1.483   6.902  28.025  0.00  0.00    +0.210 HD
ENDBRANCH  60  61
BRANCH  59  63
ATOM     63  O   UNL     1       4.851   5.835  28.735  0.00  0.00    -0.386 OA
ATOM     64  H   UNL     1       5.551   6.426  28.387  0.00  0.00    +0.210 HD
ENDBRANCH  59  63
BRANCH  58  65
ATOM     65  O   UNL     1       4.563   6.560  25.809  0.00  0.00    -0.384 OA
ATOM     66  H   UNL     1       4.033   7.154  25.244  0.00  0.00    +0.210 HD
ENDBRANCH  58  65
BRANCH  57  67
ATOM     67  O   UNL     1       3.384   4.183  24.841  0.00  0.00    -0.360 OA
ATOM     68  H   UNL     1       2.603   4.746  24.717  0.00  0.00    +0.213 HD
ENDBRANCH  57  67
ENDBRANCH  48  57
BRANCH  53  69
ATOM     69  O   UNL     1       6.628   5.388  27.085  0.00  0.00    -0.386 OA
ATOM     70  H   UNL     1       6.626   5.699  26.154  0.00  0.00    +0.210 HD
ENDBRANCH  53  69
BRANCH  52  71
ATOM     71  O   UNL     1       7.460   3.742  29.271  0.00  0.00    -0.386 OA
ATOM     72  H   UNL     1       7.255   3.531  30.206  0.00  0.00    +0.210 HD
ENDBRANCH  52  71
BRANCH  49  73
ATOM     73  O   UNL     1       4.310   1.509  25.238  0.00  0.00    -0.330 OA
ATOM     74  H   UNL     1       4.589   1.904  24.384  0.00  0.00    +0.216 HD
ENDBRANCH  49  73
BRANCH  48  75
ATOM     75  O   UNL     1       5.794   3.805  24.782  0.00  0.00    -0.374 OA
ATOM     76  H   UNL     1       4.985   3.843  24.225  0.00  0.00    +0.211 HD
ENDBRANCH  48  75
BRANCH  51  77
ATOM     77  C   UNL     1       7.207   1.075  28.598  0.00  0.00    +0.190 C 
BRANCH  77  78
ATOM     78  O   UNL     1       7.861   1.144  29.861  0.00  0.00    -0.392 OA
ATOM     79  H   UNL     1       7.240   0.729  30.500  0.00  0.00    +0.210 HD
ENDBRANCH  77  78
ENDBRANCH  51  77
ENDBRANCH  47  49
ENDBRANCH   1  47
TORSDOF 25
ENDMDL
MODEL 9
REMARK VINA RESULT:      -5.4      2.133      5.595
REMARK  Name = 
REMARK  26 active torsions:
REMARK  status: ('A' for Active; 'I' for Inactive)
REMARK    1  A    between atoms: C_1  and  C_2
REMARK    2  A    between atoms: C_4  and  O_66
REMARK    3  A    between atoms: C_6  and  O_65
REMARK    4  A    between atoms: C_8  and  O_64
REMARK    5  A    between atoms: C_10  and  C_12
REMARK    6  A    between atoms: C_10  and  O_63
REMARK    7  A    between atoms: C_12  and  O_62
REMARK    8  A    between atoms: C_13  and  O_61
REMARK    9  A    between atoms: C_14  and  O_60
REMARK   10  A    between atoms: C_15  and  C_58
REMARK   11  A    between atoms: C_17  and  O_18
REMARK   12  A    between atoms: C_17  and  O_19
REMARK   13  A    between atoms: O_19  and  C_20
REMARK   14  A    between atoms: C_21  and  C_50
REMARK   15  A    between atoms: C_27  and  O_37
REMARK   16  A    between atoms: C_29  and  O_36
REMARK   17  A    between atoms: O_37  and  C_38
REMARK   18  A    between atoms: C_38  and  O_49
REMARK   19  A    between atoms: C_39  and  O_48
REMARK   20  A    between atoms: C_40  and  O_47
REMARK   21  A    between atoms: C_41  and  O_46
REMARK   22  A    between atoms: C_42  and  C_44
REMARK   23  A    between atoms: C_44  and  O_45
REMARK   24  A    between atoms: C_52  and  O_57
REMARK   25  A    between atoms: C_53  and  O_56
REMARK   26  A    between atoms: C_58  and  O_59
REMARK                            x       y       z     vdW  Elec       q    Type
REMARK                         _______ _______ _______ _____ _____    ______ ____
ROOT
ATOM      1  C   UNL     1       5.670  -1.500  25.213  0.00  0.00    +0.216 A 
ATOM      2  C   UNL     1       6.020  -0.032  25.339  0.00  0.00    +0.239 A 
ATOM      3  O   UNL     1       5.649   0.732  26.215  0.00  0.00    -0.283 OA
ATOM      4  C   UNL     1       6.808   0.512  24.222  0.00  0.00    +0.117 A 
ATOM      5  C   UNL     1       6.792   1.856  23.808  0.00  0.00    +0.190 A 
ATOM      6  C   UNL     1       7.512   2.145  22.630  0.00  0.00    +0.247 A 
ATOM      7  O   UNL     1       8.528   3.106  22.815  0.00  0.00    -0.309 OA
ATOM      8  S   UNL     1      10.007   2.412  23.096  0.00  0.00    +0.300 S 
ATOM      9  O   UNL     1      10.505   2.956  24.344  0.00  0.00    -0.097 OA
ATOM     10  O   UNL     1      10.787   2.524  21.874  0.00  0.00    -0.097 OA
ATOM     11  O   UNL     1       9.695   0.773  23.312  0.00  0.00    -0.309 OA
ATOM     12  C   UNL     1       8.525   0.158  22.605  0.00  0.00    +0.247 A 
ATOM     13  C   UNL     1       7.964   1.123  21.815  0.00  0.00    +0.215 A 
ATOM     14  C   UNL     1       7.647  -0.379  23.558  0.00  0.00    +0.191 A 
ATOM     15  O   UNL     1       7.525  -1.749  23.664  0.00  0.00    -0.447 OA
ATOM     16  C   UNL     1       6.415  -2.245  24.346  0.00  0.00    +0.181 A 
ENDROOT
BRANCH  16  17
ATOM     17  C   UNL     1       5.924  -3.617  23.944  0.00  0.00    +0.025 A 
ATOM     18  C   UNL     1       6.602  -4.798  24.341  0.00  0.00    +0.015 A 
ATOM     19  C   UNL     1       5.995  -6.062  24.289  0.00  0.00    +0.050 A 
ATOM     20  C   UNL     1       4.727  -6.175  23.760  0.00  0.00    +0.158 A 
ATOM     21  C   UNL     1       4.068  -5.048  23.275  0.00  0.00    +0.159 A 
ATOM     22  C   UNL     1       4.651  -3.775  23.364  0.00  0.00    +0.060 A 
BRANCH  21  23
ATOM     23  O   UNL     1       2.814  -5.246  22.761  0.00  0.00    -0.503 OA
ATOM     24  H   UNL     1       2.894  -5.752  21.935  0.00  0.00    +0.292 HD
ENDBRANCH  21  23
BRANCH  20  25
ATOM     25  O   UNL     1       4.123  -7.400  23.737  0.00  0.00    -0.503 OA
ATOM     26  H   UNL     1       4.081  -7.644  22.792  0.00  0.00    +0.292 HD
ENDBRANCH  20  25
ENDBRANCH  16  17
BRANCH  13  27
ATOM     27  O   UNL     1       8.511   1.467  20.609  0.00  0.00    -0.501 OA
ATOM     28  H   UNL     1       8.189   2.335  20.293  0.00  0.00    +0.292 HD
ENDBRANCH  13  27
BRANCH   5  29
ATOM     29  O   UNL     1       6.204   2.820  24.578  0.00  0.00    -0.432 OA
BRANCH  29  30
ATOM     30  C   UNL     1       5.004   3.462  24.084  0.00  0.00    +0.358 C 
ATOM     31  O   UNL     1       5.277   4.401  23.034  0.00  0.00    -0.307 OA
ATOM     32  C   UNL     1       6.160   5.468  23.433  0.00  0.00    +0.181 C 
ATOM     33  C   UNL     1       5.512   6.288  24.565  0.00  0.00    +0.177 C 
ATOM     34  C   UNL     1       5.216   5.367  25.752  0.00  0.00    +0.183 C 
ATOM     35  C   UNL     1       4.330   4.207  25.278  0.00  0.00    +0.249 C 
BRANCH  35  36
ATOM     36  O   UNL     1       4.019   3.282  26.337  0.00  0.00    -0.380 OA
ATOM     37  H   UNL     1       3.691   2.468  25.913  0.00  0.00    +0.210 HD
ENDBRANCH  35  36
BRANCH  34  38
ATOM     38  O   UNL     1       4.538   6.112  26.776  0.00  0.00    -0.386 OA
ATOM     39  H   UNL     1       4.536   7.041  26.465  0.00  0.00    +0.210 HD
ENDBRANCH  34  38
BRANCH  33  40
ATOM     40  O   UNL     1       4.241   6.861  24.200  0.00  0.00    -0.386 OA
ATOM     41  H   UNL     1       3.556   6.172  24.317  0.00  0.00    +0.210 HD
ENDBRANCH  33  40
BRANCH  30  42
ATOM     42  O   UNL     1       4.049   2.513  23.607  0.00  0.00    -0.331 OA
ATOM     43  H   UNL     1       4.016   1.808  24.278  0.00  0.00    +0.216 HD
ENDBRANCH  30  42
BRANCH  32  44
ATOM     44  C   UNL     1       6.466   6.308  22.185  0.00  0.00    +0.190 C 
BRANCH  44  45
ATOM     45  O   UNL     1       7.742   5.964  21.645  0.00  0.00    -0.392 OA
ATOM     46  H   UNL     1       7.972   5.096  22.027  0.00  0.00    +0.210 HD
ENDBRANCH  44  45
ENDBRANCH  32  44
ENDBRANCH  29  30
ENDBRANCH   5  29
BRANCH   1  47
ATOM     47  O   UNL     1       4.519  -2.078  25.735  0.00  0.00    -0.428 OA
BRANCH  47  49
ATOM     48  C   UNL     1       3.430  -3.728  27.232  0.00  0.00    +0.244 C 
ATOM     49  C   UNL     1       4.472  -2.566  27.067  0.00  0.00    +0.367 C 
ATOM     50  O   UNL     1       4.095  -1.508  27.959  0.00  0.00    -0.306 OA
ATOM     51  C   UNL     1       2.815  -0.874  27.673  0.00  0.00    +0.181 C 
ATOM     52  C   UNL     1       1.656  -1.890  27.606  0.00  0.00    +0.177 C 
ATOM     53  C   UNL     1       2.050  -3.156  26.836  0.00  0.00    +0.192 C 
BRANCH  48  57
ATOM     54  C   UNL     1       0.498  -6.341  28.335  0.00  0.00    +0.041 C 
ATOM     55  C   UNL     1       1.693  -6.179  29.278  0.00  0.00    +0.150 C 
ATOM     56  O   UNL     1       2.274  -4.854  29.255  0.00  0.00    -0.338 OA
ATOM     57  C   UNL     1       3.543  -4.571  28.638  0.00  0.00    +0.238 C 
ATOM     58  C   UNL     1       4.496  -5.782  28.812  0.00  0.00    +0.208 C 
ATOM     59  C   UNL     1       3.912  -7.127  28.387  0.00  0.00    +0.179 C 
ATOM     60  C   UNL     1       2.639  -7.399  29.176  0.00  0.00    +0.174 C 
BRANCH  60  61
ATOM     61  O   UNL     1       3.031  -7.839  30.485  0.00  0.00    -0.387 OA
ATOM     62  H   UNL     1       3.825  -8.398  30.424  0.00  0.00    +0.210 HD
ENDBRANCH  60  61
BRANCH  59  63
ATOM     63  O   UNL     1       3.702  -7.223  26.998  0.00  0.00    -0.386 OA
ATOM     64  H   UNL     1       3.599  -8.161  26.732  0.00  0.00    +0.210 HD
ENDBRANCH  59  63
BRANCH  58  65
ATOM     65  O   UNL     1       5.807  -5.496  28.322  0.00  0.00    -0.384 OA
ATOM     66  H   UNL     1       6.440  -6.110  28.742  0.00  0.00    +0.210 HD
ENDBRANCH  58  65
BRANCH  57  67
ATOM     67  O   UNL     1       4.147  -3.548  29.516  0.00  0.00    -0.360 OA
ATOM     68  H   UNL     1       3.892  -2.663  29.207  0.00  0.00    +0.213 HD
ENDBRANCH  57  67
ENDBRANCH  48  57
BRANCH  53  69
ATOM     69  O   UNL     1       0.989  -4.124  26.866  0.00  0.00    -0.386 OA
ATOM     70  H   UNL     1       1.365  -5.005  26.647  0.00  0.00    +0.210 HD
ENDBRANCH  53  69
BRANCH  52  71
ATOM     71  O   UNL     1       0.476  -1.315  27.023  0.00  0.00    -0.386 OA
ATOM     72  H   UNL     1      -0.067  -0.995  27.774  0.00  0.00    +0.210 HD
ENDBRANCH  52  71
BRANCH  49  73
ATOM     73  O   UNL     1       5.750  -3.130  27.289  0.00  0.00    -0.330 OA
ATOM     74  H   UNL     1       5.611  -4.071  27.533  0.00  0.00    +0.216 HD
ENDBRANCH  49  73
BRANCH  48  75
ATOM     75  O   UNL     1       3.761  -4.690  26.153  0.00  0.00    -0.374 OA
ATOM     76  H   UNL     1       4.540  -4.292  25.707  0.00  0.00    +0.211 HD
ENDBRANCH  48  75
BRANCH  51  77
ATOM     77  C   UNL     1       2.786   0.101  26.485  0.00  0.00    +0.190 C 
BRANCH  77  78
ATOM     78  O   UNL     1       1.953   1.227  26.737  0.00  0.00    -0.392 OA
ATOM     79  H   UNL     1       1.570   1.075  27.630  0.00  0.00    +0.210 HD
ENDBRANCH  77  78
ENDBRANCH  51  77
ENDBRANCH  47  49
ENDBRANCH   1  47
TORSDOF 25
ENDMDL
