MODEL 1
REMARK VINA RESULT:      -7.4      0.000      0.000
REMARK  Name = 
REMARK  13 active torsions:
REMARK  status: ('A' for Active; 'I' for Inactive)
REMARK    1  A    between atoms: C_3  and  O_38
REMARK    2  A    between atoms: C_4  and  O_37
REMARK    3  A    between atoms: C_6  and  C_7
REMARK    4  A    between atoms: C_8  and  O_36
REMARK    5  A    between atoms: C_15  and  O_35
REMARK    6  A    between atoms: C_16  and  C_19
REMARK    7  A    between atoms: C_17  and  O_18
REMARK    8  A    between atoms: C_19  and  O_34
REMARK    9  A    between atoms: C_20  and  O_33
REMARK   10  A    between atoms: C_22  and  O_32
REMARK   11  A    between atoms: C_24  and  O_31
REMARK   12  A    between atoms: C_26  and  C_29
REMARK   13  A    between atoms: C_29  and  O_30
REMARK                            x       y       z     vdW  Elec       q    Type
REMARK                         _______ _______ _______ _____ _____    ______ ____
ROOT
ATOM      1  C   UNL     1       8.894  -1.521  24.472  0.00  0.00    +0.181 A 
ATOM      2  O   UNL     1       7.778  -1.359  25.304  0.00  0.00    -0.451 OA
ATOM      3  C   UNL     1       7.206  -2.474  25.880  0.00  0.00    +0.147 A 
ATOM      4  C   UNL     1       6.138  -2.299  26.784  0.00  0.00    +0.093 A 
ATOM      5  C   UNL     1       5.490  -3.408  27.371  0.00  0.00    +0.132 A 
ATOM      6  C   UNL     1       5.896  -4.714  27.092  0.00  0.00    +0.097 A 
ATOM      7  C   UNL     1       7.014  -4.854  26.212  0.00  0.00    +0.143 A 
ATOM      8  C   UNL     1       7.643  -3.762  25.604  0.00  0.00    +0.110 A 
ATOM      9  C   UNL     1       8.780  -3.949  24.681  0.00  0.00    +0.238 A 
ATOM     10  O   UNL     1       9.219  -5.042  24.335  0.00  0.00    -0.283 OA
ATOM     11  C   UNL     1       9.437  -2.725  24.188  0.00  0.00    +0.208 A 
ENDROOT
BRANCH   1  13
ATOM     12  C   UNL     1      10.522   0.427  24.642  0.00  0.00    +0.015 A 
ATOM     13  C   UNL     1       9.492  -0.253  23.947  0.00  0.00    +0.025 A 
ATOM     14  C   UNL     1       9.019   0.327  22.764  0.00  0.00    +0.060 A 
ATOM     15  C   UNL     1       9.500   1.572  22.358  0.00  0.00    +0.159 A 
ATOM     16  C   UNL     1      10.447   2.263  23.108  0.00  0.00    +0.158 A 
ATOM     17  C   UNL     1      10.976   1.691  24.250  0.00  0.00    +0.050 A 
BRANCH  15  18
ATOM     18  O   UNL     1       9.011   2.132  21.211  0.00  0.00    -0.503 OA
ATOM     19  H   UNL     1       9.693   2.782  20.947  0.00  0.00    +0.292 HD
ENDBRANCH  15  18
BRANCH  16  20
ATOM     20  O   UNL     1      10.822   3.507  22.683  0.00  0.00    -0.503 OA
ATOM     21  H   UNL     1      11.020   4.049  23.467  0.00  0.00    +0.292 HD
ENDBRANCH  16  20
ENDBRANCH   1  13
BRANCH   6  22
ATOM     22  C   UNL     1       5.278  -5.997  27.619  0.00  0.00    +0.231 C 
ATOM     23  O   UNL     1       5.119  -6.881  26.491  0.00  0.00    -0.334 OA
ATOM     24  C   UNL     1       3.878  -6.793  25.770  0.00  0.00    +0.178 C 
ATOM     25  C   UNL     1       2.753  -7.258  26.698  0.00  0.00    +0.177 C 
ATOM     26  C   UNL     1       2.704  -6.388  27.968  0.00  0.00    +0.179 C 
ATOM     27  C   UNL     1       4.091  -6.242  28.609  0.00  0.00    +0.209 C 
BRANCH  22  28
ATOM     28  O   UNL     1       6.412  -6.563  28.341  0.00  0.00    -0.359 OA
ATOM     29  H   UNL     1       6.049  -6.925  29.174  0.00  0.00    +0.213 HD
ENDBRANCH  22  28
BRANCH  25  30
ATOM     30  O   UNL     1       1.490  -7.261  26.030  0.00  0.00    -0.386 OA
ATOM     31  H   UNL     1       0.908  -6.665  26.539  0.00  0.00    +0.210 HD
ENDBRANCH  25  30
BRANCH  26  32
ATOM     32  O   UNL     1       2.077  -5.138  27.668  0.00  0.00    -0.386 OA
ATOM     33  H   UNL     1       2.343  -4.482  28.342  0.00  0.00    +0.210 HD
ENDBRANCH  26  32
BRANCH  27  34
ATOM     34  O   UNL     1       4.329  -7.527  29.271  0.00  0.00    -0.383 OA
ATOM     35  H   UNL     1       5.026  -7.981  28.747  0.00  0.00    +0.210 HD
ENDBRANCH  27  34
BRANCH  24  36
ATOM     36  C   UNL     1       3.566  -5.442  25.080  0.00  0.00    +0.190 C 
BRANCH  36  37
ATOM     37  O   UNL     1       2.665  -5.565  23.982  0.00  0.00    -0.392 OA
ATOM     38  H   UNL     1       1.860  -5.070  24.188  0.00  0.00    +0.210 HD
ENDBRANCH  36  37
ENDBRANCH  24  36
ENDBRANCH   6  22
BRANCH   5  39
ATOM     39  O   UNL     1       4.426  -3.207  28.221  0.00  0.00    -0.506 OA
ATOM     40  H   UNL     1       3.776  -3.908  28.053  0.00  0.00    +0.292 HD
ENDBRANCH   5  39
BRANCH   7  41
ATOM     41  O   UNL     1       7.519  -6.100  25.933  0.00  0.00    -0.505 OA
ATOM     42  H   UNL     1       6.824  -6.656  25.531  0.00  0.00    +0.292 HD
ENDBRANCH   7  41
BRANCH  11  43
ATOM     43  O   UNL     1      10.604  -2.918  23.464  0.00  0.00    -0.501 OA
ATOM     44  H   UNL     1      10.436  -2.624  22.554  0.00  0.00    +0.292 HD
ENDBRANCH  11  43
TORSDOF 13
ENDMDL
MODEL 2
REMARK VINA RESULT:      -7.4      2.528      5.466
REMARK  Name = 
REMARK  13 active torsions:
REMARK  status: ('A' for Active; 'I' for Inactive)
REMARK    1  A    between atoms: C_3  and  O_38
REMARK    2  A    between atoms: C_4  and  O_37
REMARK    3  A    between atoms: C_6  and  C_7
REMARK    4  A    between atoms: C_8  and  O_36
REMARK    5  A    between atoms: C_15  and  O_35
REMARK    6  A    between atoms: C_16  and  C_19
REMARK    7  A    between atoms: C_17  and  O_18
REMARK    8  A    between atoms: C_19  and  O_34
REMARK    9  A    between atoms: C_20  and  O_33
REMARK   10  A    between atoms: C_22  and  O_32
REMARK   11  A    between atoms: C_24  and  O_31
REMARK   12  A    between atoms: C_26  and  C_29
REMARK   13  A    between atoms: C_29  and  O_30
REMARK                            x       y       z     vdW  Elec       q    Type
REMARK                         _______ _______ _______ _____ _____    ______ ____
ROOT
ATOM      1  C   UNL     1       9.544   2.577  23.465  0.00  0.00    +0.181 A 
ATOM      2  O   UNL     1      10.181   1.378  23.815  0.00  0.00    -0.451 OA
ATOM      3  C   UNL     1       9.504   0.189  23.646  0.00  0.00    +0.147 A 
ATOM      4  C   UNL     1      10.178  -1.020  23.919  0.00  0.00    +0.093 A 
ATOM      5  C   UNL     1       9.520  -2.265  23.801  0.00  0.00    +0.132 A 
ATOM      6  C   UNL     1       8.187  -2.342  23.395  0.00  0.00    +0.097 A 
ATOM      7  C   UNL     1       7.549  -1.103  23.078  0.00  0.00    +0.143 A 
ATOM      8  C   UNL     1       8.185   0.136  23.219  0.00  0.00    +0.110 A 
ATOM      9  C   UNL     1       7.484   1.397  22.905  0.00  0.00    +0.238 A 
ATOM     10  O   UNL     1       6.307   1.468  22.560  0.00  0.00    -0.283 OA
ATOM     11  C   UNL     1       8.284   2.632  22.981  0.00  0.00    +0.208 A 
ENDROOT
BRANCH   1  13
ATOM     12  C   UNL     1      11.695   3.887  23.105  0.00  0.00    +0.015 A 
ATOM     13  C   UNL     1      10.376   3.812  23.613  0.00  0.00    +0.025 A 
ATOM     14  C   UNL     1       9.886   4.928  24.304  0.00  0.00    +0.060 A 
ATOM     15  C   UNL     1      10.719   6.021  24.542  0.00  0.00    +0.159 A 
ATOM     16  C   UNL     1      12.042   6.031  24.110  0.00  0.00    +0.158 A 
ATOM     17  C   UNL     1      12.538   4.969  23.377  0.00  0.00    +0.050 A 
BRANCH  15  18
ATOM     18  O   UNL     1      10.230   7.092  25.235  0.00  0.00    -0.503 OA
ATOM     19  H   UNL     1       9.915   7.708  24.543  0.00  0.00    +0.292 HD
ENDBRANCH  15  18
BRANCH  16  20
ATOM     20  O   UNL     1      12.818   7.108  24.438  0.00  0.00    -0.503 OA
ATOM     21  H   UNL     1      12.608   7.367  25.352  0.00  0.00    +0.292 HD
ENDBRANCH  16  20
ENDBRANCH   1  13
BRANCH   6  22
ATOM     22  C   UNL     1       7.345  -3.599  23.256  0.00  0.00    +0.231 C 
ATOM     23  O   UNL     1       6.148  -3.389  24.033  0.00  0.00    -0.334 OA
ATOM     24  C   UNL     1       6.195  -3.791  25.413  0.00  0.00    +0.178 C 
ATOM     25  C   UNL     1       6.342  -5.314  25.462  0.00  0.00    +0.177 C 
ATOM     26  C   UNL     1       7.621  -5.758  24.726  0.00  0.00    +0.179 C 
ATOM     27  C   UNL     1       7.728  -5.114  23.336  0.00  0.00    +0.209 C 
BRANCH  22  28
ATOM     28  O   UNL     1       6.888  -3.462  21.878  0.00  0.00    -0.359 OA
ATOM     29  H   UNL     1       5.965  -3.138  21.930  0.00  0.00    +0.213 HD
ENDBRANCH  22  28
BRANCH  25  30
ATOM     30  O   UNL     1       6.331  -5.799  26.806  0.00  0.00    -0.386 OA
ATOM     31  H   UNL     1       6.357  -6.773  26.748  0.00  0.00    +0.210 HD
ENDBRANCH  25  30
BRANCH  26  32
ATOM     32  O   UNL     1       8.759  -5.519  25.558  0.00  0.00    -0.386 OA
ATOM     33  H   UNL     1       8.818  -6.229  26.226  0.00  0.00    +0.210 HD
ENDBRANCH  26  32
BRANCH  27  34
ATOM     34  O   UNL     1       6.769  -5.854  22.512  0.00  0.00    -0.383 OA
ATOM     35  H   UNL     1       5.949  -5.930  23.047  0.00  0.00    +0.210 HD
ENDBRANCH  27  34
BRANCH  24  36
ATOM     36  C   UNL     1       7.216  -3.060  26.318  0.00  0.00    +0.190 C 
BRANCH  36  37
ATOM     37  O   UNL     1       6.860  -1.708  26.592  0.00  0.00    -0.392 OA
ATOM     38  H   UNL     1       7.636  -1.148  26.445  0.00  0.00    +0.210 HD
ENDBRANCH  36  37
ENDBRANCH  24  36
ENDBRANCH   6  22
BRANCH   5  39
ATOM     39  O   UNL     1      10.193  -3.425  24.110  0.00  0.00    -0.506 OA
ATOM     40  H   UNL     1      10.139  -4.013  23.340  0.00  0.00    +0.292 HD
ENDBRANCH   5  39
BRANCH   7  41
ATOM     41  O   UNL     1       6.259  -1.094  22.609  0.00  0.00    -0.505 OA
ATOM     42  H   UNL     1       6.151  -1.779  21.923  0.00  0.00    +0.292 HD
ENDBRANCH   7  41
BRANCH  11  43
ATOM     43  O   UNL     1       7.661   3.782  22.517  0.00  0.00    -0.501 OA
ATOM     44  H   UNL     1       7.450   4.330  23.290  0.00  0.00    +0.292 HD
ENDBRANCH  11  43
TORSDOF 13
ENDMDL
MODEL 3
REMARK VINA RESULT:      -7.3      2.648      8.666
REMARK  Name = 
REMARK  13 active torsions:
REMARK  status: ('A' for Active; 'I' for Inactive)
REMARK    1  A    between atoms: C_3  and  O_38
REMARK    2  A    between atoms: C_4  and  O_37
REMARK    3  A    between atoms: C_6  and  C_7
REMARK    4  A    between atoms: C_8  and  O_36
REMARK    5  A    between atoms: C_15  and  O_35
REMARK    6  A    between atoms: C_16  and  C_19
REMARK    7  A    between atoms: C_17  and  O_18
REMARK    8  A    between atoms: C_19  and  O_34
REMARK    9  A    between atoms: C_20  and  O_33
REMARK   10  A    between atoms: C_22  and  O_32
REMARK   11  A    between atoms: C_24  and  O_31
REMARK   12  A    between atoms: C_26  and  C_29
REMARK   13  A    between atoms: C_29  and  O_30
REMARK                            x       y       z     vdW  Elec       q    Type
REMARK                         _______ _______ _______ _____ _____    ______ ____
ROOT
ATOM      1  C   UNL     1       4.739  -5.188  23.951  0.00  0.00    +0.181 A 
ATOM      2  O   UNL     1       4.527  -3.995  24.656  0.00  0.00    -0.451 OA
ATOM      3  C   UNL     1       5.539  -3.060  24.708  0.00  0.00    +0.147 A 
ATOM      4  C   UNL     1       5.292  -1.827  25.345  0.00  0.00    +0.093 A 
ATOM      5  C   UNL     1       6.305  -0.849  25.461  0.00  0.00    +0.132 A 
ATOM      6  C   UNL     1       7.579  -1.064  24.934  0.00  0.00    +0.097 A 
ATOM      7  C   UNL     1       7.782  -2.303  24.251  0.00  0.00    +0.143 A 
ATOM      8  C   UNL     1       6.792  -3.288  24.156  0.00  0.00    +0.110 A 
ATOM      9  C   UNL     1       7.047  -4.566  23.463  0.00  0.00    +0.238 A 
ATOM     10  O   UNL     1       8.128  -4.887  22.978  0.00  0.00    -0.283 OA
ATOM     11  C   UNL     1       5.900  -5.482  23.326  0.00  0.00    +0.208 A 
ENDROOT
BRANCH   1  13
ATOM     12  C   UNL     1       3.461  -7.244  24.734  0.00  0.00    +0.015 A 
ATOM     13  C   UNL     1       3.564  -6.113  23.888  0.00  0.00    +0.025 A 
ATOM     14  C   UNL     1       2.542  -5.912  22.952  0.00  0.00    +0.060 A 
ATOM     15  C   UNL     1       1.522  -6.854  22.821  0.00  0.00    +0.159 A 
ATOM     16  C   UNL     1       1.493  -8.004  23.603  0.00  0.00    +0.158 A 
ATOM     17  C   UNL     1       2.455  -8.204  24.576  0.00  0.00    +0.050 A 
BRANCH  15  18
ATOM     18  O   UNL     1       0.545  -6.650  21.888  0.00  0.00    -0.503 OA
ATOM     19  H   UNL     1      -0.089  -6.045  22.325  0.00  0.00    +0.292 HD
ENDBRANCH  15  18
BRANCH  16  20
ATOM     20  O   UNL     1       0.499  -8.914  23.374  0.00  0.00    -0.503 OA
ATOM     21  H   UNL     1       0.775  -9.486  22.636  0.00  0.00    +0.292 HD
ENDBRANCH  16  20
ENDBRANCH   1  13
BRANCH   6  22
ATOM     22  C   UNL     1       8.771  -0.125  25.012  0.00  0.00    +0.231 C 
ATOM     23  O   UNL     1       8.268   1.210  24.801  0.00  0.00    -0.334 OA
ATOM     24  C   UNL     1       8.220   1.675  23.440  0.00  0.00    +0.178 C 
ATOM     25  C   UNL     1       9.656   1.792  22.925  0.00  0.00    +0.177 C 
ATOM     26  C   UNL     1      10.374   0.432  23.006  0.00  0.00    +0.179 C 
ATOM     27  C   UNL     1      10.202  -0.218  24.387  0.00  0.00    +0.209 C 
BRANCH  22  28
ATOM     28  O   UNL     1       9.049  -0.164  26.443  0.00  0.00    -0.359 OA
ATOM     29  H   UNL     1       9.309   0.746  26.693  0.00  0.00    +0.213 HD
ENDBRANCH  22  28
BRANCH  25  30
ATOM     30  O   UNL     1       9.695   2.313  21.595  0.00  0.00    -0.386 OA
ATOM     31  H   UNL     1      10.628   2.276  21.312  0.00  0.00    +0.210 HD
ENDBRANCH  25  30
BRANCH  26  32
ATOM     32  O   UNL     1       9.945  -0.401  21.925  0.00  0.00    -0.386 OA
ATOM     33  H   UNL     1      10.623  -1.087  21.766  0.00  0.00    +0.210 HD
ENDBRANCH  26  32
BRANCH  27  34
ATOM     34  O   UNL     1      11.113   0.527  25.260  0.00  0.00    -0.383 OA
ATOM     35  H   UNL     1      10.548   0.968  25.932  0.00  0.00    +0.210 HD
ENDBRANCH  27  34
BRANCH  24  36
ATOM     36  C   UNL     1       7.296   0.899  22.470  0.00  0.00    +0.190 C 
BRANCH  36  37
ATOM     37  O   UNL     1       5.924   1.271  22.579  0.00  0.00    -0.392 OA
ATOM     38  H   UNL     1       5.412   0.748  21.946  0.00  0.00    +0.210 HD
ENDBRANCH  36  37
ENDBRANCH  24  36
ENDBRANCH   6  22
BRANCH   5  39
ATOM     39  O   UNL     1       6.044   0.330  26.121  0.00  0.00    -0.506 OA
ATOM     40  H   UNL     1       5.262   0.732  25.712  0.00  0.00    +0.292 HD
ENDBRANCH   5  39
BRANCH   7  41
ATOM     41  O   UNL     1       8.987  -2.568  23.649  0.00  0.00    -0.505 OA
ATOM     42  H   UNL     1       9.256  -3.487  23.839  0.00  0.00    +0.292 HD
ENDBRANCH   7  41
BRANCH  11  43
ATOM     43  O   UNL     1       6.111  -6.595  22.526  0.00  0.00    -0.501 OA
ATOM     44  H   UNL     1       7.070  -6.731  22.462  0.00  0.00    +0.292 HD
ENDBRANCH  11  43
TORSDOF 13
ENDMDL
MODEL 4
REMARK VINA RESULT:      -7.2      1.454      1.865
REMARK  Name = 
REMARK  13 active torsions:
REMARK  status: ('A' for Active; 'I' for Inactive)
REMARK    1  A    between atoms: C_3  and  O_38
REMARK    2  A    between atoms: C_4  and  O_37
REMARK    3  A    between atoms: C_6  and  C_7
REMARK    4  A    between atoms: C_8  and  O_36
REMARK    5  A    between atoms: C_15  and  O_35
REMARK    6  A    between atoms: C_16  and  C_19
REMARK    7  A    between atoms: C_17  and  O_18
REMARK    8  A    between atoms: C_19  and  O_34
REMARK    9  A    between atoms: C_20  and  O_33
REMARK   10  A    between atoms: C_22  and  O_32
REMARK   11  A    between atoms: C_24  and  O_31
REMARK   12  A    between atoms: C_26  and  C_29
REMARK   13  A    between atoms: C_29  and  O_30
REMARK                            x       y       z     vdW  Elec       q    Type
REMARK                         _______ _______ _______ _____ _____    ______ ____
ROOT
ATOM      1  C   UNL     1       8.793   0.160  24.837  0.00  0.00    +0.181 A 
ATOM      2  O   UNL     1       7.661  -0.093  25.626  0.00  0.00    -0.451 OA
ATOM      3  C   UNL     1       7.358  -1.396  25.960  0.00  0.00    +0.147 A 
ATOM      4  C   UNL     1       6.270  -1.640  26.822  0.00  0.00    +0.093 A 
ATOM      5  C   UNL     1       5.891  -2.957  27.165  0.00  0.00    +0.132 A 
ATOM      6  C   UNL     1       6.591  -4.061  26.676  0.00  0.00    +0.097 A 
ATOM      7  C   UNL     1       7.719  -3.777  25.845  0.00  0.00    +0.143 A 
ATOM      8  C   UNL     1       8.084  -2.477  25.478  0.00  0.00    +0.110 A 
ATOM      9  C   UNL     1       9.242  -2.225  24.597  0.00  0.00    +0.238 A 
ATOM     10  O   UNL     1       9.925  -3.107  24.083  0.00  0.00    -0.283 OA
ATOM     11  C   UNL     1       9.602  -0.815  24.369  0.00  0.00    +0.208 A 
ENDROOT
BRANCH   1  13
ATOM     12  C   UNL     1       8.249   2.634  25.079  0.00  0.00    +0.015 A 
ATOM     13  C   UNL     1       9.086   1.606  24.583  0.00  0.00    +0.025 A 
ATOM     14  C   UNL     1      10.185   1.988  23.803  0.00  0.00    +0.060 A 
ATOM     15  C   UNL     1      10.370   3.330  23.470  0.00  0.00    +0.159 A 
ATOM     16  C   UNL     1       9.480   4.311  23.896  0.00  0.00    +0.158 A 
ATOM     17  C   UNL     1       8.418   3.974  24.715  0.00  0.00    +0.050 A 
BRANCH  15  18
ATOM     18  O   UNL     1      11.436   3.681  22.691  0.00  0.00    -0.503 OA
ATOM     19  H   UNL     1      11.494   4.654  22.780  0.00  0.00    +0.292 HD
ENDBRANCH  15  18
BRANCH  16  20
ATOM     20  O   UNL     1       9.689   5.595  23.476  0.00  0.00    -0.503 OA
ATOM     21  H   UNL     1       8.892   6.115  23.681  0.00  0.00    +0.292 HD
ENDBRANCH  16  20
ENDBRANCH   1  13
BRANCH   6  22
ATOM     22  C   UNL     1       6.282  -5.526  26.929  0.00  0.00    +0.231 C 
ATOM     23  O   UNL     1       6.355  -6.197  25.654  0.00  0.00    -0.334 OA
ATOM     24  C   UNL     1       5.140  -6.261  24.887  0.00  0.00    +0.178 C 
ATOM     25  C   UNL     1       4.140  -7.134  25.648  0.00  0.00    +0.177 C 
ATOM     26  C   UNL     1       3.865  -6.550  27.047  0.00  0.00    +0.179 C 
ATOM     27  C   UNL     1       5.168  -6.214  27.787  0.00  0.00    +0.209 C 
BRANCH  22  28
ATOM     28  O   UNL     1       7.504  -5.943  27.607  0.00  0.00    -0.359 OA
ATOM     29  H   UNL     1       7.278  -6.008  28.557  0.00  0.00    +0.213 HD
ENDBRANCH  22  28
BRANCH  25  30
ATOM     30  O   UNL     1       2.925  -7.299  24.915  0.00  0.00    -0.386 OA
ATOM     31  H   UNL     1       2.205  -7.001  25.503  0.00  0.00    +0.210 HD
ENDBRANCH  25  30
BRANCH  26  32
ATOM     32  O   UNL     1       2.969  -5.441  26.935  0.00  0.00    -0.386 OA
ATOM     33  H   UNL     1       2.136  -5.660  27.397  0.00  0.00    +0.210 HD
ENDBRANCH  26  32
BRANCH  27  34
ATOM     34  O   UNL     1       5.689  -7.512  28.224  0.00  0.00    -0.383 OA
ATOM     35  H   UNL     1       5.950  -7.992  27.407  0.00  0.00    +0.210 HD
ENDBRANCH  27  34
BRANCH  24  36
ATOM     36  C   UNL     1       4.533  -4.912  24.430  0.00  0.00    +0.190 C 
BRANCH  36  37
ATOM     37  O   UNL     1       3.867  -4.992  23.172  0.00  0.00    -0.392 OA
ATOM     38  H   UNL     1       4.274  -5.698  22.651  0.00  0.00    +0.210 HD
ENDBRANCH  36  37
ENDBRANCH  24  36
ENDBRANCH   6  22
BRANCH   5  39
ATOM     39  O   UNL     1       4.802  -3.165  27.980  0.00  0.00    -0.506 OA
ATOM     40  H   UNL     1       4.260  -3.863  27.579  0.00  0.00    +0.292 HD
ENDBRANCH   5  39
BRANCH   7  41
ATOM     41  O   UNL     1       8.501  -4.802  25.373  0.00  0.00    -0.505 OA
ATOM     42  H   UNL     1       9.237  -4.439  24.843  0.00  0.00    +0.292 HD
ENDBRANCH   7  41
BRANCH  11  43
ATOM     43  O   UNL     1      10.789  -0.600  23.684  0.00  0.00    -0.501 OA
ATOM     44  H   UNL     1      11.516  -0.867  24.269  0.00  0.00    +0.292 HD
ENDBRANCH  11  43
TORSDOF 13
ENDMDL
MODEL 5
REMARK VINA RESULT:      -7.1      2.352      9.158
REMARK  Name = 
REMARK  13 active torsions:
REMARK  status: ('A' for Active; 'I' for Inactive)
REMARK    1  A    between atoms: C_3  and  O_38
REMARK    2  A    between atoms: C_4  and  O_37
REMARK    3  A    between atoms: C_6  and  C_7
REMARK    4  A    between atoms: C_8  and  O_36
REMARK    5  A    between atoms: C_15  and  O_35
REMARK    6  A    between atoms: C_16  and  C_19
REMARK    7  A    between atoms: C_17  and  O_18
REMARK    8  A    between atoms: C_19  and  O_34
REMARK    9  A    between atoms: C_20  and  O_33
REMARK   10  A    between atoms: C_22  and  O_32
REMARK   11  A    between atoms: C_24  and  O_31
REMARK   12  A    between atoms: C_26  and  C_29
REMARK   13  A    between atoms: C_29  and  O_30
REMARK                            x       y       z     vdW  Elec       q    Type
REMARK                         _______ _______ _______ _____ _____    ______ ____
ROOT
ATOM      1  C   UNL     1       4.435  -4.784  24.322  0.00  0.00    +0.181 A 
ATOM      2  O   UNL     1       5.309  -4.410  23.292  0.00  0.00    -0.451 OA
ATOM      3  C   UNL     1       6.233  -3.414  23.529  0.00  0.00    +0.147 A 
ATOM      4  C   UNL     1       7.165  -3.099  22.519  0.00  0.00    +0.093 A 
ATOM      5  C   UNL     1       8.107  -2.061  22.693  0.00  0.00    +0.132 A 
ATOM      6  C   UNL     1       8.159  -1.324  23.876  0.00  0.00    +0.097 A 
ATOM      7  C   UNL     1       7.234  -1.701  24.898  0.00  0.00    +0.143 A 
ATOM      8  C   UNL     1       6.279  -2.709  24.723  0.00  0.00    +0.110 A 
ATOM      9  C   UNL     1       5.323  -3.054  25.794  0.00  0.00    +0.238 A 
ATOM     10  O   UNL     1       5.249  -2.468  26.871  0.00  0.00    -0.283 OA
ATOM     11  C   UNL     1       4.439  -4.205  25.543  0.00  0.00    +0.208 A 
ENDROOT
BRANCH   1  13
ATOM     12  C   UNL     1       2.527  -5.815  22.993  0.00  0.00    +0.015 A 
ATOM     13  C   UNL     1       3.514  -5.920  24.002  0.00  0.00    +0.025 A 
ATOM     14  C   UNL     1       3.574  -7.118  24.725  0.00  0.00    +0.060 A 
ATOM     15  C   UNL     1       2.627  -8.116  24.498  0.00  0.00    +0.159 A 
ATOM     16  C   UNL     1       1.609  -7.951  23.563  0.00  0.00    +0.158 A 
ATOM     17  C   UNL     1       1.557  -6.804  22.793  0.00  0.00    +0.050 A 
BRANCH  15  18
ATOM     18  O   UNL     1       2.689  -9.270  25.228  0.00  0.00    -0.503 OA
ATOM     19  H   UNL     1       3.259  -9.045  25.992  0.00  0.00    +0.292 HD
ENDBRANCH  15  18
BRANCH  16  20
ATOM     20  O   UNL     1       0.678  -8.944  23.443  0.00  0.00    -0.503 OA
ATOM     21  H   UNL     1       0.437  -9.245  24.337  0.00  0.00    +0.292 HD
ENDBRANCH  16  20
ENDBRANCH   1  13
BRANCH   6  22
ATOM     22  C   UNL     1       9.089  -0.164  24.192  0.00  0.00    +0.231 C 
ATOM     23  O   UNL     1       8.271   0.894  24.732  0.00  0.00    -0.334 OA
ATOM     24  C   UNL     1       7.720   1.830  23.789  0.00  0.00    +0.178 C 
ATOM     25  C   UNL     1       8.876   2.611  23.160  0.00  0.00    +0.177 C 
ATOM     26  C   UNL     1       9.859   1.654  22.459  0.00  0.00    +0.179 C 
ATOM     27  C   UNL     1      10.253   0.480  23.368  0.00  0.00    +0.209 C 
BRANCH  22  28
ATOM     28  O   UNL     1       9.784  -0.691  25.361  0.00  0.00    -0.359 OA
ATOM     29  H   UNL     1      10.329   0.045  25.706  0.00  0.00    +0.213 HD
ENDBRANCH  22  28
BRANCH  25  30
ATOM     30  O   UNL     1       8.403   3.610  22.255  0.00  0.00    -0.386 OA
ATOM     31  H   UNL     1       7.742   4.135  22.745  0.00  0.00    +0.210 HD
ENDBRANCH  25  30
BRANCH  26  32
ATOM     32  O   UNL     1       9.315   1.246  21.201  0.00  0.00    -0.386 OA
ATOM     33  H   UNL     1       9.827   0.483  20.868  0.00  0.00    +0.210 HD
ENDBRANCH  26  32
BRANCH  27  34
ATOM     34  O   UNL     1      11.201   1.057  24.325  0.00  0.00    -0.383 OA
ATOM     35  H   UNL     1      10.985   2.014  24.382  0.00  0.00    +0.210 HD
ENDBRANCH  27  34
BRANCH  24  36
ATOM     36  C   UNL     1       6.737   1.262  22.736  0.00  0.00    +0.190 C 
BRANCH  36  37
ATOM     37  O   UNL     1       5.731   2.193  22.345  0.00  0.00    -0.392 OA
ATOM     38  H   UNL     1       5.811   2.353  21.394  0.00  0.00    +0.210 HD
ENDBRANCH  36  37
ENDBRANCH  24  36
ENDBRANCH   6  22
BRANCH   5  39
ATOM     39  O   UNL     1       8.980  -1.753  21.674  0.00  0.00    -0.506 OA
ATOM     40  H   UNL     1       9.211  -0.814  21.755  0.00  0.00    +0.292 HD
ENDBRANCH   5  39
BRANCH   7  41
ATOM     41  O   UNL     1       7.259  -1.069  26.117  0.00  0.00    -0.505 OA
ATOM     42  H   UNL     1       7.844  -0.289  26.073  0.00  0.00    +0.292 HD
ENDBRANCH   7  41
BRANCH  11  43
ATOM     43  O   UNL     1       3.672  -4.622  26.621  0.00  0.00    -0.501 OA
ATOM     44  H   UNL     1       4.201  -4.491  27.424  0.00  0.00    +0.292 HD
ENDBRANCH  11  43
TORSDOF 13
ENDMDL
MODEL 6
REMARK VINA RESULT:      -6.8      2.017      9.060
REMARK  Name = 
REMARK  13 active torsions:
REMARK  status: ('A' for Active; 'I' for Inactive)
REMARK    1  A    between atoms: C_3  and  O_38
REMARK    2  A    between atoms: C_4  and  O_37
REMARK    3  A    between atoms: C_6  and  C_7
REMARK    4  A    between atoms: C_8  and  O_36
REMARK    5  A    between atoms: C_15  and  O_35
REMARK    6  A    between atoms: C_16  and  C_19
REMARK    7  A    between atoms: C_17  and  O_18
REMARK    8  A    between atoms: C_19  and  O_34
REMARK    9  A    between atoms: C_20  and  O_33
REMARK   10  A    between atoms: C_22  and  O_32
REMARK   11  A    between atoms: C_24  and  O_31
REMARK   12  A    between atoms: C_26  and  C_29
REMARK   13  A    between atoms: C_29  and  O_30
REMARK                            x       y       z     vdW  Elec       q    Type
REMARK                         _______ _______ _______ _____ _____    ______ ____
ROOT
ATOM      1  C   UNL     1       6.210  -4.721  25.105  0.00  0.00    +0.181 A 
ATOM      2  O   UNL     1       5.679  -3.585  24.478  0.00  0.00    -0.451 OA
ATOM      3  C   UNL     1       6.535  -2.581  24.077  0.00  0.00    +0.147 A 
ATOM      4  C   UNL     1       6.007  -1.480  23.372  0.00  0.00    +0.093 A 
ATOM      5  C   UNL     1       6.832  -0.405  22.972  0.00  0.00    +0.132 A 
ATOM      6  C   UNL     1       8.201  -0.405  23.247  0.00  0.00    +0.097 A 
ATOM      7  C   UNL     1       8.712  -1.558  23.918  0.00  0.00    +0.143 A 
ATOM      8  C   UNL     1       7.897  -2.614  24.342  0.00  0.00    +0.110 A 
ATOM      9  C   UNL     1       8.459  -3.778  25.055  0.00  0.00    +0.238 A 
ATOM     10  O   UNL     1       9.639  -3.889  25.377  0.00  0.00    -0.283 OA
ATOM     11  C   UNL     1       7.528  -4.881  25.354  0.00  0.00    +0.208 A 
ENDROOT
BRANCH   1  13
ATOM     12  C   UNL     1       4.581  -6.557  24.438  0.00  0.00    +0.015 A 
ATOM     13  C   UNL     1       5.218  -5.790  25.442  0.00  0.00    +0.025 A 
ATOM     14  C   UNL     1       4.856  -6.038  26.772  0.00  0.00    +0.060 A 
ATOM     15  C   UNL     1       3.839  -6.949  27.059  0.00  0.00    +0.159 A 
ATOM     16  C   UNL     1       3.164  -7.623  26.046  0.00  0.00    +0.158 A 
ATOM     17  C   UNL     1       3.537  -7.443  24.727  0.00  0.00    +0.050 A 
BRANCH  15  18
ATOM     18  O   UNL     1       3.485  -7.162  28.361  0.00  0.00    -0.503 OA
ATOM     19  H   UNL     1       3.191  -6.285  28.681  0.00  0.00    +0.292 HD
ENDBRANCH  15  18
BRANCH  16  20
ATOM     20  O   UNL     1       2.134  -8.450  26.399  0.00  0.00    -0.503 OA
ATOM     21  H   UNL     1       1.759  -8.833  25.586  0.00  0.00    +0.292 HD
ENDBRANCH  16  20
ENDBRANCH   1  13
BRANCH   6  22
ATOM     22  C   UNL     1       9.201   0.689  22.911  0.00  0.00    +0.231 C 
ATOM     23  O   UNL     1       9.883   1.024  24.136  0.00  0.00    -0.334 OA
ATOM     24  C   UNL     1       9.294   2.061  24.940  0.00  0.00    +0.178 C 
ATOM     25  C   UNL     1       9.377   3.375  24.162  0.00  0.00    +0.177 C 
ATOM     26  C   UNL     1       8.641   3.253  22.814  0.00  0.00    +0.179 C 
ATOM     27  C   UNL     1       9.060   1.988  22.051  0.00  0.00    +0.209 C 
BRANCH  22  28
ATOM     28  O   UNL     1      10.193  -0.078  22.165  0.00  0.00    -0.359 OA
ATOM     29  H   UNL     1      10.050  -1.015  22.409  0.00  0.00    +0.213 HD
ENDBRANCH  22  28
BRANCH  25  30
ATOM     30  O   UNL     1       8.868   4.470  24.925  0.00  0.00    -0.386 OA
ATOM     31  H   UNL     1       9.525   4.647  25.625  0.00  0.00    +0.210 HD
ENDBRANCH  25  30
BRANCH  26  32
ATOM     32  O   UNL     1       7.230   3.351  23.028  0.00  0.00    -0.386 OA
ATOM     33  H   UNL     1       6.770   2.821  22.348  0.00  0.00    +0.210 HD
ENDBRANCH  26  32
BRANCH  27  34
ATOM     34  O   UNL     1      10.386   2.304  21.513  0.00  0.00    -0.383 OA
ATOM     35  H   UNL     1      10.625   3.187  21.873  0.00  0.00    +0.210 HD
ENDBRANCH  27  34
BRANCH  24  36
ATOM     36  C   UNL     1       7.878   1.786  25.505  0.00  0.00    +0.190 C 
BRANCH  36  37
ATOM     37  O   UNL     1       7.587   2.532  26.684  0.00  0.00    -0.392 OA
ATOM     38  H   UNL     1       6.730   2.967  26.571  0.00  0.00    +0.210 HD
ENDBRANCH  36  37
ENDBRANCH  24  36
ENDBRANCH   6  22
BRANCH   5  39
ATOM     39  O   UNL     1       6.282   0.672  22.318  0.00  0.00    -0.506 OA
ATOM     40  H   UNL     1       5.988   0.370  21.444  0.00  0.00    +0.292 HD
ENDBRANCH   5  39
BRANCH   7  41
ATOM     41  O   UNL     1      10.057  -1.668  24.170  0.00  0.00    -0.505 OA
ATOM     42  H   UNL     1      10.528  -1.918  23.352  0.00  0.00    +0.292 HD
ENDBRANCH   7  41
BRANCH  11  43
ATOM     43  O   UNL     1       8.105  -6.033  25.866  0.00  0.00    -0.501 OA
ATOM     44  H   UNL     1       8.958  -6.155  25.421  0.00  0.00    +0.292 HD
ENDBRANCH  11  43
TORSDOF 13
ENDMDL
MODEL 7
REMARK VINA RESULT:      -6.8      2.401      4.230
REMARK  Name = 
REMARK  13 active torsions:
REMARK  status: ('A' for Active; 'I' for Inactive)
REMARK    1  A    between atoms: C_3  and  O_38
REMARK    2  A    between atoms: C_4  and  O_37
REMARK    3  A    between atoms: C_6  and  C_7
REMARK    4  A    between atoms: C_8  and  O_36
REMARK    5  A    between atoms: C_15  and  O_35
REMARK    6  A    between atoms: C_16  and  C_19
REMARK    7  A    between atoms: C_17  and  O_18
REMARK    8  A    between atoms: C_19  and  O_34
REMARK    9  A    between atoms: C_20  and  O_33
REMARK   10  A    between atoms: C_22  and  O_32
REMARK   11  A    between atoms: C_24  and  O_31
REMARK   12  A    between atoms: C_26  and  C_29
REMARK   13  A    between atoms: C_29  and  O_30
REMARK                            x       y       z     vdW  Elec       q    Type
REMARK                         _______ _______ _______ _____ _____    ______ ____
ROOT
ATOM      1  C   UNL     1       8.774   1.597  24.217  0.00  0.00    +0.181 A 
ATOM      2  O   UNL     1       9.549   0.431  24.280  0.00  0.00    -0.451 OA
ATOM      3  C   UNL     1       8.916  -0.784  24.438  0.00  0.00    +0.147 A 
ATOM      4  C   UNL     1       9.693  -1.961  24.416  0.00  0.00    +0.093 A 
ATOM      5  C   UNL     1       9.101  -3.229  24.613  0.00  0.00    +0.132 A 
ATOM      6  C   UNL     1       7.728  -3.361  24.820  0.00  0.00    +0.097 A 
ATOM      7  C   UNL     1       6.963  -2.154  24.787  0.00  0.00    +0.143 A 
ATOM      8  C   UNL     1       7.545  -0.892  24.619  0.00  0.00    +0.110 A 
ATOM      9  C   UNL     1       6.724   0.336  24.616  0.00  0.00    +0.238 A 
ATOM     10  O   UNL     1       5.512   0.359  24.808  0.00  0.00    -0.283 OA
ATOM     11  C   UNL     1       7.426   1.597  24.320  0.00  0.00    +0.208 A 
ENDROOT
BRANCH   1  13
ATOM     12  C   UNL     1      10.823   2.853  23.383  0.00  0.00    +0.015 A 
ATOM     13  C   UNL     1       9.536   2.862  23.973  0.00  0.00    +0.025 A 
ATOM     14  C   UNL     1       9.012   4.101  24.363  0.00  0.00    +0.060 A 
ATOM     15  C   UNL     1       9.789   5.254  24.244  0.00  0.00    +0.159 A 
ATOM     16  C   UNL     1      11.087   5.205  23.745  0.00  0.00    +0.158 A 
ATOM     17  C   UNL     1      11.612   4.006  23.299  0.00  0.00    +0.050 A 
BRANCH  15  18
ATOM     18  O   UNL     1       9.269   6.451  24.650  0.00  0.00    -0.503 OA
ATOM     19  H   UNL     1       8.646   6.216  25.367  0.00  0.00    +0.292 HD
ENDBRANCH  15  18
BRANCH  16  20
ATOM     20  O   UNL     1      11.812   6.363  23.720  0.00  0.00    -0.503 OA
ATOM     21  H   UNL     1      11.294   7.056  24.167  0.00  0.00    +0.292 HD
ENDBRANCH  16  20
ENDBRANCH   1  13
BRANCH   6  22
ATOM     22  C   UNL     1       6.961  -4.647  25.077  0.00  0.00    +0.231 C 
ATOM     23  O   UNL     1       7.400  -5.602  24.089  0.00  0.00    -0.334 OA
ATOM     24  C   UNL     1       6.672  -5.630  22.849  0.00  0.00    +0.178 C 
ATOM     25  C   UNL     1       5.248  -6.108  23.142  0.00  0.00    +0.177 C 
ATOM     26  C   UNL     1       4.558  -5.171  24.152  0.00  0.00    +0.179 C 
ATOM     27  C   UNL     1       5.447  -4.905  25.376  0.00  0.00    +0.209 C 
BRANCH  22  28
ATOM     28  O   UNL     1       7.607  -5.101  26.304  0.00  0.00    -0.359 OA
ATOM     29  H   UNL     1       7.270  -4.522  27.017  0.00  0.00    +0.213 HD
ENDBRANCH  22  28
BRANCH  25  30
ATOM     30  O   UNL     1       4.478  -6.225  21.945  0.00  0.00    -0.386 OA
ATOM     31  H   UNL     1       3.630  -5.771  22.116  0.00  0.00    +0.210 HD
ENDBRANCH  25  30
BRANCH  26  32
ATOM     32  O   UNL     1       4.131  -3.980  23.486  0.00  0.00    -0.386 OA
ATOM     33  H   UNL     1       4.908  -3.550  23.078  0.00  0.00    +0.210 HD
ENDBRANCH  26  32
BRANCH  27  34
ATOM     34  O   UNL     1       5.359  -6.135  26.169  0.00  0.00    -0.383 OA
ATOM     35  H   UNL     1       4.642  -6.671  25.765  0.00  0.00    +0.210 HD
ENDBRANCH  27  34
BRANCH  24  36
ATOM     36  C   UNL     1       6.707  -4.342  21.991  0.00  0.00    +0.190 C 
BRANCH  36  37
ATOM     37  O   UNL     1       5.815  -4.380  20.880  0.00  0.00    -0.392 OA
ATOM     38  H   UNL     1       6.303  -4.688  20.103  0.00  0.00    +0.210 HD
ENDBRANCH  36  37
ENDBRANCH  24  36
ENDBRANCH   6  22
BRANCH   5  39
ATOM     39  O   UNL     1       9.890  -4.356  24.623  0.00  0.00    -0.506 OA
ATOM     40  H   UNL     1       9.304  -5.128  24.674  0.00  0.00    +0.292 HD
ENDBRANCH   5  39
BRANCH   7  41
ATOM     41  O   UNL     1       5.597  -2.200  24.917  0.00  0.00    -0.505 OA
ATOM     42  H   UNL     1       5.190  -1.498  24.375  0.00  0.00    +0.292 HD
ENDBRANCH   7  41
BRANCH  11  43
ATOM     43  O   UNL     1       6.617   2.710  24.149  0.00  0.00    -0.501 OA
ATOM     44  H   UNL     1       7.158   3.495  24.333  0.00  0.00    +0.292 HD
ENDBRANCH  11  43
TORSDOF 13
ENDMDL
MODEL 8
REMARK VINA RESULT:      -6.7      3.030      5.182
REMARK  Name = 
REMARK  13 active torsions:
REMARK  status: ('A' for Active; 'I' for Inactive)
REMARK    1  A    between atoms: C_3  and  O_38
REMARK    2  A    between atoms: C_4  and  O_37
REMARK    3  A    between atoms: C_6  and  C_7
REMARK    4  A    between atoms: C_8  and  O_36
REMARK    5  A    between atoms: C_15  and  O_35
REMARK    6  A    between atoms: C_16  and  C_19
REMARK    7  A    between atoms: C_17  and  O_18
REMARK    8  A    between atoms: C_19  and  O_34
REMARK    9  A    between atoms: C_20  and  O_33
REMARK   10  A    between atoms: C_22  and  O_32
REMARK   11  A    between atoms: C_24  and  O_31
REMARK   12  A    between atoms: C_26  and  C_29
REMARK   13  A    between atoms: C_29  and  O_30
REMARK                            x       y       z     vdW  Elec       q    Type
REMARK                         _______ _______ _______ _____ _____    ______ ____
ROOT
ATOM      1  C   UNL     1       9.401   2.673  23.884  0.00  0.00    +0.181 A 
ATOM      2  O   UNL     1       9.547   1.702  24.884  0.00  0.00    -0.451 OA
ATOM      3  C   UNL     1       8.746   0.580  24.849  0.00  0.00    +0.147 A 
ATOM      4  C   UNL     1       8.954  -0.434  25.806  0.00  0.00    +0.093 A 
ATOM      5  C   UNL     1       8.136  -1.585  25.840  0.00  0.00    +0.132 A 
ATOM      6  C   UNL     1       7.105  -1.766  24.917  0.00  0.00    +0.097 A 
ATOM      7  C   UNL     1       6.953  -0.745  23.929  0.00  0.00    +0.143 A 
ATOM      8  C   UNL     1       7.741   0.412  23.906  0.00  0.00    +0.110 A 
ATOM      9  C   UNL     1       7.538   1.457  22.884  0.00  0.00    +0.238 A 
ATOM     10  O   UNL     1       6.654   1.430  22.031  0.00  0.00    -0.283 OA
ATOM     11  C   UNL     1       8.497   2.577  22.885  0.00  0.00    +0.208 A 
ENDROOT
BRANCH   1  13
ATOM     12  C   UNL     1       9.955   5.096  24.425  0.00  0.00    +0.015 A 
ATOM     13  C   UNL     1      10.358   3.821  23.960  0.00  0.00    +0.025 A 
ATOM     14  C   UNL     1      11.683   3.679  23.530  0.00  0.00    +0.060 A 
ATOM     15  C   UNL     1      12.525   4.791  23.489  0.00  0.00    +0.159 A 
ATOM     16  C   UNL     1      12.077   6.054  23.866  0.00  0.00    +0.158 A 
ATOM     17  C   UNL     1      10.791   6.215  24.349  0.00  0.00    +0.050 A 
BRANCH  15  18
ATOM     18  O   UNL     1      13.808   4.637  23.046  0.00  0.00    -0.503 OA
ATOM     19  H   UNL     1      13.789   3.811  22.522  0.00  0.00    +0.292 HD
ENDBRANCH  15  18
BRANCH  16  20
ATOM     20  O   UNL     1      12.937   7.107  23.736  0.00  0.00    -0.503 OA
ATOM     21  H   UNL     1      13.110   7.470  24.622  0.00  0.00    +0.292 HD
ENDBRANCH  16  20
ENDBRANCH   1  13
BRANCH   6  22
ATOM     22  C   UNL     1       6.130  -2.929  24.851  0.00  0.00    +0.231 C 
ATOM     23  O   UNL     1       6.862  -4.113  25.228  0.00  0.00    -0.334 OA
ATOM     24  C   UNL     1       7.513  -4.835  24.168  0.00  0.00    +0.178 C 
ATOM     25  C   UNL     1       6.433  -5.410  23.249  0.00  0.00    +0.177 C 
ATOM     26  C   UNL     1       5.554  -4.283  22.675  0.00  0.00    +0.179 C 
ATOM     27  C   UNL     1       5.067  -3.327  23.774  0.00  0.00    +0.209 C 
BRANCH  22  28
ATOM     28  O   UNL     1       5.304  -2.650  26.021  0.00  0.00    -0.359 OA
ATOM     29  H   UNL     1       5.484  -1.719  26.263  0.00  0.00    +0.213 HD
ENDBRANCH  22  28
BRANCH  25  30
ATOM     30  O   UNL     1       7.001  -6.199  22.203  0.00  0.00    -0.386 OA
ATOM     31  H   UNL     1       6.297  -6.323  21.537  0.00  0.00    +0.210 HD
ENDBRANCH  25  30
BRANCH  26  32
ATOM     32  O   UNL     1       6.252  -3.625  21.613  0.00  0.00    -0.386 OA
ATOM     33  H   UNL     1       7.179  -3.935  21.606  0.00  0.00    +0.210 HD
ENDBRANCH  26  32
BRANCH  27  34
ATOM     34  O   UNL     1       4.003  -4.065  24.459  0.00  0.00    -0.383 OA
ATOM     35  H   UNL     1       3.155  -3.709  24.112  0.00  0.00    +0.210 HD
ENDBRANCH  27  34
BRANCH  24  36
ATOM     36  C   UNL     1       8.624  -4.086  23.393  0.00  0.00    +0.190 C 
BRANCH  36  37
ATOM     37  O   UNL     1       9.785  -3.828  24.179  0.00  0.00    -0.392 OA
ATOM     38  H   UNL     1       9.945  -2.874  24.189  0.00  0.00    +0.210 HD
ENDBRANCH  36  37
ENDBRANCH  24  36
ENDBRANCH   6  22
BRANCH   5  39
ATOM     39  O   UNL     1       8.340  -2.540  26.810  0.00  0.00    -0.506 OA
ATOM     40  H   UNL     1       9.264  -2.475  27.101  0.00  0.00    +0.292 HD
ENDBRANCH   5  39
BRANCH   7  41
ATOM     41  O   UNL     1       6.005  -0.874  22.944  0.00  0.00    -0.505 OA
ATOM     42  H   UNL     1       5.933  -0.040  22.443  0.00  0.00    +0.292 HD
ENDBRANCH   7  41
BRANCH  11  43
ATOM     43  O   UNL     1       8.397   3.456  21.817  0.00  0.00    -0.501 OA
ATOM     44  H   UNL     1       7.993   2.973  21.079  0.00  0.00    +0.292 HD
ENDBRANCH  11  43
TORSDOF 13
ENDMDL
MODEL 9
REMARK VINA RESULT:      -6.6      1.792      3.231
REMARK  Name = 
REMARK  13 active torsions:
REMARK  status: ('A' for Active; 'I' for Inactive)
REMARK    1  A    between atoms: C_3  and  O_38
REMARK    2  A    between atoms: C_4  and  O_37
REMARK    3  A    between atoms: C_6  and  C_7
REMARK    4  A    between atoms: C_8  and  O_36
REMARK    5  A    between atoms: C_15  and  O_35
REMARK    6  A    between atoms: C_16  and  C_19
REMARK    7  A    between atoms: C_17  and  O_18
REMARK    8  A    between atoms: C_19  and  O_34
REMARK    9  A    between atoms: C_20  and  O_33
REMARK   10  A    between atoms: C_22  and  O_32
REMARK   11  A    between atoms: C_24  and  O_31
REMARK   12  A    between atoms: C_26  and  C_29
REMARK   13  A    between atoms: C_29  and  O_30
REMARK                            x       y       z     vdW  Elec       q    Type
REMARK                         _______ _______ _______ _____ _____    ______ ____
ROOT
ATOM      1  C   UNL     1       8.757   0.875  24.934  0.00  0.00    +0.181 A 
ATOM      2  O   UNL     1       9.101  -0.325  24.296  0.00  0.00    -0.451 OA
ATOM      3  C   UNL     1       8.529  -1.501  24.732  0.00  0.00    +0.147 A 
ATOM      4  C   UNL     1       8.811  -2.693  24.034  0.00  0.00    +0.093 A 
ATOM      5  C   UNL     1       8.284  -3.932  24.462  0.00  0.00    +0.132 A 
ATOM      6  C   UNL     1       7.452  -4.016  25.580  0.00  0.00    +0.097 A 
ATOM      7  C   UNL     1       7.145  -2.783  26.235  0.00  0.00    +0.143 A 
ATOM      8  C   UNL     1       7.686  -1.556  25.834  0.00  0.00    +0.110 A 
ATOM      9  C   UNL     1       7.364  -0.306  26.551  0.00  0.00    +0.238 A 
ATOM     10  O   UNL     1       6.666  -0.246  27.559  0.00  0.00    -0.283 OA
ATOM     11  C   UNL     1       7.898   0.941  25.975  0.00  0.00    +0.208 A 
ENDROOT
BRANCH   1  13
ATOM     12  C   UNL     1      10.697   2.121  23.859  0.00  0.00    +0.015 A 
ATOM     13  C   UNL     1       9.369   2.110  24.350  0.00  0.00    +0.025 A 
ATOM     14  C   UNL     1       8.656   3.315  24.311  0.00  0.00    +0.060 A 
ATOM     15  C   UNL     1       9.285   4.483  23.881  0.00  0.00    +0.159 A 
ATOM     16  C   UNL     1      10.621   4.485  23.489  0.00  0.00    +0.158 A 
ATOM     17  C   UNL     1      11.335   3.302  23.462  0.00  0.00    +0.050 A 
BRANCH  15  18
ATOM     18  O   UNL     1       8.579   5.653  23.870  0.00  0.00    -0.503 OA
ATOM     19  H   UNL     1       8.505   5.903  24.813  0.00  0.00    +0.292 HD
ENDBRANCH  15  18
BRANCH  16  20
ATOM     20  O   UNL     1      11.188   5.679  23.144  0.00  0.00    -0.503 OA
ATOM     21  H   UNL     1      10.888   5.911  22.248  0.00  0.00    +0.292 HD
ENDBRANCH  16  20
ENDBRANCH   1  13
BRANCH   6  22
ATOM     22  C   UNL     1       6.842  -5.274  26.174  0.00  0.00    +0.231 C 
ATOM     23  O   UNL     1       6.460  -6.117  25.068  0.00  0.00    -0.334 OA
ATOM     24  C   UNL     1       5.132  -5.937  24.546  0.00  0.00    +0.178 C 
ATOM     25  C   UNL     1       4.134  -6.360  25.626  0.00  0.00    +0.177 C 
ATOM     26  C   UNL     1       4.330  -5.522  26.904  0.00  0.00    +0.179 C 
ATOM     27  C   UNL     1       5.805  -5.474  27.329  0.00  0.00    +0.209 C 
BRANCH  22  28
ATOM     28  O   UNL     1       8.035  -5.923  26.705  0.00  0.00    -0.359 OA
ATOM     29  H   UNL     1       8.668  -5.204  26.905  0.00  0.00    +0.213 HD
ENDBRANCH  22  28
BRANCH  25  30
ATOM     30  O   UNL     1       2.787  -6.271  25.158  0.00  0.00    -0.386 OA
ATOM     31  H   UNL     1       2.678  -6.979  24.495  0.00  0.00    +0.210 HD
ENDBRANCH  25  30
BRANCH  26  32
ATOM     32  O   UNL     1       3.745  -4.229  26.723  0.00  0.00    -0.386 OA
ATOM     33  H   UNL     1       3.098  -4.073  27.439  0.00  0.00    +0.210 HD
ENDBRANCH  26  32
BRANCH  27  34
ATOM     34  O   UNL     1       6.060  -6.788  27.925  0.00  0.00    -0.383 OA
ATOM     35  H   UNL     1       6.362  -6.618  28.844  0.00  0.00    +0.210 HD
ENDBRANCH  27  34
BRANCH  24  36
ATOM     36  C   UNL     1       4.804  -4.554  23.934  0.00  0.00    +0.190 C 
BRANCH  36  37
ATOM     37  O   UNL     1       3.803  -4.608  22.921  0.00  0.00    -0.392 OA
ATOM     38  H   UNL     1       3.007  -5.012  23.295  0.00  0.00    +0.210 HD
ENDBRANCH  36  37
ENDBRANCH  24  36
ENDBRANCH   6  22
BRANCH   5  39
ATOM     39  O   UNL     1       8.607  -5.083  23.782  0.00  0.00    -0.506 OA
ATOM     40  H   UNL     1       8.897  -4.831  22.891  0.00  0.00    +0.292 HD
ENDBRANCH   5  39
BRANCH   7  41
ATOM     41  O   UNL     1       6.284  -2.767  27.304  0.00  0.00    -0.505 OA
ATOM     42  H   UNL     1       6.426  -3.560  27.854  0.00  0.00    +0.292 HD
ENDBRANCH   7  41
BRANCH  11  43
ATOM     43  O   UNL     1       7.446   2.115  26.558  0.00  0.00    -0.501 OA
ATOM     44  H   UNL     1       6.477   2.081  26.570  0.00  0.00    +0.292 HD
ENDBRANCH  11  43
TORSDOF 13
ENDMDL
