MODEL 1
REMARK VINA RESULT:      -7.4      0.000      0.000
REMARK  Name = 
REMARK  20 active torsions:
REMARK  status: ('A' for Active; 'I' for Inactive)
REMARK    1  A    between atoms: C_3  and  O_58
REMARK    2  A    between atoms: C_6  and  C_7
REMARK    3  A    between atoms: C_8  and  C_9
REMARK    4  A    between atoms: C_9  and  O_11
REMARK    5  A    between atoms: O_11  and  C_12
REMARK    6  A    between atoms: C_12  and  C_13
REMARK    7  A    between atoms: C_15  and  O_57
REMARK    8  A    between atoms: C_17  and  O_45
REMARK    9  A    between atoms: C_18  and  O_44
REMARK   10  A    between atoms: C_19  and  O_22
REMARK   11  A    between atoms: O_22  and  C_23
REMARK   12  A    between atoms: C_24  and  C_36
REMARK   13  A    between atoms: C_28  and  O_35
REMARK   14  A    between atoms: C_30  and  O_34
REMARK   15  A    between atoms: C_38  and  O_43
REMARK   16  A    between atoms: C_39  and  O_42
REMARK   17  A    between atoms: O_45  and  C_46
REMARK   18  A    between atoms: C_46  and  C_48
REMARK   19  A    between atoms: C_49  and  C_50
REMARK   20  A    between atoms: C_53  and  O_56
REMARK                            x       y       z     vdW  Elec       q    Type
REMARK                         _______ _______ _______ _____ _____    ______ ____
ROOT
ATOM      1  C   UNL     1       6.273   1.420  28.039  0.00  0.00    +0.192 C 
ATOM      2  O   UNL     1       7.286   0.458  27.667  0.00  0.00    -0.330 OA
ATOM      3  C   UNL     1       6.913  -0.300  26.501  0.00  0.00    +0.341 C 
ATOM      4  C   UNL     1       5.695  -1.173  26.849  0.00  0.00    +0.226 C 
ATOM      5  C   UNL     1       4.557  -0.265  27.290  0.00  0.00    +0.242 C 
ATOM      6  C   UNL     1       4.964   0.701  28.407  0.00  0.00    +0.190 C 
ENDROOT
BRANCH   6   7
ATOM      7  O   UNL     1       3.879   1.615  28.602  0.00  0.00    -0.385 OA
ATOM      8  H   UNL     1       3.419   1.738  27.755  0.00  0.00    +0.210 HD
ENDBRANCH   6   7
BRANCH   4   9
ATOM      9  O   UNL     1       6.014  -2.130  27.882  0.00  0.00    -0.382 OA
ATOM     10  H   UNL     1       6.985  -2.227  27.890  0.00  0.00    +0.210 HD
ENDBRANCH   4   9
BRANCH   5  11
ATOM     11  O   UNL     1       3.492  -1.085  27.801  0.00  0.00    -0.453 OA
BRANCH  11  12
ATOM     12  C   UNL     1       2.409  -1.198  27.011  0.00  0.00    +0.332 C 
ATOM     13  O   UNL     1       1.667  -0.309  26.634  0.00  0.00    -0.246 OA
BRANCH  12  14
ATOM     14  C   UNL     1       2.277  -2.625  26.689  0.00  0.00    +0.092 C 
ATOM     15  C   UNL     1       2.957  -3.106  25.642  0.00  0.00    +0.015 C 
BRANCH  15  16
ATOM     16  C   UNL     1       2.830  -4.485  25.164  0.00  0.00    -0.025 A 
ATOM     17  C   UNL     1       2.687  -4.806  23.808  0.00  0.00    +0.011 A 
ATOM     18  C   UNL     1       2.612  -6.142  23.412  0.00  0.00    +0.046 A 
ATOM     19  C   UNL     1       2.677  -7.149  24.366  0.00  0.00    +0.117 A 
ATOM     20  C   UNL     1       2.770  -6.844  25.712  0.00  0.00    +0.046 A 
ATOM     21  C   UNL     1       2.840  -5.510  26.119  0.00  0.00    +0.011 A 
BRANCH  19  22
ATOM     22  O   UNL     1       2.633  -8.440  23.935  0.00  0.00    -0.507 OA
ATOM     23  H   UNL     1       1.718  -8.751  24.011  0.00  0.00    +0.292 HD
ENDBRANCH  19  22
ENDBRANCH  15  16
ENDBRANCH  12  14
ENDBRANCH  11  12
ENDBRANCH   5  11
BRANCH   3  24
ATOM     24  O   UNL     1       7.940  -1.228  26.161  0.00  0.00    -0.453 OA
BRANCH  24  25
ATOM     25  C   UNL     1       7.881  -2.072  25.072  0.00  0.00    +0.214 A 
ATOM     26  C   UNL     1       7.443  -3.497  25.167  0.00  0.00    +0.238 A 
ATOM     27  O   UNL     1       7.462  -4.107  26.227  0.00  0.00    -0.283 OA
ATOM     28  C   UNL     1       7.049  -4.160  23.913  0.00  0.00    +0.109 A 
ATOM     29  C   UNL     1       7.349  -3.512  22.716  0.00  0.00    +0.147 A 
ATOM     30  C   UNL     1       6.959  -4.076  21.497  0.00  0.00    +0.092 A 
ATOM     31  C   UNL     1       6.291  -5.299  21.491  0.00  0.00    +0.124 A 
ATOM     32  C   UNL     1       6.021  -5.975  22.676  0.00  0.00    +0.091 A 
ATOM     33  O   UNL     1       8.057  -2.334  22.668  0.00  0.00    -0.451 OA
ATOM     34  C   UNL     1       6.398  -5.403  23.888  0.00  0.00    +0.135 A 
ATOM     35  C   UNL     1       8.260  -1.626  23.849  0.00  0.00    +0.181 A 
BRANCH  35  36
ATOM     36  C   UNL     1       8.942  -0.307  23.653  0.00  0.00    +0.025 A 
ATOM     37  C   UNL     1      10.076   0.047  24.407  0.00  0.00    +0.015 A 
ATOM     38  C   UNL     1      10.718   1.282  24.219  0.00  0.00    +0.050 A 
ATOM     39  C   UNL     1      10.231   2.171  23.271  0.00  0.00    +0.158 A 
ATOM     40  C   UNL     1       9.097   1.859  22.536  0.00  0.00    +0.159 A 
ATOM     41  C   UNL     1       8.439   0.649  22.741  0.00  0.00    +0.060 A 
BRANCH  40  42
ATOM     42  O   UNL     1       8.664   2.771  21.612  0.00  0.00    -0.503 OA
ATOM     43  H   UNL     1       7.724   2.594  21.430  0.00  0.00    +0.292 HD
ENDBRANCH  40  42
BRANCH  39  44
ATOM     44  O   UNL     1      10.879   3.353  23.060  0.00  0.00    -0.503 OA
ATOM     45  H   UNL     1      11.145   3.324  22.119  0.00  0.00    +0.292 HD
ENDBRANCH  39  44
ENDBRANCH  35  36
BRANCH  34  46
ATOM     46  O   UNL     1       6.106  -6.069  25.044  0.00  0.00    -0.506 OA
ATOM     47  H   UNL     1       5.533  -6.830  24.862  0.00  0.00    +0.292 HD
ENDBRANCH  34  46
BRANCH  31  48
ATOM     48  O   UNL     1       5.876  -5.889  20.334  0.00  0.00    -0.507 OA
ATOM     49  H   UNL     1       4.963  -5.620  20.143  0.00  0.00    +0.292 HD
ENDBRANCH  31  48
ENDBRANCH  24  25
ENDBRANCH   3  24
BRANCH   1  50
ATOM     50  C   UNL     1       6.802   2.248  29.233  0.00  0.00    +0.266 C 
BRANCH  50  51
ATOM     51  O   UNL     1       7.471   3.495  28.930  0.00  0.00    -0.459 OA
BRANCH  51  52
ATOM     52  C   UNL     1       6.698   4.612  28.875  0.00  0.00    +0.332 C 
ATOM     53  O   UNL     1       6.141   5.135  29.824  0.00  0.00    -0.246 OA
BRANCH  52  55
ATOM     54  C   UNL     1       7.470   4.604  26.548  0.00  0.00    +0.015 C 
ATOM     55  C   UNL     1       6.599   5.063  27.463  0.00  0.00    +0.092 C 
BRANCH  54  57
ATOM     56  C   UNL     1       8.623   5.808  24.636  0.00  0.00    +0.011 A 
ATOM     57  C   UNL     1       7.566   5.035  25.138  0.00  0.00    -0.025 A 
ATOM     58  C   UNL     1       6.510   4.711  24.268  0.00  0.00    +0.011 A 
ATOM     59  C   UNL     1       6.511   5.141  22.938  0.00  0.00    +0.046 A 
ATOM     60  C   UNL     1       7.561   5.915  22.467  0.00  0.00    +0.117 A 
ATOM     61  C   UNL     1       8.623   6.247  23.302  0.00  0.00    +0.046 A 
BRANCH  60  62
ATOM     62  O   UNL     1       7.507   6.340  21.173  0.00  0.00    -0.507 OA
ATOM     63  H   UNL     1       8.227   6.973  21.019  0.00  0.00    +0.292 HD
ENDBRANCH  60  62
ENDBRANCH  54  57
ENDBRANCH  52  55
ENDBRANCH  51  52
ENDBRANCH  50  51
ENDBRANCH   1  50
TORSDOF 20
ENDMDL
MODEL 2
REMARK VINA RESULT:      -7.3      1.978      3.425
REMARK  Name = 
REMARK  20 active torsions:
REMARK  status: ('A' for Active; 'I' for Inactive)
REMARK    1  A    between atoms: C_3  and  O_58
REMARK    2  A    between atoms: C_6  and  C_7
REMARK    3  A    between atoms: C_8  and  C_9
REMARK    4  A    between atoms: C_9  and  O_11
REMARK    5  A    between atoms: O_11  and  C_12
REMARK    6  A    between atoms: C_12  and  C_13
REMARK    7  A    between atoms: C_15  and  O_57
REMARK    8  A    between atoms: C_17  and  O_45
REMARK    9  A    between atoms: C_18  and  O_44
REMARK   10  A    between atoms: C_19  and  O_22
REMARK   11  A    between atoms: O_22  and  C_23
REMARK   12  A    between atoms: C_24  and  C_36
REMARK   13  A    between atoms: C_28  and  O_35
REMARK   14  A    between atoms: C_30  and  O_34
REMARK   15  A    between atoms: C_38  and  O_43
REMARK   16  A    between atoms: C_39  and  O_42
REMARK   17  A    between atoms: O_45  and  C_46
REMARK   18  A    between atoms: C_46  and  C_48
REMARK   19  A    between atoms: C_49  and  C_50
REMARK   20  A    between atoms: C_53  and  O_56
REMARK                            x       y       z     vdW  Elec       q    Type
REMARK                         _______ _______ _______ _____ _____    ______ ____
ROOT
ATOM      1  C   UNL     1       6.065   3.634  28.032  0.00  0.00    +0.192 C 
ATOM      2  O   UNL     1       7.176   3.171  27.231  0.00  0.00    -0.330 OA
ATOM      3  C   UNL     1       6.815   2.057  26.394  0.00  0.00    +0.341 C 
ATOM      4  C   UNL     1       6.489   0.850  27.292  0.00  0.00    +0.226 C 
ATOM      5  C   UNL     1       5.339   1.228  28.213  0.00  0.00    +0.242 C 
ATOM      6  C   UNL     1       5.599   2.523  28.989  0.00  0.00    +0.190 C 
ENDROOT
BRANCH   6   7
ATOM      7  O   UNL     1       4.387   2.867  29.669  0.00  0.00    -0.385 OA
ATOM      8  H   UNL     1       3.968   3.610  29.203  0.00  0.00    +0.210 HD
ENDBRANCH   6   7
BRANCH   4   9
ATOM      9  O   UNL     1       7.642   0.439  28.056  0.00  0.00    -0.382 OA
ATOM     10  H   UNL     1       7.329   0.239  28.959  0.00  0.00    +0.210 HD
ENDBRANCH   4   9
BRANCH   5  11
ATOM     11  O   UNL     1       5.167   0.177  29.180  0.00  0.00    -0.453 OA
BRANCH  11  12
ATOM     12  C   UNL     1       4.082  -0.600  29.013  0.00  0.00    +0.332 C 
ATOM     13  O   UNL     1       2.947  -0.386  29.398  0.00  0.00    -0.246 OA
BRANCH  12  14
ATOM     14  C   UNL     1       4.531  -1.786  28.271  0.00  0.00    +0.092 C 
ATOM     15  C   UNL     1       4.105  -1.949  27.014  0.00  0.00    +0.015 C 
BRANCH  15  16
ATOM     16  C   UNL     1       4.404  -3.138  26.211  0.00  0.00    -0.025 A 
ATOM     17  C   UNL     1       5.337  -4.104  26.606  0.00  0.00    +0.011 A 
ATOM     18  C   UNL     1       5.546  -5.236  25.816  0.00  0.00    +0.046 A 
ATOM     19  C   UNL     1       4.827  -5.398  24.639  0.00  0.00    +0.117 A 
ATOM     20  C   UNL     1       3.937  -4.427  24.213  0.00  0.00    +0.046 A 
ATOM     21  C   UNL     1       3.725  -3.289  24.994  0.00  0.00    +0.011 A 
BRANCH  19  22
ATOM     22  O   UNL     1       5.036  -6.532  23.914  0.00  0.00    -0.507 OA
ATOM     23  H   UNL     1       4.297  -6.632  23.295  0.00  0.00    +0.292 HD
ENDBRANCH  19  22
ENDBRANCH  15  16
ENDBRANCH  12  14
ENDBRANCH  11  12
ENDBRANCH   5  11
BRANCH   3  24
ATOM     24  O   UNL     1       7.933   1.637  25.614  0.00  0.00    -0.453 OA
BRANCH  24  25
ATOM     25  C   UNL     1       7.881   0.618  24.686  0.00  0.00    +0.214 A 
ATOM     26  C   UNL     1       8.564  -0.697  24.881  0.00  0.00    +0.238 A 
ATOM     27  O   UNL     1       9.490  -0.831  25.668  0.00  0.00    -0.283 OA
ATOM     28  C   UNL     1       8.117  -1.813  24.032  0.00  0.00    +0.109 A 
ATOM     29  C   UNL     1       7.288  -1.514  22.953  0.00  0.00    +0.147 A 
ATOM     30  C   UNL     1       6.798  -2.542  22.139  0.00  0.00    +0.092 A 
ATOM     31  C   UNL     1       7.167  -3.860  22.405  0.00  0.00    +0.124 A 
ATOM     32  C   UNL     1       8.025  -4.167  23.454  0.00  0.00    +0.091 A 
ATOM     33  O   UNL     1       6.945  -0.226  22.616  0.00  0.00    -0.451 OA
ATOM     34  C   UNL     1       8.499  -3.143  24.270  0.00  0.00    +0.135 A 
ATOM     35  C   UNL     1       7.213   0.797  23.521  0.00  0.00    +0.181 A 
BRANCH  35  36
ATOM     36  C   UNL     1       6.691   2.134  23.093  0.00  0.00    +0.025 A 
ATOM     37  C   UNL     1       5.311   2.412  23.091  0.00  0.00    +0.015 A 
ATOM     38  C   UNL     1       4.823   3.668  22.693  0.00  0.00    +0.050 A 
ATOM     39  C   UNL     1       5.713   4.656  22.298  0.00  0.00    +0.158 A 
ATOM     40  C   UNL     1       7.076   4.397  22.262  0.00  0.00    +0.159 A 
ATOM     41  C   UNL     1       7.562   3.143  22.625  0.00  0.00    +0.060 A 
BRANCH  40  42
ATOM     42  O   UNL     1       7.908   5.410  21.867  0.00  0.00    -0.503 OA
ATOM     43  H   UNL     1       7.377   6.069  21.386  0.00  0.00    +0.292 HD
ENDBRANCH  40  42
BRANCH  39  44
ATOM     44  O   UNL     1       5.243   5.889  21.950  0.00  0.00    -0.503 OA
ATOM     45  H   UNL     1       4.317   5.897  22.265  0.00  0.00    +0.292 HD
ENDBRANCH  39  44
ENDBRANCH  35  36
BRANCH  34  46
ATOM     46  O   UNL     1       9.323  -3.464  25.310  0.00  0.00    -0.506 OA
ATOM     47  H   UNL     1      10.221  -3.136  25.147  0.00  0.00    +0.292 HD
ENDBRANCH  34  46
BRANCH  31  48
ATOM     48  O   UNL     1       6.710  -4.901  21.653  0.00  0.00    -0.507 OA
ATOM     49  H   UNL     1       7.029  -4.807  20.741  0.00  0.00    +0.292 HD
ENDBRANCH  31  48
ENDBRANCH  24  25
ENDBRANCH   3  24
BRANCH   1  50
ATOM     50  C   UNL     1       6.519   4.884  28.819  0.00  0.00    +0.266 C 
BRANCH  50  51
ATOM     51  O   UNL     1       7.650   5.621  28.298  0.00  0.00    -0.459 OA
BRANCH  51  52
ATOM     52  C   UNL     1       7.449   6.335  27.158  0.00  0.00    +0.332 C 
ATOM     53  O   UNL     1       6.381   6.786  26.785  0.00  0.00    -0.246 OA
BRANCH  52  55
ATOM     54  C   UNL     1       9.026   5.533  25.460  0.00  0.00    +0.015 C 
ATOM     55  C   UNL     1       8.732   6.432  26.415  0.00  0.00    +0.092 C 
BRANCH  54  57
ATOM     56  C   UNL     1      10.615   4.361  23.868  0.00  0.00    +0.011 A 
ATOM     57  C   UNL     1      10.296   5.435  24.712  0.00  0.00    -0.025 A 
ATOM     58  C   UNL     1      11.263   6.437  24.905  0.00  0.00    +0.011 A 
ATOM     59  C   UNL     1      12.509   6.370  24.274  0.00  0.00    +0.046 A 
ATOM     60  C   UNL     1      12.807   5.292  23.454  0.00  0.00    +0.117 A 
ATOM     61  C   UNL     1      11.869   4.289  23.238  0.00  0.00    +0.046 A 
BRANCH  60  62
ATOM     62  O   UNL     1      14.045   5.251  22.884  0.00  0.00    -0.507 OA
ATOM     63  H   UNL     1      14.619   5.893  23.332  0.00  0.00    +0.292 HD
ENDBRANCH  60  62
ENDBRANCH  54  57
ENDBRANCH  52  55
ENDBRANCH  51  52
ENDBRANCH  50  51
ENDBRANCH   1  50
TORSDOF 20
ENDMDL
MODEL 3
REMARK VINA RESULT:      -7.2      2.230      9.412
REMARK  Name = 
REMARK  20 active torsions:
REMARK  status: ('A' for Active; 'I' for Inactive)
REMARK    1  A    between atoms: C_3  and  O_58
REMARK    2  A    between atoms: C_6  and  C_7
REMARK    3  A    between atoms: C_8  and  C_9
REMARK    4  A    between atoms: C_9  and  O_11
REMARK    5  A    between atoms: O_11  and  C_12
REMARK    6  A    between atoms: C_12  and  C_13
REMARK    7  A    between atoms: C_15  and  O_57
REMARK    8  A    between atoms: C_17  and  O_45
REMARK    9  A    between atoms: C_18  and  O_44
REMARK   10  A    between atoms: C_19  and  O_22
REMARK   11  A    between atoms: O_22  and  C_23
REMARK   12  A    between atoms: C_24  and  C_36
REMARK   13  A    between atoms: C_28  and  O_35
REMARK   14  A    between atoms: C_30  and  O_34
REMARK   15  A    between atoms: C_38  and  O_43
REMARK   16  A    between atoms: C_39  and  O_42
REMARK   17  A    between atoms: O_45  and  C_46
REMARK   18  A    between atoms: C_46  and  C_48
REMARK   19  A    between atoms: C_49  and  C_50
REMARK   20  A    between atoms: C_53  and  O_56
REMARK                            x       y       z     vdW  Elec       q    Type
REMARK                         _______ _______ _______ _____ _____    ______ ____
ROOT
ATOM      1  C   UNL     1       7.856  -3.805  25.424  0.00  0.00    +0.192 C 
ATOM      2  O   UNL     1       6.792  -2.943  25.890  0.00  0.00    -0.330 OA
ATOM      3  C   UNL     1       6.221  -2.161  24.825  0.00  0.00    +0.341 C 
ATOM      4  C   UNL     1       7.285  -1.175  24.311  0.00  0.00    +0.226 C 
ATOM      5  C   UNL     1       8.483  -1.971  23.814  0.00  0.00    +0.242 C 
ATOM      6  C   UNL     1       9.011  -2.964  24.854  0.00  0.00    +0.190 C 
ENDROOT
BRANCH   6   7
ATOM      7  O   UNL     1      10.004  -3.772  24.212  0.00  0.00    -0.385 OA
ATOM      8  H   UNL     1      10.472  -4.287  24.890  0.00  0.00    +0.210 HD
ENDBRANCH   6   7
BRANCH   4   9
ATOM      9  O   UNL     1       7.682  -0.247  25.343  0.00  0.00    -0.382 OA
ATOM     10  H   UNL     1       8.344   0.352  24.948  0.00  0.00    +0.210 HD
ENDBRANCH   4   9
BRANCH   5  11
ATOM     11  O   UNL     1       9.549  -1.052  23.520  0.00  0.00    -0.453 OA
BRANCH  11  12
ATOM     12  C   UNL     1       9.600  -0.600  22.254  0.00  0.00    +0.332 C 
ATOM     13  O   UNL     1       9.610  -1.258  21.229  0.00  0.00    -0.246 OA
BRANCH  12  14
ATOM     14  C   UNL     1       9.654   0.866  22.338  0.00  0.00    +0.092 C 
ATOM     15  C   UNL     1      10.211   1.421  23.419  0.00  0.00    +0.015 C 
BRANCH  15  16
ATOM     16  C   UNL     1      10.233   2.866  23.661  0.00  0.00    -0.025 A 
ATOM     17  C   UNL     1      11.349   3.664  23.378  0.00  0.00    +0.011 A 
ATOM     18  C   UNL     1      11.293   5.043  23.592  0.00  0.00    +0.046 A 
ATOM     19  C   UNL     1      10.130   5.617  24.088  0.00  0.00    +0.117 A 
ATOM     20  C   UNL     1       9.037   4.833  24.417  0.00  0.00    +0.046 A 
ATOM     21  C   UNL     1       9.086   3.452  24.211  0.00  0.00    +0.011 A 
BRANCH  19  22
ATOM     22  O   UNL     1      10.105   6.968  24.251  0.00  0.00    -0.507 OA
ATOM     23  H   UNL     1      10.909   7.333  23.850  0.00  0.00    +0.292 HD
ENDBRANCH  19  22
ENDBRANCH  15  16
ENDBRANCH  12  14
ENDBRANCH  11  12
ENDBRANCH   5  11
BRANCH   3  24
ATOM     24  O   UNL     1       5.171  -1.334  25.323  0.00  0.00    -0.453 OA
BRANCH  24  25
ATOM     25  C   UNL     1       4.252  -1.745  26.265  0.00  0.00    +0.214 A 
ATOM     26  C   UNL     1       3.191  -2.758  25.981  0.00  0.00    +0.238 A 
ATOM     27  O   UNL     1       2.832  -3.012  24.839  0.00  0.00    -0.283 OA
ATOM     28  C   UNL     1       2.546  -3.392  27.141  0.00  0.00    +0.109 A 
ATOM     29  C   UNL     1       2.777  -2.834  28.397  0.00  0.00    +0.147 A 
ATOM     30  C   UNL     1       2.224  -3.423  29.539  0.00  0.00    +0.092 A 
ATOM     31  C   UNL     1       1.422  -4.554  29.405  0.00  0.00    +0.124 A 
ATOM     32  C   UNL     1       1.150  -5.098  28.155  0.00  0.00    +0.091 A 
ATOM     33  O   UNL     1       3.513  -1.685  28.573  0.00  0.00    -0.451 OA
ATOM     34  C   UNL     1       1.715  -4.517  27.023  0.00  0.00    +0.135 A 
ATOM     35  C   UNL     1       4.267  -1.204  27.507  0.00  0.00    +0.181 A 
BRANCH  35  36
ATOM     36  C   UNL     1       5.112  -0.016  27.853  0.00  0.00    +0.025 A 
ATOM     37  C   UNL     1       4.657   1.296  27.622  0.00  0.00    +0.015 A 
ATOM     38  C   UNL     1       5.448   2.409  27.952  0.00  0.00    +0.050 A 
ATOM     39  C   UNL     1       6.699   2.217  28.518  0.00  0.00    +0.158 A 
ATOM     40  C   UNL     1       7.184   0.935  28.728  0.00  0.00    +0.159 A 
ATOM     41  C   UNL     1       6.417  -0.173  28.374  0.00  0.00    +0.060 A 
BRANCH  40  42
ATOM     42  O   UNL     1       8.423   0.805  29.294  0.00  0.00    -0.503 OA
ATOM     43  H   UNL     1       8.307   0.673  30.252  0.00  0.00    +0.292 HD
ENDBRANCH  40  42
BRANCH  39  44
ATOM     44  O   UNL     1       7.451   3.299  28.876  0.00  0.00    -0.503 OA
ATOM     45  H   UNL     1       7.864   3.599  28.042  0.00  0.00    +0.292 HD
ENDBRANCH  39  44
ENDBRANCH  35  36
BRANCH  34  46
ATOM     46  O   UNL     1       1.456  -5.076  25.804  0.00  0.00    -0.506 OA
ATOM     47  H   UNL     1       1.948  -5.906  25.698  0.00  0.00    +0.292 HD
ENDBRANCH  34  46
BRANCH  31  48
ATOM     48  O   UNL     1       0.867  -5.176  30.485  0.00  0.00    -0.507 OA
ATOM     49  H   UNL     1       0.991  -6.136  30.404  0.00  0.00    +0.292 HD
ENDBRANCH  31  48
ENDBRANCH  24  25
ENDBRANCH   3  24
BRANCH   1  50
ATOM     50  C   UNL     1       8.338  -4.670  26.610  0.00  0.00    +0.266 C 
BRANCH  50  51
ATOM     51  O   UNL     1       7.578  -5.867  26.909  0.00  0.00    -0.459 OA
BRANCH  51  52
ATOM     52  C   UNL     1       6.429  -5.707  27.617  0.00  0.00    +0.332 C 
ATOM     53  O   UNL     1       6.334  -5.146  28.694  0.00  0.00    -0.246 OA
BRANCH  52  55
ATOM     54  C   UNL     1       5.174  -6.188  25.566  0.00  0.00    +0.015 C 
ATOM     55  C   UNL     1       5.317  -6.371  26.891  0.00  0.00    +0.092 C 
BRANCH  54  57
ATOM     56  C   UNL     1       3.699  -6.116  23.503  0.00  0.00    +0.011 A 
ATOM     57  C   UNL     1       4.067  -6.693  24.728  0.00  0.00    -0.025 A 
ATOM     58  C   UNL     1       3.298  -7.766  25.212  0.00  0.00    +0.011 A 
ATOM     59  C   UNL     1       2.199  -8.250  24.496  0.00  0.00    +0.046 A 
ATOM     60  C   UNL     1       1.848  -7.655  23.293  0.00  0.00    +0.117 A 
ATOM     61  C   UNL     1       2.592  -6.596  22.785  0.00  0.00    +0.046 A 
BRANCH  60  62
ATOM     62  O   UNL     1       0.751  -8.138  22.643  0.00  0.00    -0.507 OA
ATOM     63  H   UNL     1       0.983  -8.302  21.714  0.00  0.00    +0.292 HD
ENDBRANCH  60  62
ENDBRANCH  54  57
ENDBRANCH  52  55
ENDBRANCH  51  52
ENDBRANCH  50  51
ENDBRANCH   1  50
TORSDOF 20
ENDMDL
MODEL 4
REMARK VINA RESULT:      -7.1      2.031     10.189
REMARK  Name = 
REMARK  20 active torsions:
REMARK  status: ('A' for Active; 'I' for Inactive)
REMARK    1  A    between atoms: C_3  and  O_58
REMARK    2  A    between atoms: C_6  and  C_7
REMARK    3  A    between atoms: C_8  and  C_9
REMARK    4  A    between atoms: C_9  and  O_11
REMARK    5  A    between atoms: O_11  and  C_12
REMARK    6  A    between atoms: C_12  and  C_13
REMARK    7  A    between atoms: C_15  and  O_57
REMARK    8  A    between atoms: C_17  and  O_45
REMARK    9  A    between atoms: C_18  and  O_44
REMARK   10  A    between atoms: C_19  and  O_22
REMARK   11  A    between atoms: O_22  and  C_23
REMARK   12  A    between atoms: C_24  and  C_36
REMARK   13  A    between atoms: C_28  and  O_35
REMARK   14  A    between atoms: C_30  and  O_34
REMARK   15  A    between atoms: C_38  and  O_43
REMARK   16  A    between atoms: C_39  and  O_42
REMARK   17  A    between atoms: O_45  and  C_46
REMARK   18  A    between atoms: C_46  and  C_48
REMARK   19  A    between atoms: C_49  and  C_50
REMARK   20  A    between atoms: C_53  and  O_56
REMARK                            x       y       z     vdW  Elec       q    Type
REMARK                         _______ _______ _______ _____ _____    ______ ____
ROOT
ATOM      1  C   UNL     1       6.833  -1.905  22.802  0.00  0.00    +0.192 C 
ATOM      2  O   UNL     1       6.478  -2.261  24.157  0.00  0.00    -0.330 OA
ATOM      3  C   UNL     1       6.740  -1.191  25.086  0.00  0.00    +0.341 C 
ATOM      4  C   UNL     1       8.260  -0.963  25.159  0.00  0.00    +0.226 C 
ATOM      5  C   UNL     1       8.764  -0.607  23.768  0.00  0.00    +0.242 C 
ATOM      6  C   UNL     1       8.343  -1.623  22.703  0.00  0.00    +0.190 C 
ENDROOT
BRANCH   6   7
ATOM      7  O   UNL     1       8.712  -1.089  21.427  0.00  0.00    -0.385 OA
ATOM      8  H   UNL     1       8.975  -1.822  20.846  0.00  0.00    +0.210 HD
ENDBRANCH   6   7
BRANCH   4   9
ATOM      9  O   UNL     1       8.942  -2.130  25.665  0.00  0.00    -0.382 OA
ATOM     10  H   UNL     1       9.803  -2.179  25.207  0.00  0.00    +0.210 HD
ENDBRANCH   4   9
BRANCH   5  11
ATOM     11  O   UNL     1      10.202  -0.588  23.797  0.00  0.00    -0.453 OA
BRANCH  11  12
ATOM     12  C   UNL     1      10.764   0.563  24.206  0.00  0.00    +0.332 C 
ATOM     13  O   UNL     1      11.667   0.704  25.012  0.00  0.00    -0.246 OA
BRANCH  12  14
ATOM     14  C   UNL     1      10.068   1.643  23.496  0.00  0.00    +0.092 C 
ATOM     15  C   UNL     1       9.938   2.826  24.106  0.00  0.00    +0.015 C 
BRANCH  15  16
ATOM     16  C   UNL     1       9.179   3.945  23.541  0.00  0.00    -0.025 A 
ATOM     17  C   UNL     1       9.547   5.283  23.732  0.00  0.00    +0.011 A 
ATOM     18  C   UNL     1       8.806   6.302  23.132  0.00  0.00    +0.046 A 
ATOM     19  C   UNL     1       7.705   5.985  22.349  0.00  0.00    +0.117 A 
ATOM     20  C   UNL     1       7.303   4.670  22.191  0.00  0.00    +0.046 A 
ATOM     21  C   UNL     1       8.035   3.643  22.792  0.00  0.00    +0.011 A 
BRANCH  19  22
ATOM     22  O   UNL     1       7.029   7.007  21.754  0.00  0.00    -0.507 OA
ATOM     23  H   UNL     1       6.298   6.626  21.244  0.00  0.00    +0.292 HD
ENDBRANCH  19  22
ENDBRANCH  15  16
ENDBRANCH  12  14
ENDBRANCH  11  12
ENDBRANCH   5  11
BRANCH   3  24
ATOM     24  O   UNL     1       6.368  -1.577  26.407  0.00  0.00    -0.453 OA
BRANCH  24  25
ATOM     25  C   UNL     1       5.755  -0.732  27.309  0.00  0.00    +0.214 A 
ATOM     26  C   UNL     1       6.463   0.405  27.970  0.00  0.00    +0.238 A 
ATOM     27  O   UNL     1       7.683   0.447  28.049  0.00  0.00    -0.283 OA
ATOM     28  C   UNL     1       5.624   1.446  28.585  0.00  0.00    +0.109 A 
ATOM     29  C   UNL     1       4.264   1.179  28.732  0.00  0.00    +0.147 A 
ATOM     30  C   UNL     1       3.413   2.151  29.270  0.00  0.00    +0.092 A 
ATOM     31  C   UNL     1       3.942   3.374  29.678  0.00  0.00    +0.124 A 
ATOM     32  C   UNL     1       5.302   3.638  29.573  0.00  0.00    +0.091 A 
ATOM     33  O   UNL     1       3.707  -0.033  28.400  0.00  0.00    -0.451 OA
ATOM     34  C   UNL     1       6.143   2.674  29.024  0.00  0.00    +0.135 A 
ATOM     35  C   UNL     1       4.460  -0.934  27.653  0.00  0.00    +0.181 A 
BRANCH  35  36
ATOM     36  C   UNL     1       3.708  -2.167  27.257  0.00  0.00    +0.025 A 
ATOM     37  C   UNL     1       3.496  -2.489  25.903  0.00  0.00    +0.015 A 
ATOM     38  C   UNL     1       2.794  -3.648  25.532  0.00  0.00    +0.050 A 
ATOM     39  C   UNL     1       2.302  -4.495  26.513  0.00  0.00    +0.158 A 
ATOM     40  C   UNL     1       2.470  -4.185  27.855  0.00  0.00    +0.159 A 
ATOM     41  C   UNL     1       3.138  -3.021  28.228  0.00  0.00    +0.060 A 
BRANCH  40  42
ATOM     42  O   UNL     1       1.967  -5.059  28.781  0.00  0.00    -0.503 OA
ATOM     43  H   UNL     1       2.284  -5.952  28.558  0.00  0.00    +0.292 HD
ENDBRANCH  40  42
BRANCH  39  44
ATOM     44  O   UNL     1       1.655  -5.642  26.153  0.00  0.00    -0.503 OA
ATOM     45  H   UNL     1       1.520  -5.556  25.188  0.00  0.00    +0.292 HD
ENDBRANCH  39  44
ENDBRANCH  35  36
BRANCH  34  46
ATOM     46  O   UNL     1       7.474   2.958  28.907  0.00  0.00    -0.506 OA
ATOM     47  H   UNL     1       8.006   2.159  29.049  0.00  0.00    +0.292 HD
ENDBRANCH  34  46
BRANCH  31  48
ATOM     48  O   UNL     1       3.157   4.361  30.197  0.00  0.00    -0.507 OA
ATOM     49  H   UNL     1       2.363   4.465  29.648  0.00  0.00    +0.292 HD
ENDBRANCH  31  48
ENDBRANCH  24  25
ENDBRANCH   3  24
BRANCH   1  50
ATOM     50  C   UNL     1       6.428  -3.070  21.870  0.00  0.00    +0.266 C 
BRANCH  50  51
ATOM     51  O   UNL     1       6.873  -4.398  22.236  0.00  0.00    -0.459 OA
BRANCH  51  52
ATOM     52  C   UNL     1       5.943  -5.389  22.211  0.00  0.00    +0.332 C 
ATOM     53  O   UNL     1       5.569  -5.983  21.216  0.00  0.00    -0.246 OA
BRANCH  52  55
ATOM     54  C   UNL     1       6.225  -5.425  24.647  0.00  0.00    +0.015 C 
ATOM     55  C   UNL     1       5.417  -5.594  23.585  0.00  0.00    +0.092 C 
BRANCH  54  57
ATOM     56  C   UNL     1       6.418  -4.968  27.135  0.00  0.00    +0.011 A 
ATOM     57  C   UNL     1       5.881  -5.691  26.059  0.00  0.00    -0.025 A 
ATOM     58  C   UNL     1       5.022  -6.766  26.346  0.00  0.00    +0.011 A 
ATOM     59  C   UNL     1       4.707  -7.109  27.664  0.00  0.00    +0.046 A 
ATOM     60  C   UNL     1       5.260  -6.387  28.712  0.00  0.00    +0.117 A 
ATOM     61  C   UNL     1       6.108  -5.314  28.460  0.00  0.00    +0.046 A 
BRANCH  60  62
ATOM     62  O   UNL     1       4.951  -6.774  29.982  0.00  0.00    -0.507 OA
ATOM     63  H   UNL     1       4.015  -6.577  30.152  0.00  0.00    +0.292 HD
ENDBRANCH  60  62
ENDBRANCH  54  57
ENDBRANCH  52  55
ENDBRANCH  51  52
ENDBRANCH  50  51
ENDBRANCH   1  50
TORSDOF 20
ENDMDL
MODEL 5
REMARK VINA RESULT:      -7.1      1.487      2.184
REMARK  Name = 
REMARK  20 active torsions:
REMARK  status: ('A' for Active; 'I' for Inactive)
REMARK    1  A    between atoms: C_3  and  O_58
REMARK    2  A    between atoms: C_6  and  C_7
REMARK    3  A    between atoms: C_8  and  C_9
REMARK    4  A    between atoms: C_9  and  O_11
REMARK    5  A    between atoms: O_11  and  C_12
REMARK    6  A    between atoms: C_12  and  C_13
REMARK    7  A    between atoms: C_15  and  O_57
REMARK    8  A    between atoms: C_17  and  O_45
REMARK    9  A    between atoms: C_18  and  O_44
REMARK   10  A    between atoms: C_19  and  O_22
REMARK   11  A    between atoms: O_22  and  C_23
REMARK   12  A    between atoms: C_24  and  C_36
REMARK   13  A    between atoms: C_28  and  O_35
REMARK   14  A    between atoms: C_30  and  O_34
REMARK   15  A    between atoms: C_38  and  O_43
REMARK   16  A    between atoms: C_39  and  O_42
REMARK   17  A    between atoms: O_45  and  C_46
REMARK   18  A    between atoms: C_46  and  C_48
REMARK   19  A    between atoms: C_49  and  C_50
REMARK   20  A    between atoms: C_53  and  O_56
REMARK                            x       y       z     vdW  Elec       q    Type
REMARK                         _______ _______ _______ _____ _____    ______ ____
ROOT
ATOM      1  C   UNL     1       6.186   2.250  27.754  0.00  0.00    +0.192 C 
ATOM      2  O   UNL     1       7.237   1.433  27.190  0.00  0.00    -0.330 OA
ATOM      3  C   UNL     1       6.779   0.657  26.067  0.00  0.00    +0.341 C 
ATOM      4  C   UNL     1       5.750  -0.373  26.566  0.00  0.00    +0.226 C 
ATOM      5  C   UNL     1       4.593   0.373  27.215  0.00  0.00    +0.242 C 
ATOM      6  C   UNL     1       5.052   1.361  28.292  0.00  0.00    +0.190 C 
ENDROOT
BRANCH   6   7
ATOM      7  O   UNL     1       3.907   2.125  28.691  0.00  0.00    -0.385 OA
ATOM      8  H   UNL     1       3.658   1.864  29.594  0.00  0.00    +0.210 HD
ENDBRANCH   6   7
BRANCH   4   9
ATOM      9  O   UNL     1       6.346  -1.300  27.498  0.00  0.00    -0.382 OA
ATOM     10  H   UNL     1       7.181  -1.609  27.098  0.00  0.00    +0.210 HD
ENDBRANCH   4   9
BRANCH   5  11
ATOM     11  O   UNL     1       3.734  -0.587  27.853  0.00  0.00    -0.453 OA
BRANCH  11  12
ATOM     12  C   UNL     1       2.615  -0.909  27.180  0.00  0.00    +0.332 C 
ATOM     13  O   UNL     1       1.702  -0.169  26.857  0.00  0.00    -0.246 OA
BRANCH  12  14
ATOM     14  C   UNL     1       2.692  -2.350  26.910  0.00  0.00    +0.092 C 
ATOM     15  C   UNL     1       3.377  -2.760  25.837  0.00  0.00    +0.015 C 
BRANCH  15  16
ATOM     16  C   UNL     1       3.441  -4.160  25.410  0.00  0.00    -0.025 A 
ATOM     17  C   UNL     1       4.009  -5.168  26.199  0.00  0.00    +0.011 A 
ATOM     18  C   UNL     1       4.002  -6.491  25.754  0.00  0.00    +0.046 A 
ATOM     19  C   UNL     1       3.433  -6.802  24.526  0.00  0.00    +0.117 A 
ATOM     20  C   UNL     1       2.911  -5.809  23.715  0.00  0.00    +0.046 A 
ATOM     21  C   UNL     1       2.918  -4.482  24.151  0.00  0.00    +0.011 A 
BRANCH  19  22
ATOM     22  O   UNL     1       3.417  -8.109  24.143  0.00  0.00    -0.507 OA
ATOM     23  H   UNL     1       4.200  -8.269  23.595  0.00  0.00    +0.292 HD
ENDBRANCH  19  22
ENDBRANCH  15  16
ENDBRANCH  12  14
ENDBRANCH  11  12
ENDBRANCH   5  11
BRANCH   3  24
ATOM     24  O   UNL     1       7.845  -0.125  25.535  0.00  0.00    -0.453 OA
BRANCH  24  25
ATOM     25  C   UNL     1       7.678  -1.089  24.563  0.00  0.00    +0.214 A 
ATOM     26  C   UNL     1       7.858  -2.549  24.823  0.00  0.00    +0.238 A 
ATOM     27  O   UNL     1       8.504  -2.959  25.777  0.00  0.00    -0.283 OA
ATOM     28  C   UNL     1       7.277  -3.479  23.841  0.00  0.00    +0.109 A 
ATOM     29  C   UNL     1       6.835  -2.949  22.630  0.00  0.00    +0.147 A 
ATOM     30  C   UNL     1       6.234  -3.780  21.678  0.00  0.00    +0.092 A 
ATOM     31  C   UNL     1       6.107  -5.143  21.943  0.00  0.00    +0.124 A 
ATOM     32  C   UNL     1       6.580  -5.691  23.130  0.00  0.00    +0.091 A 
ATOM     33  O   UNL     1       6.992  -1.623  22.300  0.00  0.00    -0.451 OA
ATOM     34  C   UNL     1       7.164  -4.857  24.080  0.00  0.00    +0.135 A 
ATOM     35  C   UNL     1       7.365  -0.725  23.296  0.00  0.00    +0.181 A 
BRANCH  35  36
ATOM     36  C   UNL     1       7.392   0.703  22.841  0.00  0.00    +0.025 A 
ATOM     37  C   UNL     1       8.600   1.334  22.492  0.00  0.00    +0.015 A 
ATOM     38  C   UNL     1       8.624   2.671  22.061  0.00  0.00    +0.050 A 
ATOM     39  C   UNL     1       7.438   3.385  21.975  0.00  0.00    +0.158 A 
ATOM     40  C   UNL     1       6.237   2.795  22.343  0.00  0.00    +0.159 A 
ATOM     41  C   UNL     1       6.212   1.479  22.800  0.00  0.00    +0.060 A 
BRANCH  40  42
ATOM     42  O   UNL     1       5.097   3.544  22.233  0.00  0.00    -0.503 OA
ATOM     43  H   UNL     1       4.837   3.566  21.295  0.00  0.00    +0.292 HD
ENDBRANCH  40  42
BRANCH  39  44
ATOM     44  O   UNL     1       7.455   4.671  21.518  0.00  0.00    -0.503 OA
ATOM     45  H   UNL     1       6.545   4.997  21.664  0.00  0.00    +0.292 HD
ENDBRANCH  39  44
ENDBRANCH  35  36
BRANCH  34  46
ATOM     46  O   UNL     1       7.603  -5.408  25.250  0.00  0.00    -0.506 OA
ATOM     47  H   UNL     1       6.854  -5.633  25.823  0.00  0.00    +0.292 HD
ENDBRANCH  34  46
BRANCH  31  48
ATOM     48  O   UNL     1       5.520  -5.997  21.057  0.00  0.00    -0.507 OA
ATOM     49  H   UNL     1       4.555  -5.891  21.097  0.00  0.00    +0.292 HD
ENDBRANCH  31  48
ENDBRANCH  24  25
ENDBRANCH   3  24
BRANCH   1  50
ATOM     50  C   UNL     1       6.792   3.114  28.883  0.00  0.00    +0.266 C 
BRANCH  50  51
ATOM     51  O   UNL     1       6.185   4.407  29.126  0.00  0.00    -0.459 OA
BRANCH  51  52
ATOM     52  C   UNL     1       6.048   5.234  28.056  0.00  0.00    +0.332 C 
ATOM     53  O   UNL     1       4.991   5.566  27.550  0.00  0.00    -0.246 OA
BRANCH  52  55
ATOM     54  C   UNL     1       7.657   5.645  26.252  0.00  0.00    +0.015 C 
ATOM     55  C   UNL     1       7.396   5.626  27.571  0.00  0.00    +0.092 C 
BRANCH  54  57
ATOM     56  C   UNL     1       9.423   5.245  24.476  0.00  0.00    +0.011 A 
ATOM     57  C   UNL     1       8.968   5.909  25.624  0.00  0.00    -0.025 A 
ATOM     58  C   UNL     1       9.833   6.827  26.246  0.00  0.00    +0.011 A 
ATOM     59  C   UNL     1      11.111   7.076  25.736  0.00  0.00    +0.046 A 
ATOM     60  C   UNL     1      11.544   6.398  24.606  0.00  0.00    +0.117 A 
ATOM     61  C   UNL     1      10.709   5.489  23.966  0.00  0.00    +0.046 A 
BRANCH  60  62
ATOM     62  O   UNL     1      12.808   6.647  24.162  0.00  0.00    -0.507 OA
ATOM     63  H   UNL     1      13.241   7.263  24.774  0.00  0.00    +0.292 HD
ENDBRANCH  60  62
ENDBRANCH  54  57
ENDBRANCH  52  55
ENDBRANCH  51  52
ENDBRANCH  50  51
ENDBRANCH   1  50
TORSDOF 20
ENDMDL
MODEL 6
REMARK VINA RESULT:      -7.0      2.115      9.080
REMARK  Name = 
REMARK  20 active torsions:
REMARK  status: ('A' for Active; 'I' for Inactive)
REMARK    1  A    between atoms: C_3  and  O_58
REMARK    2  A    between atoms: C_6  and  C_7
REMARK    3  A    between atoms: C_8  and  C_9
REMARK    4  A    between atoms: C_9  and  O_11
REMARK    5  A    between atoms: O_11  and  C_12
REMARK    6  A    between atoms: C_12  and  C_13
REMARK    7  A    between atoms: C_15  and  O_57
REMARK    8  A    between atoms: C_17  and  O_45
REMARK    9  A    between atoms: C_18  and  O_44
REMARK   10  A    between atoms: C_19  and  O_22
REMARK   11  A    between atoms: O_22  and  C_23
REMARK   12  A    between atoms: C_24  and  C_36
REMARK   13  A    between atoms: C_28  and  O_35
REMARK   14  A    between atoms: C_30  and  O_34
REMARK   15  A    between atoms: C_38  and  O_43
REMARK   16  A    between atoms: C_39  and  O_42
REMARK   17  A    between atoms: O_45  and  C_46
REMARK   18  A    between atoms: C_46  and  C_48
REMARK   19  A    between atoms: C_49  and  C_50
REMARK   20  A    between atoms: C_53  and  O_56
REMARK                            x       y       z     vdW  Elec       q    Type
REMARK                         _______ _______ _______ _____ _____    ______ ____
ROOT
ATOM      1  C   UNL     1       8.168  -0.915  22.734  0.00  0.00    +0.192 C 
ATOM      2  O   UNL     1       8.074  -1.357  24.108  0.00  0.00    -0.330 OA
ATOM      3  C   UNL     1       7.849  -0.262  25.016  0.00  0.00    +0.341 C 
ATOM      4  C   UNL     1       9.092   0.645  25.013  0.00  0.00    +0.226 C 
ATOM      5  C   UNL     1       9.316   1.155  23.597  0.00  0.00    +0.242 C 
ATOM      6  C   UNL     1       9.370   0.030  22.560  0.00  0.00    +0.190 C 
ENDROOT
BRANCH   6   7
ATOM      7  O   UNL     1       9.396   0.640  21.264  0.00  0.00    -0.385 OA
ATOM      8  H   UNL     1      10.175   0.314  20.782  0.00  0.00    +0.210 HD
ENDBRANCH   6   7
BRANCH   4   9
ATOM      9  O   UNL     1      10.257  -0.060  25.491  0.00  0.00    -0.382 OA
ATOM     10  H   UNL     1      10.088  -0.290  26.424  0.00  0.00    +0.210 HD
ENDBRANCH   4   9
BRANCH   5  11
ATOM     11  O   UNL     1      10.581   1.838  23.555  0.00  0.00    -0.453 OA
BRANCH  11  12
ATOM     12  C   UNL     1      10.521   3.178  23.469  0.00  0.00    +0.332 C 
ATOM     13  O   UNL     1      11.449   3.968  23.491  0.00  0.00    -0.246 OA
BRANCH  12  14
ATOM     14  C   UNL     1       9.098   3.524  23.351  0.00  0.00    +0.092 C 
ATOM     15  C   UNL     1       8.762   4.817  23.277  0.00  0.00    +0.015 C 
BRANCH  15  16
ATOM     16  C   UNL     1       7.375   5.288  23.257  0.00  0.00    -0.025 A 
ATOM     17  C   UNL     1       6.388   4.775  24.109  0.00  0.00    +0.011 A 
ATOM     18  C   UNL     1       5.093   5.295  24.070  0.00  0.00    +0.046 A 
ATOM     19  C   UNL     1       4.789   6.320  23.184  0.00  0.00    +0.117 A 
ATOM     20  C   UNL     1       5.742   6.804  22.305  0.00  0.00    +0.046 A 
ATOM     21  C   UNL     1       7.039   6.285  22.333  0.00  0.00    +0.011 A 
BRANCH  19  22
ATOM     22  O   UNL     1       3.523   6.823  23.201  0.00  0.00    -0.507 OA
ATOM     23  H   UNL     1       3.234   6.873  24.125  0.00  0.00    +0.292 HD
ENDBRANCH  19  22
ENDBRANCH  15  16
ENDBRANCH  12  14
ENDBRANCH  11  12
ENDBRANCH   5  11
BRANCH   3  24
ATOM     24  O   UNL     1       7.753  -0.740  26.356  0.00  0.00    -0.453 OA
BRANCH  24  25
ATOM     25  C   UNL     1       6.863  -1.713  26.761  0.00  0.00    +0.214 A 
ATOM     26  C   UNL     1       7.140  -3.175  26.634  0.00  0.00    +0.238 A 
ATOM     27  O   UNL     1       7.976  -3.607  25.853  0.00  0.00    -0.283 OA
ATOM     28  C   UNL     1       6.314  -4.084  27.445  0.00  0.00    +0.109 A 
ATOM     29  C   UNL     1       5.184  -3.553  28.065  0.00  0.00    +0.147 A 
ATOM     30  C   UNL     1       4.388  -4.362  28.883  0.00  0.00    +0.092 A 
ATOM     31  C   UNL     1       4.720  -5.705  29.049  0.00  0.00    +0.124 A 
ATOM     32  C   UNL     1       5.822  -6.257  28.404  0.00  0.00    +0.091 A 
ATOM     33  O   UNL     1       4.783  -2.250  27.884  0.00  0.00    -0.451 OA
ATOM     34  C   UNL     1       6.620  -5.445  27.603  0.00  0.00    +0.135 A 
ATOM     35  C   UNL     1       5.661  -1.357  27.276  0.00  0.00    +0.181 A 
BRANCH  35  36
ATOM     36  C   UNL     1       5.157   0.053  27.238  0.00  0.00    +0.025 A 
ATOM     37  C   UNL     1       5.295   0.907  28.349  0.00  0.00    +0.015 A 
ATOM     38  C   UNL     1       4.826   2.231  28.311  0.00  0.00    +0.050 A 
ATOM     39  C   UNL     1       4.219   2.710  27.160  0.00  0.00    +0.158 A 
ATOM     40  C   UNL     1       4.043   1.880  26.062  0.00  0.00    +0.159 A 
ATOM     41  C   UNL     1       4.478   0.557  26.106  0.00  0.00    +0.060 A 
BRANCH  40  42
ATOM     42  O   UNL     1       3.442   2.408  24.952  0.00  0.00    -0.503 OA
ATOM     43  H   UNL     1       2.753   3.030  25.247  0.00  0.00    +0.292 HD
ENDBRANCH  40  42
BRANCH  39  44
ATOM     44  O   UNL     1       3.800   4.008  27.108  0.00  0.00    -0.503 OA
ATOM     45  H   UNL     1       4.614   4.523  26.937  0.00  0.00    +0.292 HD
ENDBRANCH  39  44
ENDBRANCH  35  36
BRANCH  34  46
ATOM     46  O   UNL     1       7.710  -5.997  26.994  0.00  0.00    -0.506 OA
ATOM     47  H   UNL     1       7.524  -6.909  26.724  0.00  0.00    +0.292 HD
ENDBRANCH  34  46
BRANCH  31  48
ATOM     48  O   UNL     1       3.987  -6.536  29.844  0.00  0.00    -0.507 OA
ATOM     49  H   UNL     1       4.290  -6.454  30.763  0.00  0.00    +0.292 HD
ENDBRANCH  31  48
ENDBRANCH  24  25
ENDBRANCH   3  24
BRANCH   1  50
ATOM     50  C   UNL     1       8.310  -2.160  21.830  0.00  0.00    +0.266 C 
BRANCH  50  51
ATOM     51  O   UNL     1       7.771  -3.407  22.329  0.00  0.00    -0.459 OA
BRANCH  51  52
ATOM     52  C   UNL     1       6.470  -3.677  22.038  0.00  0.00    +0.332 C 
ATOM     53  O   UNL     1       5.850  -3.230  21.090  0.00  0.00    -0.246 OA
BRANCH  52  55
ATOM     54  C   UNL     1       4.583  -4.637  23.274  0.00  0.00    +0.015 C 
ATOM     55  C   UNL     1       5.913  -4.562  23.093  0.00  0.00    +0.092 C 
BRANCH  54  57
ATOM     56  C   UNL     1       2.870  -4.835  25.135  0.00  0.00    +0.011 A 
ATOM     57  C   UNL     1       3.887  -5.386  24.341  0.00  0.00    -0.025 A 
ATOM     58  C   UNL     1       4.308  -6.698  24.620  0.00  0.00    +0.011 A 
ATOM     59  C   UNL     1       3.732  -7.438  25.657  0.00  0.00    +0.046 A 
ATOM     60  C   UNL     1       2.737  -6.868  26.437  0.00  0.00    +0.117 A 
ATOM     61  C   UNL     1       2.294  -5.575  26.181  0.00  0.00    +0.046 A 
BRANCH  60  62
ATOM     62  O   UNL     1       2.224  -7.613  27.457  0.00  0.00    -0.507 OA
ATOM     63  H   UNL     1       2.526  -7.240  28.301  0.00  0.00    +0.292 HD
ENDBRANCH  60  62
ENDBRANCH  54  57
ENDBRANCH  52  55
ENDBRANCH  51  52
ENDBRANCH  50  51
ENDBRANCH   1  50
TORSDOF 20
ENDMDL
MODEL 7
REMARK VINA RESULT:      -6.7      2.390      5.976
REMARK  Name = 
REMARK  20 active torsions:
REMARK  status: ('A' for Active; 'I' for Inactive)
REMARK    1  A    between atoms: C_3  and  O_58
REMARK    2  A    between atoms: C_6  and  C_7
REMARK    3  A    between atoms: C_8  and  C_9
REMARK    4  A    between atoms: C_9  and  O_11
REMARK    5  A    between atoms: O_11  and  C_12
REMARK    6  A    between atoms: C_12  and  C_13
REMARK    7  A    between atoms: C_15  and  O_57
REMARK    8  A    between atoms: C_17  and  O_45
REMARK    9  A    between atoms: C_18  and  O_44
REMARK   10  A    between atoms: C_19  and  O_22
REMARK   11  A    between atoms: O_22  and  C_23
REMARK   12  A    between atoms: C_24  and  C_36
REMARK   13  A    between atoms: C_28  and  O_35
REMARK   14  A    between atoms: C_30  and  O_34
REMARK   15  A    between atoms: C_38  and  O_43
REMARK   16  A    between atoms: C_39  and  O_42
REMARK   17  A    between atoms: O_45  and  C_46
REMARK   18  A    between atoms: C_46  and  C_48
REMARK   19  A    between atoms: C_49  and  C_50
REMARK   20  A    between atoms: C_53  and  O_56
REMARK                            x       y       z     vdW  Elec       q    Type
REMARK                         _______ _______ _______ _____ _____    ______ ____
ROOT
ATOM      1  C   UNL     1       7.314   2.065  26.089  0.00  0.00    +0.192 C 
ATOM      2  O   UNL     1       6.012   1.459  25.923  0.00  0.00    -0.330 OA
ATOM      3  C   UNL     1       6.102   0.059  25.597  0.00  0.00    +0.341 C 
ATOM      4  C   UNL     1       6.748  -0.084  24.207  0.00  0.00    +0.226 C 
ATOM      5  C   UNL     1       8.130   0.551  24.247  0.00  0.00    +0.242 C 
ATOM      6  C   UNL     1       8.109   1.989  24.774  0.00  0.00    +0.190 C 
ENDROOT
BRANCH   6   7
ATOM      7  O   UNL     1       9.469   2.407  24.937  0.00  0.00    -0.385 OA
ATOM      8  H   UNL     1      10.046   1.787  24.458  0.00  0.00    +0.210 HD
ENDBRANCH   6   7
BRANCH   4   9
ATOM      9  O   UNL     1       5.933   0.529  23.186  0.00  0.00    -0.382 OA
ATOM     10  H   UNL     1       6.027  -0.016  22.381  0.00  0.00    +0.210 HD
ENDBRANCH   4   9
BRANCH   5  11
ATOM     11  O   UNL     1       8.649   0.593  22.907  0.00  0.00    -0.453 OA
BRANCH  11  12
ATOM     12  C   UNL     1       9.401  -0.458  22.537  0.00  0.00    +0.332 C 
ATOM     13  O   UNL     1      10.009  -0.607  21.492  0.00  0.00    -0.246 OA
BRANCH  12  14
ATOM     14  C   UNL     1       9.345  -1.421  23.645  0.00  0.00    +0.092 C 
ATOM     15  C   UNL     1       8.632  -2.540  23.480  0.00  0.00    +0.015 C 
BRANCH  15  16
ATOM     16  C   UNL     1       8.420  -3.524  24.544  0.00  0.00    -0.025 A 
ATOM     17  C   UNL     1       8.587  -4.901  24.346  0.00  0.00    +0.011 A 
ATOM     18  C   UNL     1       8.411  -5.785  25.412  0.00  0.00    +0.046 A 
ATOM     19  C   UNL     1       8.068  -5.294  26.666  0.00  0.00    +0.117 A 
ATOM     20  C   UNL     1       7.854  -3.941  26.863  0.00  0.00    +0.046 A 
ATOM     21  C   UNL     1       8.023  -3.050  25.801  0.00  0.00    +0.011 A 
BRANCH  19  22
ATOM     22  O   UNL     1       7.939  -6.187  27.686  0.00  0.00    -0.507 OA
ATOM     23  H   UNL     1       6.998  -6.246  27.914  0.00  0.00    +0.292 HD
ENDBRANCH  19  22
ENDBRANCH  15  16
ENDBRANCH  12  14
ENDBRANCH  11  12
ENDBRANCH   5  11
BRANCH   3  24
ATOM     24  O   UNL     1       4.800  -0.503  25.452  0.00  0.00    -0.453 OA
BRANCH  24  25
ATOM     25  C   UNL     1       4.408  -1.692  26.031  0.00  0.00    +0.214 A 
ATOM     26  C   UNL     1       4.460  -3.003  25.317  0.00  0.00    +0.238 A 
ATOM     27  O   UNL     1       4.496  -3.070  24.096  0.00  0.00    -0.283 OA
ATOM     28  C   UNL     1       4.399  -4.217  26.145  0.00  0.00    +0.109 A 
ATOM     29  C   UNL     1       4.046  -4.070  27.485  0.00  0.00    +0.147 A 
ATOM     30  C   UNL     1       4.015  -5.186  28.329  0.00  0.00    +0.092 A 
ATOM     31  C   UNL     1       4.316  -6.444  27.811  0.00  0.00    +0.124 A 
ATOM     32  C   UNL     1       4.632  -6.610  26.467  0.00  0.00    +0.091 A 
ATOM     33  O   UNL     1       3.683  -2.859  28.027  0.00  0.00    -0.451 OA
ATOM     34  C   UNL     1       4.675  -5.495  25.635  0.00  0.00    +0.135 A 
ATOM     35  C   UNL     1       3.922  -1.700  27.296  0.00  0.00    +0.181 A 
BRANCH  35  36
ATOM     36  C   UNL     1       3.591  -0.440  28.036  0.00  0.00    +0.025 A 
ATOM     37  C   UNL     1       4.472   0.097  28.993  0.00  0.00    +0.015 A 
ATOM     38  C   UNL     1       4.163   1.281  29.683  0.00  0.00    +0.050 A 
ATOM     39  C   UNL     1       2.971   1.937  29.419  0.00  0.00    +0.158 A 
ATOM     40  C   UNL     1       2.071   1.413  28.503  0.00  0.00    +0.159 A 
ATOM     41  C   UNL     1       2.358   0.222  27.838  0.00  0.00    +0.060 A 
BRANCH  40  42
ATOM     42  O   UNL     1       0.911   2.104  28.278  0.00  0.00    -0.503 OA
ATOM     43  H   UNL     1       1.146   2.985  27.934  0.00  0.00    +0.292 HD
ENDBRANCH  40  42
BRANCH  39  44
ATOM     44  O   UNL     1       2.688   3.108  30.059  0.00  0.00    -0.503 OA
ATOM     45  H   UNL     1       1.752   3.023  30.329  0.00  0.00    +0.292 HD
ENDBRANCH  39  44
ENDBRANCH  35  36
BRANCH  34  46
ATOM     46  O   UNL     1       5.009  -5.672  24.322  0.00  0.00    -0.506 OA
ATOM     47  H   UNL     1       5.744  -5.090  24.076  0.00  0.00    +0.292 HD
ENDBRANCH  34  46
BRANCH  31  48
ATOM     48  O   UNL     1       4.314  -7.563  28.590  0.00  0.00    -0.507 OA
ATOM     49  H   UNL     1       4.356  -7.307  29.525  0.00  0.00    +0.292 HD
ENDBRANCH  31  48
ENDBRANCH  24  25
ENDBRANCH   3  24
BRANCH   1  50
ATOM     50  C   UNL     1       7.117   3.533  26.529  0.00  0.00    +0.266 C 
BRANCH  50  51
ATOM     51  O   UNL     1       6.211   4.345  25.743  0.00  0.00    -0.459 OA
BRANCH  51  52
ATOM     52  C   UNL     1       6.643   5.585  25.391  0.00  0.00    +0.332 C 
ATOM     53  O   UNL     1       5.928   6.527  25.101  0.00  0.00    -0.246 OA
BRANCH  52  55
ATOM     54  C   UNL     1       8.781   5.609  24.189  0.00  0.00    +0.015 C 
ATOM     55  C   UNL     1       8.128   5.591  25.365  0.00  0.00    +0.092 C 
BRANCH  54  57
ATOM     56  C   UNL     1      11.155   6.430  24.541  0.00  0.00    +0.011 A 
ATOM     57  C   UNL     1      10.242   5.513  23.999  0.00  0.00    -0.025 A 
ATOM     58  C   UNL     1      10.742   4.488  23.177  0.00  0.00    +0.011 A 
ATOM     59  C   UNL     1      12.110   4.379  22.907  0.00  0.00    +0.046 A 
ATOM     60  C   UNL     1      12.992   5.305  23.444  0.00  0.00    +0.117 A 
ATOM     61  C   UNL     1      12.528   6.327  24.266  0.00  0.00    +0.046 A 
BRANCH  60  62
ATOM     62  O   UNL     1      14.313   5.181  23.130  0.00  0.00    -0.507 OA
ATOM     63  H   UNL     1      14.504   4.248  22.939  0.00  0.00    +0.292 HD
ENDBRANCH  60  62
ENDBRANCH  54  57
ENDBRANCH  52  55
ENDBRANCH  51  52
ENDBRANCH  50  51
ENDBRANCH   1  50
TORSDOF 20
ENDMDL
MODEL 8
REMARK VINA RESULT:      -6.6      2.128      5.913
REMARK  Name = 
REMARK  20 active torsions:
REMARK  status: ('A' for Active; 'I' for Inactive)
REMARK    1  A    between atoms: C_3  and  O_58
REMARK    2  A    between atoms: C_6  and  C_7
REMARK    3  A    between atoms: C_8  and  C_9
REMARK    4  A    between atoms: C_9  and  O_11
REMARK    5  A    between atoms: O_11  and  C_12
REMARK    6  A    between atoms: C_12  and  C_13
REMARK    7  A    between atoms: C_15  and  O_57
REMARK    8  A    between atoms: C_17  and  O_45
REMARK    9  A    between atoms: C_18  and  O_44
REMARK   10  A    between atoms: C_19  and  O_22
REMARK   11  A    between atoms: O_22  and  C_23
REMARK   12  A    between atoms: C_24  and  C_36
REMARK   13  A    between atoms: C_28  and  O_35
REMARK   14  A    between atoms: C_30  and  O_34
REMARK   15  A    between atoms: C_38  and  O_43
REMARK   16  A    between atoms: C_39  and  O_42
REMARK   17  A    between atoms: O_45  and  C_46
REMARK   18  A    between atoms: C_46  and  C_48
REMARK   19  A    between atoms: C_49  and  C_50
REMARK   20  A    between atoms: C_53  and  O_56
REMARK                            x       y       z     vdW  Elec       q    Type
REMARK                         _______ _______ _______ _____ _____    ______ ____
ROOT
ATOM      1  C   UNL     1       9.496  -0.908  24.845  0.00  0.00    +0.192 C 
ATOM      2  O   UNL     1       8.277  -0.224  25.217  0.00  0.00    -0.330 OA
ATOM      3  C   UNL     1       7.223  -1.142  25.563  0.00  0.00    +0.341 C 
ATOM      4  C   UNL     1       6.825  -1.933  24.304  0.00  0.00    +0.226 C 
ATOM      5  C   UNL     1       8.048  -2.682  23.794  0.00  0.00    +0.242 C 
ATOM      6  C   UNL     1       9.262  -1.771  23.593  0.00  0.00    +0.190 C 
ENDROOT
BRANCH   6   7
ATOM      7  O   UNL     1      10.384  -2.609  23.295  0.00  0.00    -0.385 OA
ATOM      8  H   UNL     1      10.873  -2.223  22.549  0.00  0.00    +0.210 HD
ENDBRANCH   6   7
BRANCH   4   9
ATOM      9  O   UNL     1       6.298  -1.061  23.282  0.00  0.00    -0.382 OA
ATOM     10  H   UNL     1       5.487  -0.656  23.644  0.00  0.00    +0.210 HD
ENDBRANCH   4   9
BRANCH   5  11
ATOM     11  O   UNL     1       7.728  -3.258  22.517  0.00  0.00    -0.453 OA
BRANCH  11  12
ATOM     12  C   UNL     1       7.371  -4.554  22.531  0.00  0.00    +0.332 C 
ATOM     13  O   UNL     1       7.180  -5.284  21.575  0.00  0.00    -0.246 OA
BRANCH  12  14
ATOM     14  C   UNL     1       7.240  -4.934  23.944  0.00  0.00    +0.092 C 
ATOM     15  C   UNL     1       6.058  -5.385  24.375  0.00  0.00    +0.015 C 
BRANCH  15  16
ATOM     16  C   UNL     1       5.778  -5.700  25.778  0.00  0.00    -0.025 A 
ATOM     17  C   UNL     1       4.965  -6.771  26.167  0.00  0.00    +0.011 A 
ATOM     18  C   UNL     1       4.771  -7.045  27.522  0.00  0.00    +0.046 A 
ATOM     19  C   UNL     1       5.385  -6.249  28.481  0.00  0.00    +0.117 A 
ATOM     20  C   UNL     1       6.153  -5.159  28.110  0.00  0.00    +0.046 A 
ATOM     21  C   UNL     1       6.348  -4.875  26.757  0.00  0.00    +0.011 A 
BRANCH  19  22
ATOM     22  O   UNL     1       5.198  -6.569  29.791  0.00  0.00    -0.507 OA
ATOM     23  H   UNL     1       4.569  -5.934  30.167  0.00  0.00    +0.292 HD
ENDBRANCH  19  22
ENDBRANCH  15  16
ENDBRANCH  12  14
ENDBRANCH  11  12
ENDBRANCH   5  11
BRANCH   3  24
ATOM     24  O   UNL     1       6.045  -0.431  25.932  0.00  0.00    -0.453 OA
BRANCH  24  25
ATOM     25  C   UNL     1       5.031  -0.969  26.697  0.00  0.00    +0.214 A 
ATOM     26  C   UNL     1       4.122  -2.047  26.204  0.00  0.00    +0.238 A 
ATOM     27  O   UNL     1       3.968  -2.263  25.010  0.00  0.00    -0.283 OA
ATOM     28  C   UNL     1       3.365  -2.797  27.218  0.00  0.00    +0.109 A 
ATOM     29  C   UNL     1       3.348  -2.295  28.518  0.00  0.00    +0.147 A 
ATOM     30  C   UNL     1       2.681  -2.991  29.531  0.00  0.00    +0.092 A 
ATOM     31  C   UNL     1       2.013  -4.175  29.222  0.00  0.00    +0.124 A 
ATOM     32  C   UNL     1       1.988  -4.666  27.922  0.00  0.00    +0.091 A 
ATOM     33  O   UNL     1       3.942  -1.102  28.858  0.00  0.00    -0.451 OA
ATOM     34  C   UNL     1       2.666  -3.978  26.920  0.00  0.00    +0.135 A 
ATOM     35  C   UNL     1       4.806  -0.500  27.948  0.00  0.00    +0.181 A 
BRANCH  35  36
ATOM     36  C   UNL     1       5.477   0.731  28.477  0.00  0.00    +0.025 A 
ATOM     37  C   UNL     1       4.814   1.972  28.497  0.00  0.00    +0.015 A 
ATOM     38  C   UNL     1       5.442   3.125  28.997  0.00  0.00    +0.050 A 
ATOM     39  C   UNL     1       6.739   3.042  29.482  0.00  0.00    +0.158 A 
ATOM     40  C   UNL     1       7.426   1.838  29.446  0.00  0.00    +0.159 A 
ATOM     41  C   UNL     1       6.818   0.699  28.922  0.00  0.00    +0.060 A 
BRANCH  40  42
ATOM     42  O   UNL     1       8.701   1.814  29.943  0.00  0.00    -0.503 OA
ATOM     43  H   UNL     1       8.742   2.425  30.700  0.00  0.00    +0.292 HD
ENDBRANCH  40  42
BRANCH  39  44
ATOM     44  O   UNL     1       7.335   4.153  30.006  0.00  0.00    -0.503 OA
ATOM     45  H   UNL     1       6.891   4.904  29.562  0.00  0.00    +0.292 HD
ENDBRANCH  39  44
ENDBRANCH  35  36
BRANCH  34  46
ATOM     46  O   UNL     1       2.650  -4.485  25.652  0.00  0.00    -0.506 OA
ATOM     47  H   UNL     1       3.136  -5.324  25.615  0.00  0.00    +0.292 HD
ENDBRANCH  34  46
BRANCH  31  48
ATOM     48  O   UNL     1       1.356  -4.901  30.171  0.00  0.00    -0.507 OA
ATOM     49  H   UNL     1       0.399  -4.774  30.071  0.00  0.00    +0.292 HD
ENDBRANCH  31  48
ENDBRANCH  24  25
ENDBRANCH   3  24
BRANCH   1  50
ATOM     50  C   UNL     1      10.591   0.152  24.587  0.00  0.00    +0.266 C 
BRANCH  50  51
ATOM     51  O   UNL     1      10.168   1.534  24.497  0.00  0.00    -0.459 OA
BRANCH  51  52
ATOM     52  C   UNL     1       9.847   2.001  23.261  0.00  0.00    +0.332 C 
ATOM     53  O   UNL     1      10.328   1.614  22.212  0.00  0.00    -0.246 OA
BRANCH  52  55
ATOM     54  C   UNL     1       7.778   3.137  22.594  0.00  0.00    +0.015 C 
ATOM     55  C   UNL     1       8.853   3.096  23.401  0.00  0.00    +0.092 C 
BRANCH  54  57
ATOM     56  C   UNL     1       7.075   5.557  22.304  0.00  0.00    +0.011 A 
ATOM     57  C   UNL     1       6.764   4.210  22.541  0.00  0.00    -0.025 A 
ATOM     58  C   UNL     1       5.425   3.876  22.808  0.00  0.00    +0.011 A 
ATOM     59  C   UNL     1       4.426   4.855  22.834  0.00  0.00    +0.046 A 
ATOM     60  C   UNL     1       4.760   6.182  22.608  0.00  0.00    +0.117 A 
ATOM     61  C   UNL     1       6.075   6.542  22.336  0.00  0.00    +0.046 A 
BRANCH  60  62
ATOM     62  O   UNL     1       3.762   7.108  22.674  0.00  0.00    -0.507 OA
ATOM     63  H   UNL     1       2.949   6.672  22.978  0.00  0.00    +0.292 HD
ENDBRANCH  60  62
ENDBRANCH  54  57
ENDBRANCH  52  55
ENDBRANCH  51  52
ENDBRANCH  50  51
ENDBRANCH   1  50
TORSDOF 20
ENDMDL
MODEL 9
REMARK VINA RESULT:      -6.5      2.806      9.540
REMARK  Name = 
REMARK  20 active torsions:
REMARK  status: ('A' for Active; 'I' for Inactive)
REMARK    1  A    between atoms: C_3  and  O_58
REMARK    2  A    between atoms: C_6  and  C_7
REMARK    3  A    between atoms: C_8  and  C_9
REMARK    4  A    between atoms: C_9  and  O_11
REMARK    5  A    between atoms: O_11  and  C_12
REMARK    6  A    between atoms: C_12  and  C_13
REMARK    7  A    between atoms: C_15  and  O_57
REMARK    8  A    between atoms: C_17  and  O_45
REMARK    9  A    between atoms: C_18  and  O_44
REMARK   10  A    between atoms: C_19  and  O_22
REMARK   11  A    between atoms: O_22  and  C_23
REMARK   12  A    between atoms: C_24  and  C_36
REMARK   13  A    between atoms: C_28  and  O_35
REMARK   14  A    between atoms: C_30  and  O_34
REMARK   15  A    between atoms: C_38  and  O_43
REMARK   16  A    between atoms: C_39  and  O_42
REMARK   17  A    between atoms: O_45  and  C_46
REMARK   18  A    between atoms: C_46  and  C_48
REMARK   19  A    between atoms: C_49  and  C_50
REMARK   20  A    between atoms: C_53  and  O_56
REMARK                            x       y       z     vdW  Elec       q    Type
REMARK                         _______ _______ _______ _____ _____    ______ ____
ROOT
ATOM      1  C   UNL     1       7.666  -2.337  23.536  0.00  0.00    +0.192 C 
ATOM      2  O   UNL     1       6.740  -2.657  24.599  0.00  0.00    -0.330 OA
ATOM      3  C   UNL     1       5.486  -1.965  24.454  0.00  0.00    +0.341 C 
ATOM      4  C   UNL     1       5.732  -0.456  24.630  0.00  0.00    +0.226 C 
ATOM      5  C   UNL     1       6.727   0.000  23.573  0.00  0.00    +0.242 C 
ATOM      6  C   UNL     1       8.008  -0.837  23.561  0.00  0.00    +0.190 C 
ENDROOT
BRANCH   6   7
ATOM      7  O   UNL     1       8.774  -0.437  22.418  0.00  0.00    -0.385 OA
ATOM      8  H   UNL     1       9.714  -0.418  22.664  0.00  0.00    +0.210 HD
ENDBRANCH   6   7
BRANCH   4   9
ATOM      9  O   UNL     1       6.222  -0.156  25.955  0.00  0.00    -0.382 OA
ATOM     10  H   UNL     1       6.031  -0.935  26.512  0.00  0.00    +0.210 HD
ENDBRANCH   4   9
BRANCH   5  11
ATOM     11  O   UNL     1       7.105   1.357  23.861  0.00  0.00    -0.453 OA
BRANCH  11  12
ATOM     12  C   UNL     1       6.761   2.270  22.934  0.00  0.00    +0.332 C 
ATOM     13  O   UNL     1       5.714   2.345  22.316  0.00  0.00    -0.246 OA
BRANCH  12  14
ATOM     14  C   UNL     1       7.911   3.174  22.795  0.00  0.00    +0.092 C 
ATOM     15  C   UNL     1       8.804   3.225  23.789  0.00  0.00    +0.015 C 
BRANCH  15  16
ATOM     16  C   UNL     1       9.934   4.157  23.809  0.00  0.00    -0.025 A 
ATOM     17  C   UNL     1       9.826   5.467  24.293  0.00  0.00    +0.011 A 
ATOM     18  C   UNL     1      10.951   6.294  24.324  0.00  0.00    +0.046 A 
ATOM     19  C   UNL     1      12.173   5.813  23.872  0.00  0.00    +0.117 A 
ATOM     20  C   UNL     1      12.282   4.537  23.348  0.00  0.00    +0.046 A 
ATOM     21  C   UNL     1      11.161   3.705  23.308  0.00  0.00    +0.011 A 
BRANCH  19  22
ATOM     22  O   UNL     1      13.252   6.640  23.950  0.00  0.00    -0.507 OA
ATOM     23  H   UNL     1      13.475   6.926  23.051  0.00  0.00    +0.292 HD
ENDBRANCH  19  22
ENDBRANCH  15  16
ENDBRANCH  12  14
ENDBRANCH  11  12
ENDBRANCH   5  11
BRANCH   3  24
ATOM     24  O   UNL     1       4.599  -2.314  25.514  0.00  0.00    -0.453 OA
BRANCH  24  25
ATOM     25  C   UNL     1       3.622  -3.282  25.408  0.00  0.00    +0.214 A 
ATOM     26  C   UNL     1       3.589  -4.292  24.308  0.00  0.00    +0.238 A 
ATOM     27  O   UNL     1       4.183  -4.115  23.254  0.00  0.00    -0.283 OA
ATOM     28  C   UNL     1       2.754  -5.485  24.521  0.00  0.00    +0.109 A 
ATOM     29  C   UNL     1       1.868  -5.471  25.597  0.00  0.00    +0.147 A 
ATOM     30  C   UNL     1       1.082  -6.596  25.872  0.00  0.00    +0.092 A 
ATOM     31  C   UNL     1       1.176  -7.715  25.047  0.00  0.00    +0.124 A 
ATOM     32  C   UNL     1       2.026  -7.726  23.947  0.00  0.00    +0.091 A 
ATOM     33  O   UNL     1       1.698  -4.370  26.403  0.00  0.00    -0.451 OA
ATOM     34  C   UNL     1       2.817  -6.611  23.686  0.00  0.00    +0.135 A 
ATOM     35  C   UNL     1       2.614  -3.327  26.314  0.00  0.00    +0.181 A 
BRANCH  35  36
ATOM     36  C   UNL     1       2.389  -2.238  27.319  0.00  0.00    +0.025 A 
ATOM     37  C   UNL     1       1.273  -1.385  27.233  0.00  0.00    +0.015 A 
ATOM     38  C   UNL     1       1.061  -0.368  28.179  0.00  0.00    +0.050 A 
ATOM     39  C   UNL     1       1.963  -0.200  29.218  0.00  0.00    +0.158 A 
ATOM     40  C   UNL     1       3.088  -1.007  29.308  0.00  0.00    +0.159 A 
ATOM     41  C   UNL     1       3.319  -1.997  28.355  0.00  0.00    +0.060 A 
BRANCH  40  42
ATOM     42  O   UNL     1       3.942  -0.800  30.358  0.00  0.00    -0.503 OA
ATOM     43  H   UNL     1       3.690  -1.405  31.078  0.00  0.00    +0.292 HD
ENDBRANCH  40  42
BRANCH  39  44
ATOM     44  O   UNL     1       1.736   0.761  30.160  0.00  0.00    -0.503 OA
ATOM     45  H   UNL     1       0.777   0.942  30.102  0.00  0.00    +0.292 HD
ENDBRANCH  39  44
ENDBRANCH  35  36
BRANCH  34  46
ATOM     46  O   UNL     1       3.664  -6.646  22.614  0.00  0.00    -0.506 OA
ATOM     47  H   UNL     1       3.264  -7.139  21.881  0.00  0.00    +0.292 HD
ENDBRANCH  34  46
BRANCH  31  48
ATOM     48  O   UNL     1       0.443  -8.842  25.275  0.00  0.00    -0.507 OA
ATOM     49  H   UNL     1       0.080  -8.815  26.175  0.00  0.00    +0.292 HD
ENDBRANCH  31  48
ENDBRANCH  24  25
ENDBRANCH   3  24
BRANCH   1  50
ATOM     50  C   UNL     1       8.938  -3.196  23.721  0.00  0.00    +0.266 C 
BRANCH  50  51
ATOM     51  O   UNL     1       8.753  -4.583  24.094  0.00  0.00    -0.459 OA
BRANCH  51  52
ATOM     52  C   UNL     1       9.414  -5.018  25.199  0.00  0.00    +0.332 C 
ATOM     53  O   UNL     1      10.600  -5.292  25.252  0.00  0.00    -0.246 OA
BRANCH  52  55
ATOM     54  C   UNL     1       7.180  -5.528  26.071  0.00  0.00    +0.015 C 
ATOM     55  C   UNL     1       8.448  -5.155  26.319  0.00  0.00    +0.092 C 
BRANCH  54  57
ATOM     56  C   UNL     1       5.967  -4.743  28.156  0.00  0.00    +0.011 A 
ATOM     57  C   UNL     1       6.083  -5.608  27.057  0.00  0.00    -0.025 A 
ATOM     58  C   UNL     1       5.141  -6.643  26.926  0.00  0.00    +0.011 A 
ATOM     59  C   UNL     1       4.115  -6.810  27.861  0.00  0.00    +0.046 A 
ATOM     60  C   UNL     1       4.028  -5.951  28.946  0.00  0.00    +0.117 A 
ATOM     61  C   UNL     1       4.941  -4.913  29.099  0.00  0.00    +0.046 A 
BRANCH  60  62
ATOM     62  O   UNL     1       3.031  -6.168  29.850  0.00  0.00    -0.507 OA
ATOM     63  H   UNL     1       3.161  -7.040  30.258  0.00  0.00    +0.292 HD
ENDBRANCH  60  62
ENDBRANCH  54  57
ENDBRANCH  52  55
ENDBRANCH  51  52
ENDBRANCH  50  51
ENDBRANCH   1  50
TORSDOF 20
ENDMDL
