MODEL 1
REMARK VINA RESULT:      -8.2      0.000      0.000
REMARK  Name = 
REMARK  12 active torsions:
REMARK  status: ('A' for Active; 'I' for Inactive)
REMARK    1  A    between atoms: C_3  and  O_38
REMARK    2  A    between atoms: C_4  and  O_21
REMARK    3  A    between atoms: C_6  and  C_7
REMARK    4  A    between atoms: C_8  and  O_20
REMARK    5  A    between atoms: C_12  and  O_19
REMARK    6  A    between atoms: C_14  and  O_18
REMARK    7  A    between atoms: O_21  and  C_22
REMARK    8  A    between atoms: C_24  and  O_37
REMARK    9  A    between atoms: C_26  and  O_36
REMARK   10  A    between atoms: C_28  and  O_35
REMARK   11  A    between atoms: C_30  and  C_33
REMARK   12  A    between atoms: C_33  and  O_34
REMARK                            x       y       z     vdW  Elec       q    Type
REMARK                         _______ _______ _______ _____ _____    ______ ____
ROOT
ATOM      1  C   UNL     1       8.658  -0.797  22.207  0.00  0.00    +0.015 A 
ATOM      2  C   UNL     1       8.755  -0.824  23.611  0.00  0.00    +0.025 A 
ATOM      3  C   UNL     1       9.307   0.291  24.253  0.00  0.00    +0.061 A 
ATOM      4  C   UNL     1       9.929   1.297  23.522  0.00  0.00    +0.166 A 
ATOM      5  C   UNL     1       9.884   1.273  22.126  0.00  0.00    +0.159 A 
ATOM      6  C   UNL     1       9.227   0.245  21.463  0.00  0.00    +0.050 A 
ENDROOT
BRANCH   2   7
ATOM      7  C   UNL     1       8.358  -2.004  24.428  0.00  0.00    +0.181 A 
ATOM      8  O   UNL     1       7.177  -1.814  25.146  0.00  0.00    -0.451 OA
ATOM      9  C   UNL     1       6.796  -2.760  26.066  0.00  0.00    +0.147 A 
ATOM     10  C   UNL     1       7.456  -3.975  26.207  0.00  0.00    +0.109 A 
ATOM     11  C   UNL     1       7.008  -4.919  27.139  0.00  0.00    +0.135 A 
ATOM     12  C   UNL     1       5.897  -4.649  27.931  0.00  0.00    +0.091 A 
ATOM     13  C   UNL     1       5.251  -3.425  27.797  0.00  0.00    +0.124 A 
ATOM     14  C   UNL     1       8.642  -4.225  25.389  0.00  0.00    +0.238 A 
ATOM     15  O   UNL     1       9.224  -5.303  25.471  0.00  0.00    -0.283 OA
ATOM     16  C   UNL     1       5.692  -2.475  26.874  0.00  0.00    +0.092 A 
ATOM     17  C   UNL     1       9.124  -3.112  24.535  0.00  0.00    +0.208 A 
BRANCH  11  18
ATOM     18  O   UNL     1       7.615  -6.130  27.326  0.00  0.00    -0.506 OA
ATOM     19  H   UNL     1       8.368  -6.197  26.698  0.00  0.00    +0.292 HD
ENDBRANCH  11  18
BRANCH  13  20
ATOM     20  O   UNL     1       4.168  -3.118  28.564  0.00  0.00    -0.507 OA
ATOM     21  H   UNL     1       4.316  -2.252  28.983  0.00  0.00    +0.292 HD
ENDBRANCH  13  20
BRANCH  17  22
ATOM     22  O   UNL     1      10.370  -3.278  23.958  0.00  0.00    -0.501 OA
ATOM     23  H   UNL     1      10.614  -4.216  24.051  0.00  0.00    +0.292 HD
ENDBRANCH  17  22
ENDBRANCH   2   7
BRANCH   5  24
ATOM     24  O   UNL     1      10.515   2.262  21.422  0.00  0.00    -0.503 OA
ATOM     25  H   UNL     1      11.326   1.908  21.026  0.00  0.00    +0.292 HD
ENDBRANCH   5  24
BRANCH   4  26
ATOM     26  O   UNL     1      10.573   2.349  24.081  0.00  0.00    -0.457 OA
BRANCH  26  27
ATOM     27  C   UNL     1      10.005   3.655  24.071  0.00  0.00    +0.339 C 
ATOM     28  O   UNL     1      10.744   4.582  23.269  0.00  0.00    -0.331 OA
ATOM     29  C   UNL     1      10.496   5.962  23.598  0.00  0.00    +0.179 C 
ATOM     30  C   UNL     1       8.986   6.312  23.648  0.00  0.00    +0.177 C 
ATOM     31  C   UNL     1       8.103   5.238  24.326  0.00  0.00    +0.180 C 
ATOM     32  C   UNL     1       8.483   3.822  23.845  0.00  0.00    +0.214 C 
BRANCH  30  33
ATOM     33  O   UNL     1       8.546   6.449  22.281  0.00  0.00    -0.386 OA
ATOM     34  H   UNL     1       8.641   7.389  22.036  0.00  0.00    +0.210 HD
ENDBRANCH  30  33
BRANCH  31  35
ATOM     35  O   UNL     1       8.133   5.342  25.749  0.00  0.00    -0.386 OA
ATOM     36  H   UNL     1       7.450   5.979  26.050  0.00  0.00    +0.210 HD
ENDBRANCH  31  35
BRANCH  32  37
ATOM     37  O   UNL     1       8.092   3.709  22.462  0.00  0.00    -0.383 OA
ATOM     38  H   UNL     1       7.363   4.350  22.321  0.00  0.00    +0.210 HD
ENDBRANCH  32  37
BRANCH  29  39
ATOM     39  C   UNL     1      11.294   6.382  24.845  0.00  0.00    +0.190 C 
BRANCH  39  40
ATOM     40  O   UNL     1      12.704   6.375  24.628  0.00  0.00    -0.392 OA
ATOM     41  H   UNL     1      13.116   6.547  25.501  0.00  0.00    +0.210 HD
ENDBRANCH  39  40
ENDBRANCH  29  39
ENDBRANCH  26  27
ENDBRANCH   4  26
TORSDOF 12
ENDMDL
MODEL 2
REMARK VINA RESULT:      -8.0      2.538      3.519
REMARK  Name = 
REMARK  12 active torsions:
REMARK  status: ('A' for Active; 'I' for Inactive)
REMARK    1  A    between atoms: C_3  and  O_38
REMARK    2  A    between atoms: C_4  and  O_21
REMARK    3  A    between atoms: C_6  and  C_7
REMARK    4  A    between atoms: C_8  and  O_20
REMARK    5  A    between atoms: C_12  and  O_19
REMARK    6  A    between atoms: C_14  and  O_18
REMARK    7  A    between atoms: O_21  and  C_22
REMARK    8  A    between atoms: C_24  and  O_37
REMARK    9  A    between atoms: C_26  and  O_36
REMARK   10  A    between atoms: C_28  and  O_35
REMARK   11  A    between atoms: C_30  and  C_33
REMARK   12  A    between atoms: C_33  and  O_34
REMARK                            x       y       z     vdW  Elec       q    Type
REMARK                         _______ _______ _______ _____ _____    ______ ____
ROOT
ATOM      1  C   UNL     1       9.653  -2.461  23.439  0.00  0.00    +0.015 A 
ATOM      2  C   UNL     1       8.532  -2.332  24.279  0.00  0.00    +0.025 A 
ATOM      3  C   UNL     1       8.146  -1.043  24.665  0.00  0.00    +0.061 A 
ATOM      4  C   UNL     1       8.961   0.053  24.402  0.00  0.00    +0.166 A 
ATOM      5  C   UNL     1      10.110  -0.106  23.624  0.00  0.00    +0.159 A 
ATOM      6  C   UNL     1      10.447  -1.353  23.115  0.00  0.00    +0.050 A 
ENDROOT
BRANCH   2   7
ATOM      7  C   UNL     1       7.786  -3.501  24.820  0.00  0.00    +0.181 A 
ATOM      8  O   UNL     1       6.835  -4.015  23.937  0.00  0.00    -0.451 OA
ATOM      9  C   UNL     1       5.966  -4.982  24.381  0.00  0.00    +0.147 A 
ATOM     10  C   UNL     1       6.089  -5.583  25.628  0.00  0.00    +0.109 A 
ATOM     11  C   UNL     1       5.195  -6.586  26.020  0.00  0.00    +0.135 A 
ATOM     12  C   UNL     1       4.177  -6.992  25.164  0.00  0.00    +0.091 A 
ATOM     13  C   UNL     1       4.050  -6.375  23.924  0.00  0.00    +0.124 A 
ATOM     14  C   UNL     1       7.145  -5.118  26.527  0.00  0.00    +0.238 A 
ATOM     15  O   UNL     1       7.295  -5.654  27.621  0.00  0.00    -0.283 OA
ATOM     16  C   UNL     1       4.933  -5.370  23.525  0.00  0.00    +0.092 A 
ATOM     17  C   UNL     1       7.951  -3.954  26.083  0.00  0.00    +0.208 A 
BRANCH  11  18
ATOM     18  O   UNL     1       5.263  -7.213  27.233  0.00  0.00    -0.506 OA
ATOM     19  H   UNL     1       6.208  -7.279  27.494  0.00  0.00    +0.292 HD
ENDBRANCH  11  18
BRANCH  13  20
ATOM     20  O   UNL     1       3.057  -6.735  23.063  0.00  0.00    -0.507 OA
ATOM     21  H   UNL     1       3.368  -7.480  22.520  0.00  0.00    +0.292 HD
ENDBRANCH  13  20
BRANCH  17  22
ATOM     22  O   UNL     1       8.774  -3.380  27.034  0.00  0.00    -0.501 OA
ATOM     23  H   UNL     1       9.328  -2.719  26.583  0.00  0.00    +0.292 HD
ENDBRANCH  17  22
ENDBRANCH   2   7
BRANCH   5  24
ATOM     24  O   UNL     1      10.909   0.980  23.388  0.00  0.00    -0.503 OA
ATOM     25  H   UNL     1      10.482   1.559  22.738  0.00  0.00    +0.292 HD
ENDBRANCH   5  24
BRANCH   4  26
ATOM     26  O   UNL     1       8.702   1.309  24.837  0.00  0.00    -0.457 OA
BRANCH  26  27
ATOM     27  C   UNL     1       7.862   2.189  24.095  0.00  0.00    +0.339 C 
ATOM     28  O   UNL     1       8.095   3.569  24.392  0.00  0.00    -0.331 OA
ATOM     29  C   UNL     1       6.996   4.432  24.045  0.00  0.00    +0.179 C 
ATOM     30  C   UNL     1       6.498   4.226  22.591  0.00  0.00    +0.177 C 
ATOM     31  C   UNL     1       6.424   2.748  22.144  0.00  0.00    +0.180 C 
ATOM     32  C   UNL     1       7.688   1.974  22.573  0.00  0.00    +0.214 C 
BRANCH  30  33
ATOM     33  O   UNL     1       7.438   4.903  21.731  0.00  0.00    -0.386 OA
ATOM     34  H   UNL     1       8.066   4.233  21.399  0.00  0.00    +0.210 HD
ENDBRANCH  30  33
BRANCH  31  35
ATOM     35  O   UNL     1       5.231   2.110  22.600  0.00  0.00    -0.386 OA
ATOM     36  H   UNL     1       4.774   2.688  23.250  0.00  0.00    +0.210 HD
ENDBRANCH  31  35
BRANCH  32  37
ATOM     37  O   UNL     1       8.793   2.473  21.793  0.00  0.00    -0.383 OA
ATOM     38  H   UNL     1       9.417   2.893  22.424  0.00  0.00    +0.210 HD
ENDBRANCH  32  37
BRANCH  29  39
ATOM     39  C   UNL     1       5.892   4.373  25.116  0.00  0.00    +0.190 C 
BRANCH  39  40
ATOM     40  O   UNL     1       4.580   4.333  24.557  0.00  0.00    -0.392 OA
ATOM     41  H   UNL     1       4.389   5.242  24.245  0.00  0.00    +0.210 HD
ENDBRANCH  39  40
ENDBRANCH  29  39
ENDBRANCH  26  27
ENDBRANCH   4  26
TORSDOF 12
ENDMDL
MODEL 3
REMARK VINA RESULT:      -7.9      2.317      2.971
REMARK  Name = 
REMARK  12 active torsions:
REMARK  status: ('A' for Active; 'I' for Inactive)
REMARK    1  A    between atoms: C_3  and  O_38
REMARK    2  A    between atoms: C_4  and  O_21
REMARK    3  A    between atoms: C_6  and  C_7
REMARK    4  A    between atoms: C_8  and  O_20
REMARK    5  A    between atoms: C_12  and  O_19
REMARK    6  A    between atoms: C_14  and  O_18
REMARK    7  A    between atoms: O_21  and  C_22
REMARK    8  A    between atoms: C_24  and  O_37
REMARK    9  A    between atoms: C_26  and  O_36
REMARK   10  A    between atoms: C_28  and  O_35
REMARK   11  A    between atoms: C_30  and  C_33
REMARK   12  A    between atoms: C_33  and  O_34
REMARK                            x       y       z     vdW  Elec       q    Type
REMARK                         _______ _______ _______ _____ _____    ______ ____
ROOT
ATOM      1  C   UNL     1       9.466  -2.323  22.806  0.00  0.00    +0.015 A 
ATOM      2  C   UNL     1       8.163  -2.293  23.337  0.00  0.00    +0.025 A 
ATOM      3  C   UNL     1       7.379  -1.161  23.086  0.00  0.00    +0.061 A 
ATOM      4  C   UNL     1       7.936  -0.021  22.517  0.00  0.00    +0.166 A 
ATOM      5  C   UNL     1       9.255  -0.046  22.059  0.00  0.00    +0.159 A 
ATOM      6  C   UNL     1      10.017  -1.201  22.174  0.00  0.00    +0.050 A 
ENDROOT
BRANCH   2   7
ATOM      7  C   UNL     1       7.613  -3.377  24.196  0.00  0.00    +0.181 A 
ATOM      8  O   UNL     1       6.719  -4.218  23.532  0.00  0.00    -0.451 OA
ATOM      9  C   UNL     1       6.014  -5.148  24.257  0.00  0.00    +0.147 A 
ATOM     10  C   UNL     1       6.264  -5.394  25.602  0.00  0.00    +0.109 A 
ATOM     11  C   UNL     1       5.538  -6.376  26.287  0.00  0.00    +0.135 A 
ATOM     12  C   UNL     1       4.563  -7.116  25.627  0.00  0.00    +0.091 A 
ATOM     13  C   UNL     1       4.308  -6.854  24.285  0.00  0.00    +0.124 A 
ATOM     14  C   UNL     1       7.268  -4.581  26.286  0.00  0.00    +0.238 A 
ATOM     15  O   UNL     1       7.530  -4.799  27.466  0.00  0.00    -0.283 OA
ATOM     16  C   UNL     1       5.022  -5.874  23.594  0.00  0.00    +0.092 A 
ATOM     17  C   UNL     1       7.882  -3.471  25.517  0.00  0.00    +0.208 A 
BRANCH  11  18
ATOM     18  O   UNL     1       5.735  -6.662  27.610  0.00  0.00    -0.506 OA
ATOM     19  H   UNL     1       6.589  -7.139  27.698  0.00  0.00    +0.292 HD
ENDBRANCH  11  18
BRANCH  13  20
ATOM     20  O   UNL     1       3.351  -7.547  23.607  0.00  0.00    -0.507 OA
ATOM     21  H   UNL     1       3.217  -7.130  22.738  0.00  0.00    +0.292 HD
ENDBRANCH  13  20
BRANCH  17  22
ATOM     22  O   UNL     1       8.643  -2.572  26.242  0.00  0.00    -0.501 OA
ATOM     23  H   UNL     1       8.338  -2.607  27.165  0.00  0.00    +0.292 HD
ENDBRANCH  17  22
ENDBRANCH   2   7
BRANCH   5  24
ATOM     24  O   UNL     1       9.793   1.089  21.515  0.00  0.00    -0.503 OA
ATOM     25  H   UNL     1      10.477   1.437  22.109  0.00  0.00    +0.292 HD
ENDBRANCH   5  24
BRANCH   4  26
ATOM     26  O   UNL     1       7.264   1.142  22.343  0.00  0.00    -0.457 OA
BRANCH  26  27
ATOM     27  C   UNL     1       7.471   2.252  23.213  0.00  0.00    +0.339 C 
ATOM     28  O   UNL     1       8.029   3.389  22.547  0.00  0.00    -0.331 OA
ATOM     29  C   UNL     1       8.674   4.322  23.434  0.00  0.00    +0.179 C 
ATOM     30  C   UNL     1       7.785   4.731  24.637  0.00  0.00    +0.177 C 
ATOM     31  C   UNL     1       6.991   3.565  25.270  0.00  0.00    +0.180 C 
ATOM     32  C   UNL     1       6.345   2.679  24.184  0.00  0.00    +0.214 C 
BRANCH  30  33
ATOM     33  O   UNL     1       6.835   5.697  24.141  0.00  0.00    -0.386 OA
ATOM     34  H   UNL     1       6.053   5.665  24.726  0.00  0.00    +0.210 HD
ENDBRANCH  30  33
BRANCH  31  35
ATOM     35  O   UNL     1       7.790   2.801  26.173  0.00  0.00    -0.386 OA
ATOM     36  H   UNL     1       8.718   3.121  26.146  0.00  0.00    +0.210 HD
ENDBRANCH  31  35
BRANCH  32  37
ATOM     37  O   UNL     1       5.303   3.449  23.552  0.00  0.00    -0.383 OA
ATOM     38  H   UNL     1       5.223   4.286  24.059  0.00  0.00    +0.210 HD
ENDBRANCH  32  37
BRANCH  29  39
ATOM     39  C   UNL     1      10.084   3.834  23.815  0.00  0.00    +0.190 C 
BRANCH  39  40
ATOM     40  O   UNL     1      10.833   3.376  22.690  0.00  0.00    -0.392 OA
ATOM     41  H   UNL     1      11.647   3.920  22.665  0.00  0.00    +0.210 HD
ENDBRANCH  39  40
ENDBRANCH  29  39
ENDBRANCH  26  27
ENDBRANCH   4  26
TORSDOF 12
ENDMDL
MODEL 4
REMARK VINA RESULT:      -7.8      2.530      9.380
REMARK  Name = 
REMARK  12 active torsions:
REMARK  status: ('A' for Active; 'I' for Inactive)
REMARK    1  A    between atoms: C_3  and  O_38
REMARK    2  A    between atoms: C_4  and  O_21
REMARK    3  A    between atoms: C_6  and  C_7
REMARK    4  A    between atoms: C_8  and  O_20
REMARK    5  A    between atoms: C_12  and  O_19
REMARK    6  A    between atoms: C_14  and  O_18
REMARK    7  A    between atoms: O_21  and  C_22
REMARK    8  A    between atoms: C_24  and  O_37
REMARK    9  A    between atoms: C_26  and  O_36
REMARK   10  A    between atoms: C_28  and  O_35
REMARK   11  A    between atoms: C_30  and  C_33
REMARK   12  A    between atoms: C_33  and  O_34
REMARK                            x       y       z     vdW  Elec       q    Type
REMARK                         _______ _______ _______ _____ _____    ______ ____
ROOT
ATOM      1  C   UNL     1       6.584  -3.239  21.905  0.00  0.00    +0.015 A 
ATOM      2  C   UNL     1       7.375  -2.752  22.962  0.00  0.00    +0.025 A 
ATOM      3  C   UNL     1       7.647  -3.616  24.030  0.00  0.00    +0.061 A 
ATOM      4  C   UNL     1       6.990  -4.836  24.144  0.00  0.00    +0.166 A 
ATOM      5  C   UNL     1       6.152  -5.273  23.116  0.00  0.00    +0.159 A 
ATOM      6  C   UNL     1       5.966  -4.494  21.982  0.00  0.00    +0.050 A 
ENDROOT
BRANCH   2   7
ATOM      7  C   UNL     1       7.875  -1.351  23.021  0.00  0.00    +0.181 A 
ATOM      8  O   UNL     1       6.867  -0.393  22.906  0.00  0.00    -0.451 OA
ATOM      9  C   UNL     1       7.216   0.929  22.775  0.00  0.00    +0.147 A 
ATOM     10  C   UNL     1       8.526   1.374  22.904  0.00  0.00    +0.109 A 
ATOM     11  C   UNL     1       8.824   2.738  22.791  0.00  0.00    +0.135 A 
ATOM     12  C   UNL     1       7.811   3.659  22.552  0.00  0.00    +0.091 A 
ATOM     13  C   UNL     1       6.504   3.206  22.408  0.00  0.00    +0.124 A 
ATOM     14  C   UNL     1       9.581   0.385  23.120  0.00  0.00    +0.238 A 
ATOM     15  O   UNL     1      10.743   0.754  23.270  0.00  0.00    -0.283 OA
ATOM     16  C   UNL     1       6.196   1.848  22.513  0.00  0.00    +0.092 A 
ATOM     17  C   UNL     1       9.189  -1.045  23.082  0.00  0.00    +0.208 A 
BRANCH  11  18
ATOM     18  O   UNL     1      10.092   3.236  22.907  0.00  0.00    -0.506 OA
ATOM     19  H   UNL     1      10.374   3.148  23.844  0.00  0.00    +0.292 HD
ENDBRANCH  11  18
BRANCH  13  20
ATOM     20  O   UNL     1       5.485   4.076  22.159  0.00  0.00    -0.507 OA
ATOM     21  H   UNL     1       4.639   3.607  22.266  0.00  0.00    +0.292 HD
ENDBRANCH  13  20
BRANCH  17  22
ATOM     22  O   UNL     1      10.224  -1.963  23.048  0.00  0.00    -0.501 OA
ATOM     23  H   UNL     1       9.932  -2.714  22.501  0.00  0.00    +0.292 HD
ENDBRANCH  17  22
ENDBRANCH   2   7
BRANCH   5  24
ATOM     24  O   UNL     1       5.500  -6.469  23.252  0.00  0.00    -0.503 OA
ATOM     25  H   UNL     1       4.622  -6.315  23.634  0.00  0.00    +0.292 HD
ENDBRANCH   5  24
BRANCH   4  26
ATOM     26  O   UNL     1       7.127  -5.671  25.202  0.00  0.00    -0.457 OA
BRANCH  26  27
ATOM     27  C   UNL     1       6.158  -5.705  26.246  0.00  0.00    +0.339 C 
ATOM     28  O   UNL     1       5.316  -6.861  26.192  0.00  0.00    -0.331 OA
ATOM     29  C   UNL     1       4.072  -6.708  26.900  0.00  0.00    +0.179 C 
ATOM     30  C   UNL     1       4.260  -6.193  28.352  0.00  0.00    +0.177 C 
ATOM     31  C   UNL     1       5.319  -5.077  28.501  0.00  0.00    +0.180 C 
ATOM     32  C   UNL     1       6.595  -5.410  27.701  0.00  0.00    +0.214 C 
BRANCH  30  33
ATOM     33  O   UNL     1       4.692  -7.322  29.140  0.00  0.00    -0.386 OA
ATOM     34  H   UNL     1       4.252  -8.116  28.779  0.00  0.00    +0.210 HD
ENDBRANCH  30  33
BRANCH  31  35
ATOM     35  O   UNL     1       4.796  -3.794  28.157  0.00  0.00    -0.386 OA
ATOM     36  H   UNL     1       4.137  -3.513  28.829  0.00  0.00    +0.210 HD
ENDBRANCH  31  35
BRANCH  32  37
ATOM     37  O   UNL     1       7.238  -6.528  28.345  0.00  0.00    -0.383 OA
ATOM     38  H   UNL     1       8.042  -6.733  27.820  0.00  0.00    +0.210 HD
ENDBRANCH  32  37
BRANCH  29  39
ATOM     39  C   UNL     1       3.057  -5.910  26.063  0.00  0.00    +0.190 C 
BRANCH  39  40
ATOM     40  O   UNL     1       3.045  -6.298  24.690  0.00  0.00    -0.392 OA
ATOM     41  H   UNL     1       2.102  -6.354  24.431  0.00  0.00    +0.210 HD
ENDBRANCH  39  40
ENDBRANCH  29  39
ENDBRANCH  26  27
ENDBRANCH   4  26
TORSDOF 12
ENDMDL
MODEL 5
REMARK VINA RESULT:      -7.8      2.348      3.137
REMARK  Name = 
REMARK  12 active torsions:
REMARK  status: ('A' for Active; 'I' for Inactive)
REMARK    1  A    between atoms: C_3  and  O_38
REMARK    2  A    between atoms: C_4  and  O_21
REMARK    3  A    between atoms: C_6  and  C_7
REMARK    4  A    between atoms: C_8  and  O_20
REMARK    5  A    between atoms: C_12  and  O_19
REMARK    6  A    between atoms: C_14  and  O_18
REMARK    7  A    between atoms: O_21  and  C_22
REMARK    8  A    between atoms: C_24  and  O_37
REMARK    9  A    between atoms: C_26  and  O_36
REMARK   10  A    between atoms: C_28  and  O_35
REMARK   11  A    between atoms: C_30  and  C_33
REMARK   12  A    between atoms: C_33  and  O_34
REMARK                            x       y       z     vdW  Elec       q    Type
REMARK                         _______ _______ _______ _____ _____    ______ ____
ROOT
ATOM      1  C   UNL     1       9.866  -1.491  22.809  0.00  0.00    +0.015 A 
ATOM      2  C   UNL     1       8.501  -1.588  23.136  0.00  0.00    +0.025 A 
ATOM      3  C   UNL     1       7.656  -0.542  22.742  0.00  0.00    +0.061 A 
ATOM      4  C   UNL     1       8.179   0.641  22.234  0.00  0.00    +0.166 A 
ATOM      5  C   UNL     1       9.549   0.745  21.980  0.00  0.00    +0.159 A 
ATOM      6  C   UNL     1      10.394  -0.326  22.238  0.00  0.00    +0.050 A 
ENDROOT
BRANCH   2   7
ATOM      7  C   UNL     1       7.935  -2.712  23.930  0.00  0.00    +0.181 A 
ATOM      8  O   UNL     1       7.072  -3.532  23.203  0.00  0.00    -0.451 OA
ATOM      9  C   UNL     1       6.354  -4.499  23.864  0.00  0.00    +0.147 A 
ATOM     10  C   UNL     1       6.563  -4.800  25.204  0.00  0.00    +0.109 A 
ATOM     11  C   UNL     1       5.826  -5.818  25.823  0.00  0.00    +0.135 A 
ATOM     12  C   UNL     1       4.881  -6.537  25.101  0.00  0.00    +0.091 A 
ATOM     13  C   UNL     1       4.665  -6.220  23.764  0.00  0.00    +0.124 A 
ATOM     14  C   UNL     1       7.537  -4.009  25.954  0.00  0.00    +0.238 A 
ATOM     15  O   UNL     1       7.764  -4.276  27.132  0.00  0.00    -0.283 OA
ATOM     16  C   UNL     1       5.390  -5.204  23.138  0.00  0.00    +0.092 A 
ATOM     17  C   UNL     1       8.164  -2.861  25.254  0.00  0.00    +0.208 A 
BRANCH  11  18
ATOM     18  O   UNL     1       5.985  -6.159  27.137  0.00  0.00    -0.506 OA
ATOM     19  H   UNL     1       6.379  -5.393  27.610  0.00  0.00    +0.292 HD
ENDBRANCH  11  18
BRANCH  13  20
ATOM     20  O   UNL     1       3.738  -6.892  23.027  0.00  0.00    -0.507 OA
ATOM     21  H   UNL     1       3.944  -7.842  23.053  0.00  0.00    +0.292 HD
ENDBRANCH  13  20
BRANCH  17  22
ATOM     22  O   UNL     1       8.892  -1.987  26.040  0.00  0.00    -0.501 OA
ATOM     23  H   UNL     1       9.117  -1.216  25.491  0.00  0.00    +0.292 HD
ENDBRANCH  17  22
ENDBRANCH   2   7
BRANCH   5  24
ATOM     24  O   UNL     1      10.049   1.923  21.495  0.00  0.00    -0.503 OA
ATOM     25  H   UNL     1      10.897   2.113  21.925  0.00  0.00    +0.292 HD
ENDBRANCH   5  24
BRANCH   4  26
ATOM     26  O   UNL     1       7.431   1.729  21.932  0.00  0.00    -0.457 OA
BRANCH  26  27
ATOM     27  C   UNL     1       7.173   2.741  22.901  0.00  0.00    +0.339 C 
ATOM     28  O   UNL     1       8.320   3.061  23.695  0.00  0.00    -0.331 OA
ATOM     29  C   UNL     1       8.001   3.699  24.946  0.00  0.00    +0.179 C 
ATOM     30  C   UNL     1       7.049   4.913  24.784  0.00  0.00    +0.177 C 
ATOM     31  C   UNL     1       5.901   4.693  23.771  0.00  0.00    +0.180 C 
ATOM     32  C   UNL     1       6.418   4.025  22.481  0.00  0.00    +0.214 C 
BRANCH  30  33
ATOM     33  O   UNL     1       7.855   6.011  24.308  0.00  0.00    -0.386 OA
ATOM     34  H   UNL     1       7.287   6.567  23.741  0.00  0.00    +0.210 HD
ENDBRANCH  30  33
BRANCH  31  35
ATOM     35  O   UNL     1       4.813   3.969  24.345  0.00  0.00    -0.386 OA
ATOM     36  H   UNL     1       4.982   3.004  24.272  0.00  0.00    +0.210 HD
ENDBRANCH  31  35
BRANCH  32  37
ATOM     37  O   UNL     1       7.250   4.981  21.794  0.00  0.00    -0.383 OA
ATOM     38  H   UNL     1       7.935   4.467  21.314  0.00  0.00    +0.210 HD
ENDBRANCH  32  37
BRANCH  29  39
ATOM     39  C   UNL     1       7.547   2.663  25.991  0.00  0.00    +0.190 C 
BRANCH  39  40
ATOM     40  O   UNL     1       8.312   1.460  25.945  0.00  0.00    -0.392 OA
ATOM     41  H   UNL     1       8.283   1.083  26.849  0.00  0.00    +0.210 HD
ENDBRANCH  39  40
ENDBRANCH  29  39
ENDBRANCH  26  27
ENDBRANCH   4  26
TORSDOF 12
ENDMDL
MODEL 6
REMARK VINA RESULT:      -7.7      1.757      8.825
REMARK  Name = 
REMARK  12 active torsions:
REMARK  status: ('A' for Active; 'I' for Inactive)
REMARK    1  A    between atoms: C_3  and  O_38
REMARK    2  A    between atoms: C_4  and  O_21
REMARK    3  A    between atoms: C_6  and  C_7
REMARK    4  A    between atoms: C_8  and  O_20
REMARK    5  A    between atoms: C_12  and  O_19
REMARK    6  A    between atoms: C_14  and  O_18
REMARK    7  A    between atoms: O_21  and  C_22
REMARK    8  A    between atoms: C_24  and  O_37
REMARK    9  A    between atoms: C_26  and  O_36
REMARK   10  A    between atoms: C_28  and  O_35
REMARK   11  A    between atoms: C_30  and  C_33
REMARK   12  A    between atoms: C_33  and  O_34
REMARK                            x       y       z     vdW  Elec       q    Type
REMARK                         _______ _______ _______ _____ _____    ______ ____
ROOT
ATOM      1  C   UNL     1       9.908  -0.907  22.769  0.00  0.00    +0.015 A 
ATOM      2  C   UNL     1       9.112  -0.131  23.632  0.00  0.00    +0.025 A 
ATOM      3  C   UNL     1       8.754  -0.684  24.868  0.00  0.00    +0.061 A 
ATOM      4  C   UNL     1       8.997  -2.024  25.145  0.00  0.00    +0.166 A 
ATOM      5  C   UNL     1       9.729  -2.800  24.244  0.00  0.00    +0.159 A 
ATOM      6  C   UNL     1      10.212  -2.241  23.068  0.00  0.00    +0.050 A 
ENDROOT
BRANCH   2   7
ATOM      7  C   UNL     1       8.588   1.212  23.264  0.00  0.00    +0.181 A 
ATOM      8  O   UNL     1       9.461   2.257  23.571  0.00  0.00    -0.451 OA
ATOM      9  C   UNL     1       9.025   3.552  23.438  0.00  0.00    +0.147 A 
ATOM     10  C   UNL     1       7.801   3.874  22.864  0.00  0.00    +0.109 A 
ATOM     11  C   UNL     1       7.416   5.213  22.723  0.00  0.00    +0.135 A 
ATOM     12  C   UNL     1       8.257   6.233  23.154  0.00  0.00    +0.091 A 
ATOM     13  C   UNL     1       9.474   5.903  23.742  0.00  0.00    +0.124 A 
ATOM     14  C   UNL     1       6.916   2.786  22.450  0.00  0.00    +0.238 A 
ATOM     15  O   UNL     1       5.842   3.044  21.911  0.00  0.00    -0.283 OA
ATOM     16  C   UNL     1       9.865   4.572  23.892  0.00  0.00    +0.092 A 
ATOM     17  C   UNL     1       7.345   1.403  22.769  0.00  0.00    +0.208 A 
BRANCH  11  18
ATOM     18  O   UNL     1       6.225   5.593  22.170  0.00  0.00    -0.506 OA
ATOM     19  H   UNL     1       6.134   5.149  21.298  0.00  0.00    +0.292 HD
ENDBRANCH  11  18
BRANCH  13  20
ATOM     20  O   UNL     1      10.320   6.874  24.190  0.00  0.00    -0.507 OA
ATOM     21  H   UNL     1       9.792   7.626  24.510  0.00  0.00    +0.292 HD
ENDBRANCH  13  20
BRANCH  17  22
ATOM     22  O   UNL     1       6.398   0.411  22.590  0.00  0.00    -0.501 OA
ATOM     23  H   UNL     1       6.865  -0.391  22.296  0.00  0.00    +0.292 HD
ENDBRANCH  17  22
ENDBRANCH   2   7
BRANCH   5  24
ATOM     24  O   UNL     1       9.945  -4.122  24.525  0.00  0.00    -0.503 OA
ATOM     25  H   UNL     1      10.886  -4.260  24.717  0.00  0.00    +0.292 HD
ENDBRANCH   5  24
BRANCH   4  26
ATOM     26  O   UNL     1       8.585  -2.649  26.275  0.00  0.00    -0.457 OA
BRANCH  26  27
ATOM     27  C   UNL     1       7.383  -3.413  26.300  0.00  0.00    +0.339 C 
ATOM     28  O   UNL     1       6.819  -3.614  25.000  0.00  0.00    -0.331 OA
ATOM     29  C   UNL     1       5.419  -3.949  25.020  0.00  0.00    +0.179 C 
ATOM     30  C   UNL     1       5.088  -5.118  25.983  0.00  0.00    +0.177 C 
ATOM     31  C   UNL     1       5.836  -5.063  27.335  0.00  0.00    +0.180 C 
ATOM     32  C   UNL     1       7.326  -4.716  27.132  0.00  0.00    +0.214 C 
BRANCH  30  33
ATOM     33  O   UNL     1       5.478  -6.334  25.310  0.00  0.00    -0.386 OA
ATOM     34  H   UNL     1       6.448  -6.412  25.387  0.00  0.00    +0.210 HD
ENDBRANCH  30  33
BRANCH  31  35
ATOM     35  O   UNL     1       5.206  -4.176  28.260  0.00  0.00    -0.386 OA
ATOM     36  H   UNL     1       4.712  -3.483  27.770  0.00  0.00    +0.210 HD
ENDBRANCH  31  35
BRANCH  32  37
ATOM     37  O   UNL     1       7.954  -5.840  26.483  0.00  0.00    -0.383 OA
ATOM     38  H   UNL     1       7.244  -6.494  26.302  0.00  0.00    +0.210 HD
ENDBRANCH  32  37
BRANCH  29  39
ATOM     39  C   UNL     1       4.555  -2.690  25.217  0.00  0.00    +0.190 C 
BRANCH  39  40
ATOM     40  O   UNL     1       5.064  -1.555  24.519  0.00  0.00    -0.392 OA
ATOM     41  H   UNL     1       4.297  -0.965  24.363  0.00  0.00    +0.210 HD
ENDBRANCH  39  40
ENDBRANCH  29  39
ENDBRANCH  26  27
ENDBRANCH   4  26
TORSDOF 12
ENDMDL
MODEL 7
REMARK VINA RESULT:      -7.7      2.671      3.707
REMARK  Name = 
REMARK  12 active torsions:
REMARK  status: ('A' for Active; 'I' for Inactive)
REMARK    1  A    between atoms: C_3  and  O_38
REMARK    2  A    between atoms: C_4  and  O_21
REMARK    3  A    between atoms: C_6  and  C_7
REMARK    4  A    between atoms: C_8  and  O_20
REMARK    5  A    between atoms: C_12  and  O_19
REMARK    6  A    between atoms: C_14  and  O_18
REMARK    7  A    between atoms: O_21  and  C_22
REMARK    8  A    between atoms: C_24  and  O_37
REMARK    9  A    between atoms: C_26  and  O_36
REMARK   10  A    between atoms: C_28  and  O_35
REMARK   11  A    between atoms: C_30  and  C_33
REMARK   12  A    between atoms: C_33  and  O_34
REMARK                            x       y       z     vdW  Elec       q    Type
REMARK                         _______ _______ _______ _____ _____    ______ ____
ROOT
ATOM      1  C   UNL     1       9.062  -2.688  23.366  0.00  0.00    +0.015 A 
ATOM      2  C   UNL     1       7.814  -2.305  23.892  0.00  0.00    +0.025 A 
ATOM      3  C   UNL     1       7.644  -0.968  24.271  0.00  0.00    +0.061 A 
ATOM      4  C   UNL     1       8.730  -0.100  24.323  0.00  0.00    +0.166 A 
ATOM      5  C   UNL     1       9.979  -0.519  23.861  0.00  0.00    +0.159 A 
ATOM      6  C   UNL     1      10.146  -1.802  23.356  0.00  0.00    +0.050 A 
ENDROOT
BRANCH   2   7
ATOM      7  C   UNL     1       6.701  -3.266  24.120  0.00  0.00    +0.181 A 
ATOM      8  O   UNL     1       6.772  -3.924  25.348  0.00  0.00    -0.451 OA
ATOM      9  C   UNL     1       5.902  -4.956  25.604  0.00  0.00    +0.147 A 
ATOM     10  C   UNL     1       4.852  -5.277  24.753  0.00  0.00    +0.109 A 
ATOM     11  C   UNL     1       3.974  -6.320  25.076  0.00  0.00    +0.135 A 
ATOM     12  C   UNL     1       4.145  -7.041  26.252  0.00  0.00    +0.091 A 
ATOM     13  C   UNL     1       5.208  -6.725  27.092  0.00  0.00    +0.124 A 
ATOM     14  C   UNL     1       4.710  -4.530  23.505  0.00  0.00    +0.238 A 
ATOM     15  O   UNL     1       3.772  -4.772  22.751  0.00  0.00    -0.283 OA
ATOM     16  C   UNL     1       6.092  -5.691  26.777  0.00  0.00    +0.092 A 
ATOM     17  C   UNL     1       5.769  -3.542  23.181  0.00  0.00    +0.208 A 
BRANCH  11  18
ATOM     18  O   UNL     1       2.925  -6.685  24.280  0.00  0.00    -0.506 OA
ATOM     19  H   UNL     1       3.218  -6.640  23.343  0.00  0.00    +0.292 HD
ENDBRANCH  11  18
BRANCH  13  20
ATOM     20  O   UNL     1       5.418  -7.418  28.246  0.00  0.00    -0.507 OA
ATOM     21  H   UNL     1       6.122  -8.072  28.096  0.00  0.00    +0.292 HD
ENDBRANCH  13  20
BRANCH  17  22
ATOM     22  O   UNL     1       5.751  -3.023  21.899  0.00  0.00    -0.501 OA
ATOM     23  H   UNL     1       6.552  -2.481  21.791  0.00  0.00    +0.292 HD
ENDBRANCH  17  22
ENDBRANCH   2   7
BRANCH   5  24
ATOM     24  O   UNL     1      11.040   0.343  23.935  0.00  0.00    -0.503 OA
ATOM     25  H   UNL     1      11.570   0.268  23.126  0.00  0.00    +0.292 HD
ENDBRANCH   5  24
BRANCH   4  26
ATOM     26  O   UNL     1       8.657   1.174  24.779  0.00  0.00    -0.457 OA
BRANCH  26  27
ATOM     27  C   UNL     1       7.929   2.172  24.069  0.00  0.00    +0.339 C 
ATOM     28  O   UNL     1       8.249   3.503  24.488  0.00  0.00    -0.331 OA
ATOM     29  C   UNL     1       7.239   4.475  24.157  0.00  0.00    +0.179 C 
ATOM     30  C   UNL     1       6.811   4.421  22.667  0.00  0.00    +0.177 C 
ATOM     31  C   UNL     1       6.651   2.992  22.099  0.00  0.00    +0.180 C 
ATOM     32  C   UNL     1       7.826   2.089  22.527  0.00  0.00    +0.214 C 
BRANCH  30  33
ATOM     33  O   UNL     1       7.847   5.085  21.913  0.00  0.00    -0.386 OA
ATOM     34  H   UNL     1       8.206   5.798  22.475  0.00  0.00    +0.210 HD
ENDBRANCH  30  33
BRANCH  31  35
ATOM     35  O   UNL     1       5.389   2.418  22.441  0.00  0.00    -0.386 OA
ATOM     36  H   UNL     1       5.128   2.705  23.344  0.00  0.00    +0.210 HD
ENDBRANCH  31  35
BRANCH  32  37
ATOM     37  O   UNL     1       9.009   2.556  21.848  0.00  0.00    -0.383 OA
ATOM     38  H   UNL     1       9.767   2.063  22.228  0.00  0.00    +0.210 HD
ENDBRANCH  32  37
BRANCH  29  39
ATOM     39  C   UNL     1       6.075   4.422  25.162  0.00  0.00    +0.190 C 
BRANCH  39  40
ATOM     40  O   UNL     1       4.797   4.417  24.528  0.00  0.00    -0.392 OA
ATOM     41  H   UNL     1       4.492   3.486  24.537  0.00  0.00    +0.210 HD
ENDBRANCH  39  40
ENDBRANCH  29  39
ENDBRANCH  26  27
ENDBRANCH   4  26
TORSDOF 12
ENDMDL
MODEL 8
REMARK VINA RESULT:      -7.6      2.868      9.428
REMARK  Name = 
REMARK  12 active torsions:
REMARK  status: ('A' for Active; 'I' for Inactive)
REMARK    1  A    between atoms: C_3  and  O_38
REMARK    2  A    between atoms: C_4  and  O_21
REMARK    3  A    between atoms: C_6  and  C_7
REMARK    4  A    between atoms: C_8  and  O_20
REMARK    5  A    between atoms: C_12  and  O_19
REMARK    6  A    between atoms: C_14  and  O_18
REMARK    7  A    between atoms: O_21  and  C_22
REMARK    8  A    between atoms: C_24  and  O_37
REMARK    9  A    between atoms: C_26  and  O_36
REMARK   10  A    between atoms: C_28  and  O_35
REMARK   11  A    between atoms: C_30  and  C_33
REMARK   12  A    between atoms: C_33  and  O_34
REMARK                            x       y       z     vdW  Elec       q    Type
REMARK                         _______ _______ _______ _____ _____    ______ ____
ROOT
ATOM      1  C   UNL     1       7.240  -3.908  22.008  0.00  0.00    +0.015 A 
ATOM      2  C   UNL     1       6.932  -3.047  23.077  0.00  0.00    +0.025 A 
ATOM      3  C   UNL     1       5.878  -3.407  23.926  0.00  0.00    +0.061 A 
ATOM      4  C   UNL     1       5.034  -4.464  23.603  0.00  0.00    +0.166 A 
ATOM      5  C   UNL     1       5.315  -5.267  22.496  0.00  0.00    +0.159 A 
ATOM      6  C   UNL     1       6.432  -5.013  21.711  0.00  0.00    +0.050 A 
ENDROOT
BRANCH   2   7
ATOM      7  C   UNL     1       7.631  -1.753  23.303  0.00  0.00    +0.181 A 
ATOM      8  O   UNL     1       6.896  -0.641  22.888  0.00  0.00    -0.451 OA
ATOM      9  C   UNL     1       7.498   0.593  22.884  0.00  0.00    +0.147 A 
ATOM     10  C   UNL     1       8.762   0.811  23.421  0.00  0.00    +0.109 A 
ATOM     11  C   UNL     1       9.318   2.096  23.420  0.00  0.00    +0.135 A 
ATOM     12  C   UNL     1       8.610   3.166  22.885  0.00  0.00    +0.091 A 
ATOM     13  C   UNL     1       7.353   2.939  22.335  0.00  0.00    +0.124 A 
ATOM     14  C   UNL     1       9.504  -0.334  23.947  0.00  0.00    +0.238 A 
ATOM     15  O   UNL     1      10.609  -0.164  24.455  0.00  0.00    -0.283 OA
ATOM     16  C   UNL     1       6.791   1.661  22.326  0.00  0.00    +0.092 A 
ATOM     17  C   UNL     1       8.895  -1.675  23.774  0.00  0.00    +0.208 A 
BRANCH  11  18
ATOM     18  O   UNL     1      10.556   2.373  23.931  0.00  0.00    -0.506 OA
ATOM     19  H   UNL     1      11.217   1.828  23.450  0.00  0.00    +0.292 HD
ENDBRANCH  11  18
BRANCH  13  20
ATOM     20  O   UNL     1       6.634   3.959  21.788  0.00  0.00    -0.507 OA
ATOM     21  H   UNL     1       6.717   3.916  20.819  0.00  0.00    +0.292 HD
ENDBRANCH  13  20
BRANCH  17  22
ATOM     22  O   UNL     1       9.708  -2.758  24.057  0.00  0.00    -0.501 OA
ATOM     23  H   UNL     1       9.296  -3.546  23.660  0.00  0.00    +0.292 HD
ENDBRANCH  17  22
ENDBRANCH   2   7
BRANCH   5  24
ATOM     24  O   UNL     1       4.465  -6.292  22.184  0.00  0.00    -0.503 OA
ATOM     25  H   UNL     1       4.154  -6.712  23.001  0.00  0.00    +0.292 HD
ENDBRANCH   5  24
BRANCH   4  26
ATOM     26  O   UNL     1       3.936  -4.799  24.322  0.00  0.00    -0.457 OA
BRANCH  26  27
ATOM     27  C   UNL     1       4.050  -5.361  25.627  0.00  0.00    +0.339 C 
ATOM     28  O   UNL     1       2.884  -5.152  26.431  0.00  0.00    -0.331 OA
ATOM     29  C   UNL     1       3.125  -5.271  27.845  0.00  0.00    +0.179 C 
ATOM     30  C   UNL     1       3.869  -6.579  28.227  0.00  0.00    +0.177 C 
ATOM     31  C   UNL     1       5.015  -6.966  27.264  0.00  0.00    +0.180 C 
ATOM     32  C   UNL     1       4.582  -6.804  25.792  0.00  0.00    +0.214 C 
BRANCH  30  33
ATOM     33  O   UNL     1       2.888  -7.637  28.197  0.00  0.00    -0.386 OA
ATOM     34  H   UNL     1       2.096  -7.289  27.744  0.00  0.00    +0.210 HD
ENDBRANCH  30  33
BRANCH  31  35
ATOM     35  O   UNL     1       6.216  -6.248  27.546  0.00  0.00    -0.386 OA
ATOM     36  H   UNL     1       6.206  -5.386  27.076  0.00  0.00    +0.210 HD
ENDBRANCH  31  35
BRANCH  32  37
ATOM     37  O   UNL     1       3.595  -7.816  25.511  0.00  0.00    -0.383 OA
ATOM     38  H   UNL     1       3.098  -7.965  26.344  0.00  0.00    +0.210 HD
ENDBRANCH  32  37
BRANCH  29  39
ATOM     39  C   UNL     1       3.760  -3.985  28.406  0.00  0.00    +0.190 C 
BRANCH  39  40
ATOM     40  O   UNL     1       4.748  -4.245  29.401  0.00  0.00    -0.392 OA
ATOM     41  H   UNL     1       4.417  -3.835  30.228  0.00  0.00    +0.210 HD
ENDBRANCH  39  40
ENDBRANCH  29  39
ENDBRANCH  26  27
ENDBRANCH   4  26
TORSDOF 12
ENDMDL
MODEL 9
REMARK VINA RESULT:      -7.6      2.333      3.323
REMARK  Name = 
REMARK  12 active torsions:
REMARK  status: ('A' for Active; 'I' for Inactive)
REMARK    1  A    between atoms: C_3  and  O_38
REMARK    2  A    between atoms: C_4  and  O_21
REMARK    3  A    between atoms: C_6  and  C_7
REMARK    4  A    between atoms: C_8  and  O_20
REMARK    5  A    between atoms: C_12  and  O_19
REMARK    6  A    between atoms: C_14  and  O_18
REMARK    7  A    between atoms: O_21  and  C_22
REMARK    8  A    between atoms: C_24  and  O_37
REMARK    9  A    between atoms: C_26  and  O_36
REMARK   10  A    between atoms: C_28  and  O_35
REMARK   11  A    between atoms: C_30  and  C_33
REMARK   12  A    between atoms: C_33  and  O_34
REMARK                            x       y       z     vdW  Elec       q    Type
REMARK                         _______ _______ _______ _____ _____    ______ ____
ROOT
ATOM      1  C   UNL     1       9.103  -1.807  22.311  0.00  0.00    +0.015 A 
ATOM      2  C   UNL     1       7.745  -1.615  22.628  0.00  0.00    +0.025 A 
ATOM      3  C   UNL     1       7.195  -0.345  22.416  0.00  0.00    +0.061 A 
ATOM      4  C   UNL     1       8.008   0.739  22.103  0.00  0.00    +0.166 A 
ATOM      5  C   UNL     1       9.369   0.542  21.860  0.00  0.00    +0.159 A 
ATOM      6  C   UNL     1       9.917  -0.731  21.934  0.00  0.00    +0.050 A 
ENDROOT
BRANCH   2   7
ATOM      7  C   UNL     1       6.896  -2.677  23.233  0.00  0.00    +0.181 A 
ATOM      8  O   UNL     1       7.272  -3.021  24.532  0.00  0.00    -0.451 OA
ATOM      9  C   UNL     1       6.678  -4.103  25.134  0.00  0.00    +0.147 A 
ATOM     10  C   UNL     1       5.608  -4.782  24.565  0.00  0.00    +0.109 A 
ATOM     11  C   UNL     1       5.017  -5.860  25.235  0.00  0.00    +0.135 A 
ATOM     12  C   UNL     1       5.496  -6.260  26.478  0.00  0.00    +0.091 A 
ATOM     13  C   UNL     1       6.578  -5.587  27.035  0.00  0.00    +0.124 A 
ATOM     14  C   UNL     1       5.142  -4.367  23.242  0.00  0.00    +0.238 A 
ATOM     15  O   UNL     1       4.177  -4.930  22.731  0.00  0.00    -0.283 OA
ATOM     16  C   UNL     1       7.177  -4.514  26.373  0.00  0.00    +0.092 A 
ATOM     17  C   UNL     1       5.919  -3.311  22.549  0.00  0.00    +0.208 A 
BRANCH  11  18
ATOM     18  O   UNL     1       3.964  -6.568  24.727  0.00  0.00    -0.506 OA
ATOM     19  H   UNL     1       3.142  -6.053  24.882  0.00  0.00    +0.292 HD
ENDBRANCH  11  18
BRANCH  13  20
ATOM     20  O   UNL     1       7.085  -5.958  28.244  0.00  0.00    -0.507 OA
ATOM     21  H   UNL     1       7.578  -6.790  28.135  0.00  0.00    +0.292 HD
ENDBRANCH  13  20
BRANCH  17  22
ATOM     22  O   UNL     1       5.615  -3.102  21.216  0.00  0.00    -0.501 OA
ATOM     23  H   UNL     1       4.822  -3.628  21.010  0.00  0.00    +0.292 HD
ENDBRANCH  17  22
ENDBRANCH   2   7
BRANCH   5  24
ATOM     24  O   UNL     1      10.157   1.623  21.569  0.00  0.00    -0.503 OA
ATOM     25  H   UNL     1       9.698   2.193  20.934  0.00  0.00    +0.292 HD
ENDBRANCH   5  24
BRANCH   4  26
ATOM     26  O   UNL     1       7.558   2.012  21.987  0.00  0.00    -0.457 OA
BRANCH  26  27
ATOM     27  C   UNL     1       7.436   2.859  23.127  0.00  0.00    +0.339 C 
ATOM     28  O   UNL     1       8.541   2.747  24.029  0.00  0.00    -0.331 OA
ATOM     29  C   UNL     1       8.249   3.198  25.365  0.00  0.00    +0.179 C 
ATOM     30  C   UNL     1       7.610   4.612  25.401  0.00  0.00    +0.177 C 
ATOM     31  C   UNL     1       6.547   4.860  24.305  0.00  0.00    +0.180 C 
ATOM     32  C   UNL     1       7.029   4.339  22.936  0.00  0.00    +0.214 C 
BRANCH  30  33
ATOM     33  O   UNL     1       8.681   5.557  25.202  0.00  0.00    -0.386 OA
ATOM     34  H   UNL     1       9.276   5.491  25.973  0.00  0.00    +0.210 HD
ENDBRANCH  30  33
BRANCH  31  35
ATOM     35  O   UNL     1       5.275   4.320  24.662  0.00  0.00    -0.386 OA
ATOM     36  H   UNL     1       5.395   3.574  25.289  0.00  0.00    +0.210 HD
ENDBRANCH  31  35
BRANCH  32  37
ATOM     37  O   UNL     1       8.115   5.182  22.503  0.00  0.00    -0.383 OA
ATOM     38  H   UNL     1       8.459   4.794  21.669  0.00  0.00    +0.210 HD
ENDBRANCH  32  37
BRANCH  29  39
ATOM     39  C   UNL     1       7.477   2.124  26.152  0.00  0.00    +0.190 C 
BRANCH  39  40
ATOM     40  O   UNL     1       8.167   0.878  26.210  0.00  0.00    -0.392 OA
ATOM     41  H   UNL     1       9.022   1.060  26.654  0.00  0.00    +0.210 HD
ENDBRANCH  39  40
ENDBRANCH  29  39
ENDBRANCH  26  27
ENDBRANCH   4  26
TORSDOF 12
ENDMDL
