MODEL 1
REMARK VINA RESULT:      -5.6      0.000      0.000
REMARK  Name = 
REMARK  30 active torsions:
REMARK  status: ('A' for Active; 'I' for Inactive)
REMARK    1  A    between atoms: C_1  and  O_2
REMARK    2  A    between atoms: O_2  and  C_3
REMARK    3  A    between atoms: C_4  and  O_76
REMARK    4  A    between atoms: C_7  and  C_9
REMARK    5  A    between atoms: C_10  and  C_11
REMARK    6  A    between atoms: C_11  and  O_13
REMARK    7  A    between atoms: O_13  and  C_14
REMARK    8  A    between atoms: C_14  and  C_15
REMARK    9  A    between atoms: C_16  and  O_75
REMARK   10  A    between atoms: C_18  and  O_74
REMARK   11  A    between atoms: C_19  and  O_73
REMARK   12  A    between atoms: C_21  and  O_24
REMARK   13  A    between atoms: O_24  and  C_25
REMARK   14  A    between atoms: C_26  and  O_37
REMARK   15  A    between atoms: C_29  and  C_35
REMARK   16  A    between atoms: C_30  and  O_34
REMARK   17  A    between atoms: C_32  and  O_33
REMARK   18  A    between atoms: C_35  and  O_36
REMARK   19  A    between atoms: O_37  and  C_38
REMARK   20  A    between atoms: C_39  and  O_72
REMARK   21  A    between atoms: C_41  and  O_71
REMARK   22  A    between atoms: C_43  and  C_69
REMARK   23  A    between atoms: C_45  and  O_47
REMARK   24  A    between atoms: O_47  and  C_48
REMARK   25  A    between atoms: C_49  and  C_61
REMARK   26  A    between atoms: C_53  and  O_60
REMARK   27  A    between atoms: C_55  and  O_59
REMARK   28  A    between atoms: C_63  and  O_68
REMARK   29  A    between atoms: C_64  and  O_67
REMARK   30  A    between atoms: C_69  and  O_70
REMARK                            x       y       z     vdW  Elec       q    Type
REMARK                         _______ _______ _______ _____ _____    ______ ____
ROOT
ATOM      1  C   UNL     1       6.121   2.440  24.383  0.00  0.00    +0.208 C 
ATOM      2  C   UNL     1       7.318   3.203  24.944  0.00  0.00    +0.179 C 
ATOM      3  C   UNL     1       8.002   3.980  23.820  0.00  0.00    +0.177 C 
ATOM      4  C   UNL     1       8.420   3.065  22.659  0.00  0.00    +0.178 C 
ATOM      5  O   UNL     1       7.341   2.222  22.231  0.00  0.00    -0.341 OA
ATOM      6  C   UNL     1       6.628   1.502  23.258  0.00  0.00    +0.283 C 
ENDROOT
BRANCH   3   7
ATOM      7  O   UNL     1       9.093   4.732  24.339  0.00  0.00    -0.386 OA
ATOM      8  H   UNL     1       8.852   5.085  25.209  0.00  0.00    +0.210 HD
ENDBRANCH   3   7
BRANCH   2   9
ATOM      9  O   UNL     1       8.226   2.315  25.587  0.00  0.00    -0.386 OA
ATOM     10  H   UNL     1       8.897   2.025  24.934  0.00  0.00    +0.210 HD
ENDBRANCH   2   9
BRANCH   6  11
ATOM     11  O   UNL     1       7.450   0.447  23.768  0.00  0.00    -0.337 OA
BRANCH  11  12
ATOM     12  C   UNL     1       7.263  -0.891  23.226  0.00  0.00    +0.221 C 
ATOM     13  C   UNL     1       7.142  -1.897  24.416  0.00  0.00    +0.340 C 
ATOM     14  O   UNL     1       8.345  -1.796  25.196  0.00  0.00    -0.331 OA
ATOM     15  C   UNL     1       9.586  -2.071  24.500  0.00  0.00    +0.179 C 
ATOM     16  C   UNL     1       9.727  -1.310  23.165  0.00  0.00    +0.177 C 
ATOM     17  C   UNL     1       8.433  -1.370  22.349  0.00  0.00    +0.180 C 
BRANCH  17  18
ATOM     18  O   UNL     1       8.596  -0.587  21.152  0.00  0.00    -0.386 OA
ATOM     19  H   UNL     1       7.734  -0.194  20.917  0.00  0.00    +0.210 HD
ENDBRANCH  17  18
BRANCH  16  20
ATOM     20  O   UNL     1      10.829  -1.772  22.372  0.00  0.00    -0.386 OA
ATOM     21  H   UNL     1      11.482  -2.118  23.012  0.00  0.00    +0.210 HD
ENDBRANCH  16  20
BRANCH  13  22
ATOM     22  O   UNL     1       5.940  -1.554  25.188  0.00  0.00    -0.453 OA
BRANCH  22  23
ATOM     23  C   UNL     1       5.487  -2.386  26.229  0.00  0.00    +0.214 A 
ATOM     24  C   UNL     1       5.468  -3.879  26.028  0.00  0.00    +0.238 A 
ATOM     25  O   UNL     1       5.751  -4.394  24.953  0.00  0.00    -0.283 OA
ATOM     26  C   UNL     1       5.086  -4.740  27.153  0.00  0.00    +0.109 A 
ATOM     27  C   UNL     1       4.611  -4.127  28.301  0.00  0.00    +0.147 A 
ATOM     28  C   UNL     1       4.158  -4.890  29.380  0.00  0.00    +0.092 A 
ATOM     29  C   UNL     1       4.205  -6.277  29.299  0.00  0.00    +0.124 A 
ATOM     30  C   UNL     1       4.708  -6.909  28.170  0.00  0.00    +0.091 A 
ATOM     31  O   UNL     1       4.562  -2.773  28.446  0.00  0.00    -0.451 OA
ATOM     32  C   UNL     1       5.151  -6.139  27.097  0.00  0.00    +0.135 A 
ATOM     33  C   UNL     1       5.086  -1.933  27.464  0.00  0.00    +0.181 A 
BRANCH  33  34
ATOM     34  C   UNL     1       5.146  -0.523  28.015  0.00  0.00    +0.025 A 
ATOM     35  C   UNL     1       4.126   0.053  28.828  0.00  0.00    +0.015 A 
ATOM     36  C   UNL     1       4.252   1.332  29.422  0.00  0.00    +0.050 A 
ATOM     37  C   UNL     1       5.416   2.044  29.230  0.00  0.00    +0.158 A 
ATOM     38  C   UNL     1       6.418   1.494  28.459  0.00  0.00    +0.159 A 
ATOM     39  C   UNL     1       6.287   0.249  27.855  0.00  0.00    +0.060 A 
BRANCH  38  40
ATOM     40  O   UNL     1       7.559   2.221  28.334  0.00  0.00    -0.503 OA
ATOM     41  H   UNL     1       7.829   2.159  27.391  0.00  0.00    +0.292 HD
ENDBRANCH  38  40
BRANCH  37  42
ATOM     42  O   UNL     1       5.613   3.274  29.789  0.00  0.00    -0.503 OA
ATOM     43  H   UNL     1       6.326   3.672  29.233  0.00  0.00    +0.292 HD
ENDBRANCH  37  42
ENDBRANCH  33  34
BRANCH  32  44
ATOM     44  O   UNL     1       5.654  -6.779  26.001  0.00  0.00    -0.506 OA
ATOM     45  H   UNL     1       6.570  -7.052  26.163  0.00  0.00    +0.292 HD
ENDBRANCH  32  44
BRANCH  29  46
ATOM     46  O   UNL     1       3.762  -7.071  30.314  0.00  0.00    -0.507 OA
ATOM     47  H   UNL     1       3.213  -7.782  29.946  0.00  0.00    +0.292 HD
ENDBRANCH  29  46
ENDBRANCH  22  23
ENDBRANCH  13  22
BRANCH  15  48
ATOM     48  C   UNL     1       9.915  -3.571  24.394  0.00  0.00    +0.190 C 
BRANCH  48  49
ATOM     49  O   UNL     1       8.775  -4.368  24.081  0.00  0.00    -0.392 OA
ATOM     50  H   UNL     1       8.381  -3.952  23.292  0.00  0.00    +0.210 HD
ENDBRANCH  48  49
ENDBRANCH  15  48
ENDBRANCH  11  12
ENDBRANCH   6  11
BRANCH   4  51
ATOM     51  C   UNL     1       9.711   2.245  22.832  0.00  0.00    +0.190 C 
BRANCH  51  52
ATOM     52  O   UNL     1      10.207   1.886  21.539  0.00  0.00    -0.392 OA
ATOM     53  H   UNL     1      10.919   1.238  21.702  0.00  0.00    +0.210 HD
ENDBRANCH  51  52
ENDBRANCH   4  51
BRANCH   1  54
ATOM     54  O   UNL     1       5.129   3.295  23.827  0.00  0.00    -0.338 OA
BRANCH  54  57
ATOM     55  C   UNL     1       1.848   3.091  25.359  0.00  0.00    +0.190 C 
ATOM     56  O   UNL     1       2.844   3.033  24.327  0.00  0.00    -0.339 OA
ATOM     57  C   UNL     1       4.061   3.677  24.677  0.00  0.00    +0.282 C 
ATOM     58  C   UNL     1       3.811   5.191  24.784  0.00  0.00    +0.201 C 
ATOM     59  C   UNL     1       2.883   5.379  25.998  0.00  0.00    +0.179 C 
ATOM     60  C   UNL     1       1.594   4.540  25.841  0.00  0.00    +0.178 C 
BRANCH  58  61
ATOM     61  O   UNL     1       5.024   5.939  24.908  0.00  0.00    -0.384 OA
ATOM     62  H   UNL     1       5.408   5.745  25.783  0.00  0.00    +0.210 HD
ENDBRANCH  58  61
BRANCH  59  63
ATOM     63  O   UNL     1       2.548   6.761  26.190  0.00  0.00    -0.386 OA
ATOM     64  H   UNL     1       3.332   7.238  26.512  0.00  0.00    +0.210 HD
ENDBRANCH  59  63
BRANCH  60  65
ATOM     65  O   UNL     1       0.879   4.532  27.077  0.00  0.00    -0.386 OA
ATOM     66  H   UNL     1       1.505   4.752  27.790  0.00  0.00    +0.210 HD
ENDBRANCH  60  65
BRANCH  55  67
ATOM     67  C   UNL     1       2.200   2.069  26.458  0.00  0.00    +0.266 C 
BRANCH  67  68
ATOM     68  O   UNL     1       1.296   0.942  26.384  0.00  0.00    -0.459 OA
BRANCH  68  69
ATOM     69  C   UNL     1       0.772   0.571  27.577  0.00  0.00    +0.332 C 
ATOM     70  O   UNL     1       0.443   1.333  28.476  0.00  0.00    -0.246 OA
BRANCH  69  72
ATOM     71  C   UNL     1       1.364  -1.639  26.771  0.00  0.00    +0.015 C 
ATOM     72  C   UNL     1       0.649  -0.895  27.631  0.00  0.00    +0.092 C 
BRANCH  71  75
ATOM     73  C   UNL     1       1.864  -5.219  25.629  0.00  0.00    +0.162 A 
ATOM     74  C   UNL     1       1.871  -3.822  25.637  0.00  0.00    +0.057 A 
ATOM     75  C   UNL     1       1.381  -3.110  26.741  0.00  0.00    -0.021 A 
ATOM     76  C   UNL     1       0.931  -3.820  27.865  0.00  0.00    +0.012 A 
ATOM     77  C   UNL     1       0.909  -5.216  27.860  0.00  0.00    +0.050 A 
ATOM     78  C   UNL     1       1.358  -5.900  26.739  0.00  0.00    +0.158 A 
BRANCH  78  79
ATOM     79  O   UNL     1       1.310  -7.266  26.753  0.00  0.00    -0.503 OA
ATOM     80  H   UNL     1       2.177  -7.557  26.409  0.00  0.00    +0.292 HD
ENDBRANCH  78  79
BRANCH  73  82
ATOM     81  C   UNL     1       2.765  -5.285  23.448  0.00  0.00    +0.277 C 
ATOM     82  O   UNL     1       2.298  -6.001  24.589  0.00  0.00    -0.491 OA
ENDBRANCH  73  82
ENDBRANCH  71  75
ENDBRANCH  69  72
ENDBRANCH  68  69
ENDBRANCH  67  68
ENDBRANCH  55  67
ENDBRANCH  54  57
ENDBRANCH   1  54
TORSDOF 29
ENDMDL
MODEL 2
REMARK VINA RESULT:      -5.5      2.205      6.669
REMARK  Name = 
REMARK  30 active torsions:
REMARK  status: ('A' for Active; 'I' for Inactive)
REMARK    1  A    between atoms: C_1  and  O_2
REMARK    2  A    between atoms: O_2  and  C_3
REMARK    3  A    between atoms: C_4  and  O_76
REMARK    4  A    between atoms: C_7  and  C_9
REMARK    5  A    between atoms: C_10  and  C_11
REMARK    6  A    between atoms: C_11  and  O_13
REMARK    7  A    between atoms: O_13  and  C_14
REMARK    8  A    between atoms: C_14  and  C_15
REMARK    9  A    between atoms: C_16  and  O_75
REMARK   10  A    between atoms: C_18  and  O_74
REMARK   11  A    between atoms: C_19  and  O_73
REMARK   12  A    between atoms: C_21  and  O_24
REMARK   13  A    between atoms: O_24  and  C_25
REMARK   14  A    between atoms: C_26  and  O_37
REMARK   15  A    between atoms: C_29  and  C_35
REMARK   16  A    between atoms: C_30  and  O_34
REMARK   17  A    between atoms: C_32  and  O_33
REMARK   18  A    between atoms: C_35  and  O_36
REMARK   19  A    between atoms: O_37  and  C_38
REMARK   20  A    between atoms: C_39  and  O_72
REMARK   21  A    between atoms: C_41  and  O_71
REMARK   22  A    between atoms: C_43  and  C_69
REMARK   23  A    between atoms: C_45  and  O_47
REMARK   24  A    between atoms: O_47  and  C_48
REMARK   25  A    between atoms: C_49  and  C_61
REMARK   26  A    between atoms: C_53  and  O_60
REMARK   27  A    between atoms: C_55  and  O_59
REMARK   28  A    between atoms: C_63  and  O_68
REMARK   29  A    between atoms: C_64  and  O_67
REMARK   30  A    between atoms: C_69  and  O_70
REMARK                            x       y       z     vdW  Elec       q    Type
REMARK                         _______ _______ _______ _____ _____    ______ ____
ROOT
ATOM      1  C   UNL     1       6.162   3.332  23.796  0.00  0.00    +0.208 C 
ATOM      2  C   UNL     1       4.897   2.801  23.126  0.00  0.00    +0.179 C 
ATOM      3  C   UNL     1       3.986   3.970  22.754  0.00  0.00    +0.177 C 
ATOM      4  C   UNL     1       3.646   4.845  23.971  0.00  0.00    +0.178 C 
ATOM      5  O   UNL     1       4.821   5.215  24.705  0.00  0.00    -0.341 OA
ATOM      6  C   UNL     1       5.741   4.156  25.040  0.00  0.00    +0.283 C 
ENDROOT
BRANCH   3   7
ATOM      7  O   UNL     1       2.823   3.490  22.087  0.00  0.00    -0.386 OA
ATOM      8  H   UNL     1       2.121   4.156  22.152  0.00  0.00    +0.210 HD
ENDBRANCH   3   7
BRANCH   2   9
ATOM      9  O   UNL     1       4.229   1.873  23.973  0.00  0.00    -0.386 OA
ATOM     10  H   UNL     1       3.269   2.070  23.959  0.00  0.00    +0.210 HD
ENDBRANCH   2   9
BRANCH   6  11
ATOM     11  O   UNL     1       5.177   3.331  26.065  0.00  0.00    -0.337 OA
BRANCH  11  12
ATOM     12  C   UNL     1       6.086   2.633  26.962  0.00  0.00    +0.221 C 
ATOM     13  C   UNL     1       5.428   1.280  27.384  0.00  0.00    +0.340 C 
ATOM     14  O   UNL     1       4.174   1.585  28.018  0.00  0.00    -0.331 OA
ATOM     15  C   UNL     1       4.237   2.437  29.189  0.00  0.00    +0.179 C 
ATOM     16  C   UNL     1       5.075   3.715  28.977  0.00  0.00    +0.177 C 
ATOM     17  C   UNL     1       6.390   3.408  28.257  0.00  0.00    +0.180 C 
BRANCH  17  18
ATOM     18  O   UNL     1       7.096   4.641  28.021  0.00  0.00    -0.386 OA
ATOM     19  H   UNL     1       7.980   4.430  27.663  0.00  0.00    +0.210 HD
ENDBRANCH  17  18
BRANCH  16  20
ATOM     20  O   UNL     1       5.337   4.421  30.197  0.00  0.00    -0.386 OA
ATOM     21  H   UNL     1       5.725   3.757  30.802  0.00  0.00    +0.210 HD
ENDBRANCH  16  20
BRANCH  13  22
ATOM     22  O   UNL     1       5.263   0.454  26.180  0.00  0.00    -0.453 OA
BRANCH  22  23
ATOM     23  C   UNL     1       5.893  -0.800  26.072  0.00  0.00    +0.214 A 
ATOM     24  C   UNL     1       7.267  -0.889  25.461  0.00  0.00    +0.238 A 
ATOM     25  O   UNL     1       7.824   0.085  24.971  0.00  0.00    -0.283 OA
ATOM     26  C   UNL     1       7.951  -2.187  25.444  0.00  0.00    +0.109 A 
ATOM     27  C   UNL     1       7.233  -3.299  25.852  0.00  0.00    +0.147 A 
ATOM     28  C   UNL     1       7.800  -4.574  25.787  0.00  0.00    +0.092 A 
ATOM     29  C   UNL     1       9.103  -4.717  25.324  0.00  0.00    +0.124 A 
ATOM     30  C   UNL     1       9.849  -3.611  24.942  0.00  0.00    +0.091 A 
ATOM     31  O   UNL     1       5.961  -3.219  26.334  0.00  0.00    -0.451 OA
ATOM     32  C   UNL     1       9.273  -2.344  25.004  0.00  0.00    +0.135 A 
ATOM     33  C   UNL     1       5.353  -1.979  26.531  0.00  0.00    +0.181 A 
BRANCH  33  34
ATOM     34  C   UNL     1       4.080  -2.187  27.324  0.00  0.00    +0.025 A 
ATOM     35  C   UNL     1       4.037  -2.816  28.603  0.00  0.00    +0.015 A 
ATOM     36  C   UNL     1       2.852  -2.901  29.375  0.00  0.00    +0.050 A 
ATOM     37  C   UNL     1       1.696  -2.334  28.886  0.00  0.00    +0.158 A 
ATOM     38  C   UNL     1       1.724  -1.708  27.657  0.00  0.00    +0.159 A 
ATOM     39  C   UNL     1       2.880  -1.645  26.887  0.00  0.00    +0.060 A 
BRANCH  38  40
ATOM     40  O   UNL     1       0.567  -1.132  27.240  0.00  0.00    -0.503 OA
ATOM     41  H   UNL     1       0.788  -0.207  26.993  0.00  0.00    +0.292 HD
ENDBRANCH  38  40
BRANCH  37  42
ATOM     42  O   UNL     1       0.524  -2.362  29.585  0.00  0.00    -0.503 OA
ATOM     43  H   UNL     1      -0.147  -2.618  28.907  0.00  0.00    +0.292 HD
ENDBRANCH  37  42
ENDBRANCH  33  34
BRANCH  32  44
ATOM     44  O   UNL     1      10.027  -1.267  24.636  0.00  0.00    -0.506 OA
ATOM     45  H   UNL     1      10.571  -0.968  25.381  0.00  0.00    +0.292 HD
ENDBRANCH  32  44
BRANCH  29  46
ATOM     46  O   UNL     1       9.700  -5.938  25.225  0.00  0.00    -0.507 OA
ATOM     47  H   UNL     1       9.142  -6.601  25.665  0.00  0.00    +0.292 HD
ENDBRANCH  29  46
ENDBRANCH  22  23
ENDBRANCH  13  22
BRANCH  15  48
ATOM     48  C   UNL     1       4.581   1.681  30.485  0.00  0.00    +0.190 C 
BRANCH  48  49
ATOM     49  O   UNL     1       5.012   0.343  30.248  0.00  0.00    -0.392 OA
ATOM     50  H   UNL     1       5.096  -0.060  31.132  0.00  0.00    +0.210 HD
ENDBRANCH  48  49
ENDBRANCH  15  48
ENDBRANCH  11  12
ENDBRANCH   6  11
BRANCH   4  51
ATOM     51  C   UNL     1       2.549   4.337  24.924  0.00  0.00    +0.190 C 
BRANCH  51  52
ATOM     52  O   UNL     1       1.477   3.795  24.146  0.00  0.00    -0.392 OA
ATOM     53  H   UNL     1       1.207   4.510  23.538  0.00  0.00    +0.210 HD
ENDBRANCH  51  52
ENDBRANCH   4  51
BRANCH   1  54
ATOM     54  O   UNL     1       6.926   4.180  22.947  0.00  0.00    -0.338 OA
BRANCH  54  57
ATOM     55  C   UNL     1      10.153   2.674  23.626  0.00  0.00    +0.190 C 
ATOM     56  O   UNL     1       8.757   2.965  23.787  0.00  0.00    -0.339 OA
ATOM     57  C   UNL     1       8.336   4.124  23.084  0.00  0.00    +0.282 C 
ATOM     58  C   UNL     1       8.987   5.361  23.726  0.00  0.00    +0.201 C 
ATOM     59  C   UNL     1      10.495   5.235  23.444  0.00  0.00    +0.179 C 
ATOM     60  C   UNL     1      11.045   3.891  23.973  0.00  0.00    +0.178 C 
BRANCH  58  61
ATOM     61  O   UNL     1       8.443   6.587  23.229  0.00  0.00    -0.384 OA
ATOM     62  H   UNL     1       7.612   6.763  23.708  0.00  0.00    +0.210 HD
ENDBRANCH  58  61
BRANCH  59  63
ATOM     63  O   UNL     1      11.227   6.326  24.022  0.00  0.00    -0.386 OA
ATOM     64  H   UNL     1      11.695   6.806  23.318  0.00  0.00    +0.210 HD
ENDBRANCH  59  63
BRANCH  60  65
ATOM     65  O   UNL     1      12.369   3.691  23.480  0.00  0.00    -0.386 OA
ATOM     66  H   UNL     1      12.740   2.904  23.919  0.00  0.00    +0.210 HD
ENDBRANCH  60  65
BRANCH  55  67
ATOM     67  C   UNL     1      10.383   2.048  22.236  0.00  0.00    +0.266 C 
BRANCH  67  68
ATOM     68  O   UNL     1      10.031   0.644  22.269  0.00  0.00    -0.459 OA
BRANCH  68  69
ATOM     69  C   UNL     1       8.943   0.327  21.527  0.00  0.00    +0.332 C 
ATOM     70  O   UNL     1       8.332   1.096  20.797  0.00  0.00    -0.246 OA
BRANCH  69  72
ATOM     71  C   UNL     1       7.332  -1.422  22.007  0.00  0.00    +0.015 C 
ATOM     72  C   UNL     1       8.603  -1.091  21.724  0.00  0.00    +0.092 C 
BRANCH  71  75
ATOM     73  C   UNL     1       5.058  -4.381  22.672  0.00  0.00    +0.162 A 
ATOM     74  C   UNL     1       5.500  -3.067  22.501  0.00  0.00    +0.057 A 
ATOM     75  C   UNL     1       6.837  -2.796  22.181  0.00  0.00    -0.021 A 
ATOM     76  C   UNL     1       7.720  -3.869  21.982  0.00  0.00    +0.012 A 
ATOM     77  C   UNL     1       7.291  -5.185  22.164  0.00  0.00    +0.050 A 
ATOM     78  C   UNL     1       5.972  -5.427  22.523  0.00  0.00    +0.158 A 
BRANCH  78  79
ATOM     79  O   UNL     1       5.581  -6.724  22.711  0.00  0.00    -0.503 OA
ATOM     80  H   UNL     1       4.716  -6.799  22.263  0.00  0.00    +0.292 HD
ENDBRANCH  78  79
BRANCH  73  82
ATOM     81  C   UNL     1       3.297  -4.194  24.233  0.00  0.00    +0.277 C 
ATOM     82  O   UNL     1       3.778  -4.743  23.009  0.00  0.00    -0.491 OA
ENDBRANCH  73  82
ENDBRANCH  71  75
ENDBRANCH  69  72
ENDBRANCH  68  69
ENDBRANCH  67  68
ENDBRANCH  55  67
ENDBRANCH  54  57
ENDBRANCH   1  54
TORSDOF 29
ENDMDL
MODEL 3
REMARK VINA RESULT:      -5.1      1.823      8.231
REMARK  Name = 
REMARK  30 active torsions:
REMARK  status: ('A' for Active; 'I' for Inactive)
REMARK    1  A    between atoms: C_1  and  O_2
REMARK    2  A    between atoms: O_2  and  C_3
REMARK    3  A    between atoms: C_4  and  O_76
REMARK    4  A    between atoms: C_7  and  C_9
REMARK    5  A    between atoms: C_10  and  C_11
REMARK    6  A    between atoms: C_11  and  O_13
REMARK    7  A    between atoms: O_13  and  C_14
REMARK    8  A    between atoms: C_14  and  C_15
REMARK    9  A    between atoms: C_16  and  O_75
REMARK   10  A    between atoms: C_18  and  O_74
REMARK   11  A    between atoms: C_19  and  O_73
REMARK   12  A    between atoms: C_21  and  O_24
REMARK   13  A    between atoms: O_24  and  C_25
REMARK   14  A    between atoms: C_26  and  O_37
REMARK   15  A    between atoms: C_29  and  C_35
REMARK   16  A    between atoms: C_30  and  O_34
REMARK   17  A    between atoms: C_32  and  O_33
REMARK   18  A    between atoms: C_35  and  O_36
REMARK   19  A    between atoms: O_37  and  C_38
REMARK   20  A    between atoms: C_39  and  O_72
REMARK   21  A    between atoms: C_41  and  O_71
REMARK   22  A    between atoms: C_43  and  C_69
REMARK   23  A    between atoms: C_45  and  O_47
REMARK   24  A    between atoms: O_47  and  C_48
REMARK   25  A    between atoms: C_49  and  C_61
REMARK   26  A    between atoms: C_53  and  O_60
REMARK   27  A    between atoms: C_55  and  O_59
REMARK   28  A    between atoms: C_63  and  O_68
REMARK   29  A    between atoms: C_64  and  O_67
REMARK   30  A    between atoms: C_69  and  O_70
REMARK                            x       y       z     vdW  Elec       q    Type
REMARK                         _______ _______ _______ _____ _____    ______ ____
ROOT
ATOM      1  C   UNL     1       2.173  -2.820  26.215  0.00  0.00    +0.208 C 
ATOM      2  C   UNL     1       1.970  -3.590  24.913  0.00  0.00    +0.179 C 
ATOM      3  C   UNL     1       1.066  -4.795  25.167  0.00  0.00    +0.177 C 
ATOM      4  C   UNL     1       1.619  -5.707  26.273  0.00  0.00    +0.178 C 
ATOM      5  O   UNL     1       1.968  -4.965  27.449  0.00  0.00    -0.341 OA
ATOM      6  C   UNL     1       2.781  -3.788  27.261  0.00  0.00    +0.283 C 
ENDROOT
BRANCH   3   7
ATOM      7  O   UNL     1       0.832  -5.496  23.950  0.00  0.00    -0.386 OA
ATOM      8  H   UNL     1       0.924  -4.882  23.206  0.00  0.00    +0.210 HD
ENDBRANCH   3   7
BRANCH   2   9
ATOM      9  O   UNL     1       3.221  -3.988  24.362  0.00  0.00    -0.386 OA
ATOM     10  H   UNL     1       3.192  -3.858  23.391  0.00  0.00    +0.210 HD
ENDBRANCH   2   9
BRANCH   6  11
ATOM     11  O   UNL     1       4.118  -4.174  26.924  0.00  0.00    -0.337 OA
BRANCH  11  12
ATOM     12  C   UNL     1       5.209  -3.646  27.731  0.00  0.00    +0.221 C 
ATOM     13  C   UNL     1       6.234  -2.944  26.784  0.00  0.00    +0.340 C 
ATOM     14  O   UNL     1       6.692  -3.923  25.835  0.00  0.00    -0.331 OA
ATOM     15  C   UNL     1       7.325  -5.104  26.387  0.00  0.00    +0.179 C 
ATOM     16  C   UNL     1       6.514  -5.768  27.519  0.00  0.00    +0.177 C 
ATOM     17  C   UNL     1       5.980  -4.727  28.507  0.00  0.00    +0.180 C 
BRANCH  17  18
ATOM     18  O   UNL     1       5.173  -5.391  29.498  0.00  0.00    -0.386 OA
ATOM     19  H   UNL     1       4.512  -4.758  29.837  0.00  0.00    +0.210 HD
ENDBRANCH  17  18
BRANCH  16  20
ATOM     20  O   UNL     1       7.254  -6.776  28.221  0.00  0.00    -0.386 OA
ATOM     21  H   UNL     1       8.123  -6.816  27.774  0.00  0.00    +0.210 HD
ENDBRANCH  16  20
BRANCH  13  22
ATOM     22  O   UNL     1       5.562  -1.807  26.139  0.00  0.00    -0.453 OA
BRANCH  22  23
ATOM     23  C   UNL     1       5.955  -0.484  26.414  0.00  0.00    +0.214 A 
ATOM     24  C   UNL     1       5.405   0.214  27.630  0.00  0.00    +0.238 A 
ATOM     25  O   UNL     1       4.554  -0.300  28.346  0.00  0.00    -0.283 OA
ATOM     26  C   UNL     1       5.898   1.556  27.959  0.00  0.00    +0.109 A 
ATOM     27  C   UNL     1       6.732   2.178  27.045  0.00  0.00    +0.147 A 
ATOM     28  C   UNL     1       7.174   3.486  27.260  0.00  0.00    +0.092 A 
ATOM     29  C   UNL     1       6.782   4.155  28.414  0.00  0.00    +0.124 A 
ATOM     30  C   UNL     1       5.973   3.537  29.357  0.00  0.00    +0.091 A 
ATOM     31  O   UNL     1       7.166   1.566  25.908  0.00  0.00    -0.451 OA
ATOM     32  C   UNL     1       5.532   2.235  29.130  0.00  0.00    +0.135 A 
ATOM     33  C   UNL     1       6.859   0.228  25.661  0.00  0.00    +0.181 A 
BRANCH  33  34
ATOM     34  C   UNL     1       7.694  -0.251  24.491  0.00  0.00    +0.025 A 
ATOM     35  C   UNL     1       7.789   0.444  23.249  0.00  0.00    +0.015 A 
ATOM     36  C   UNL     1       8.660   0.037  22.209  0.00  0.00    +0.050 A 
ATOM     37  C   UNL     1       9.468  -1.060  22.408  0.00  0.00    +0.158 A 
ATOM     38  C   UNL     1       9.399  -1.735  23.609  0.00  0.00    +0.159 A 
ATOM     39  C   UNL     1       8.527  -1.351  24.622  0.00  0.00    +0.060 A 
BRANCH  38  40
ATOM     40  O   UNL     1      10.244  -2.786  23.767  0.00  0.00    -0.503 OA
ATOM     41  H   UNL     1      10.836  -2.791  22.982  0.00  0.00    +0.292 HD
ENDBRANCH  38  40
BRANCH  37  42
ATOM     42  O   UNL     1      10.344  -1.496  21.456  0.00  0.00    -0.503 OA
ATOM     43  H   UNL     1       9.788  -2.062  20.868  0.00  0.00    +0.292 HD
ENDBRANCH  37  42
ENDBRANCH  33  34
BRANCH  32  44
ATOM     44  O   UNL     1       4.748   1.640  30.076  0.00  0.00    -0.506 OA
ATOM     45  H   UNL     1       3.812   1.718  29.834  0.00  0.00    +0.292 HD
ENDBRANCH  32  44
BRANCH  29  46
ATOM     46  O   UNL     1       7.170   5.437  28.667  0.00  0.00    -0.507 OA
ATOM     47  H   UNL     1       7.089   5.961  27.853  0.00  0.00    +0.292 HD
ENDBRANCH  29  46
ENDBRANCH  22  23
ENDBRANCH  13  22
BRANCH  15  48
ATOM     48  C   UNL     1       8.813  -4.904  26.728  0.00  0.00    +0.190 C 
BRANCH  48  49
ATOM     49  O   UNL     1       9.683  -5.606  25.843  0.00  0.00    -0.392 OA
ATOM     50  H   UNL     1      10.581  -5.456  26.194  0.00  0.00    +0.210 HD
ENDBRANCH  48  49
ENDBRANCH  15  48
ENDBRANCH  11  12
ENDBRANCH   6  11
BRANCH   4  51
ATOM     51  C   UNL     1       2.749  -6.679  25.890  0.00  0.00    +0.190 C 
BRANCH  51  52
ATOM     52  O   UNL     1       2.437  -7.977  26.406  0.00  0.00    -0.392 OA
ATOM     53  H   UNL     1       2.693  -7.952  27.348  0.00  0.00    +0.210 HD
ENDBRANCH  51  52
ENDBRANCH   4  51
BRANCH   1  54
ATOM     54  O   UNL     1       0.960  -2.303  26.750  0.00  0.00    -0.338 OA
BRANCH  54  57
ATOM     55  C   UNL     1       1.752   1.235  26.739  0.00  0.00    +0.190 C 
ATOM     56  O   UNL     1       1.944  -0.175  26.552  0.00  0.00    -0.339 OA
ATOM     57  C   UNL     1       0.988  -0.972  27.236  0.00  0.00    +0.282 C 
ATOM     58  C   UNL     1       1.210  -0.827  28.751  0.00  0.00    +0.201 C 
ATOM     59  C   UNL     1       0.847   0.631  29.090  0.00  0.00    +0.179 C 
ATOM     60  C   UNL     1       1.676   1.618  28.236  0.00  0.00    +0.178 C 
BRANCH  58  61
ATOM     61  O   UNL     1       0.443  -1.766  29.510  0.00  0.00    -0.384 OA
ATOM     62  H   UNL     1      -0.222  -1.269  30.020  0.00  0.00    +0.210 HD
ENDBRANCH  58  61
BRANCH  59  63
ATOM     63  O   UNL     1       1.041   0.906  30.485  0.00  0.00    -0.386 OA
ATOM     64  H   UNL     1       1.936   1.260  30.619  0.00  0.00    +0.210 HD
ENDBRANCH  59  63
BRANCH  60  65
ATOM     65  O   UNL     1       1.146   2.936  28.384  0.00  0.00    -0.386 OA
ATOM     66  H   UNL     1       0.652   2.971  29.224  0.00  0.00    +0.210 HD
ENDBRANCH  60  65
BRANCH  55  67
ATOM     67  C   UNL     1       0.572   1.705  25.865  0.00  0.00    +0.266 C 
BRANCH  67  68
ATOM     68  O   UNL     1       1.067   2.516  24.773  0.00  0.00    -0.459 OA
BRANCH  68  69
ATOM     69  C   UNL     1       1.307   3.807  25.104  0.00  0.00    +0.332 C 
ATOM     70  O   UNL     1       0.751   4.425  26.002  0.00  0.00    -0.246 OA
BRANCH  69  72
ATOM     71  C   UNL     1       3.632   4.304  24.618  0.00  0.00    +0.015 C 
ATOM     72  C   UNL     1       2.348   4.361  24.224  0.00  0.00    +0.092 C 
BRANCH  71  75
ATOM     73  C   UNL     1       7.052   4.510  22.997  0.00  0.00    +0.162 A 
ATOM     74  C   UNL     1       5.973   4.039  23.748  0.00  0.00    +0.057 A 
ATOM     75  C   UNL     1       4.779   4.770  23.824  0.00  0.00    -0.021 A 
ATOM     76  C   UNL     1       4.662   5.960  23.090  0.00  0.00    +0.012 A 
ATOM     77  C   UNL     1       5.740   6.445  22.347  0.00  0.00    +0.050 A 
ATOM     78  C   UNL     1       6.927   5.726  22.321  0.00  0.00    +0.158 A 
BRANCH  78  79
ATOM     79  O   UNL     1       7.973   6.230  21.600  0.00  0.00    -0.503 OA
ATOM     80  H   UNL     1       8.732   6.231  22.215  0.00  0.00    +0.292 HD
ENDBRANCH  78  79
BRANCH  73  82
ATOM     81  C   UNL     1       9.056   3.870  24.068  0.00  0.00    +0.277 C 
ATOM     82  O   UNL     1       8.265   3.879  22.882  0.00  0.00    -0.491 OA
ENDBRANCH  73  82
ENDBRANCH  71  75
ENDBRANCH  69  72
ENDBRANCH  68  69
ENDBRANCH  67  68
ENDBRANCH  55  67
ENDBRANCH  54  57
ENDBRANCH   1  54
TORSDOF 29
ENDMDL
MODEL 4
REMARK VINA RESULT:      -4.9      1.642      2.522
REMARK  Name = 
REMARK  30 active torsions:
REMARK  status: ('A' for Active; 'I' for Inactive)
REMARK    1  A    between atoms: C_1  and  O_2
REMARK    2  A    between atoms: O_2  and  C_3
REMARK    3  A    between atoms: C_4  and  O_76
REMARK    4  A    between atoms: C_7  and  C_9
REMARK    5  A    between atoms: C_10  and  C_11
REMARK    6  A    between atoms: C_11  and  O_13
REMARK    7  A    between atoms: O_13  and  C_14
REMARK    8  A    between atoms: C_14  and  C_15
REMARK    9  A    between atoms: C_16  and  O_75
REMARK   10  A    between atoms: C_18  and  O_74
REMARK   11  A    between atoms: C_19  and  O_73
REMARK   12  A    between atoms: C_21  and  O_24
REMARK   13  A    between atoms: O_24  and  C_25
REMARK   14  A    between atoms: C_26  and  O_37
REMARK   15  A    between atoms: C_29  and  C_35
REMARK   16  A    between atoms: C_30  and  O_34
REMARK   17  A    between atoms: C_32  and  O_33
REMARK   18  A    between atoms: C_35  and  O_36
REMARK   19  A    between atoms: O_37  and  C_38
REMARK   20  A    between atoms: C_39  and  O_72
REMARK   21  A    between atoms: C_41  and  O_71
REMARK   22  A    between atoms: C_43  and  C_69
REMARK   23  A    between atoms: C_45  and  O_47
REMARK   24  A    between atoms: O_47  and  C_48
REMARK   25  A    between atoms: C_49  and  C_61
REMARK   26  A    between atoms: C_53  and  O_60
REMARK   27  A    between atoms: C_55  and  O_59
REMARK   28  A    between atoms: C_63  and  O_68
REMARK   29  A    between atoms: C_64  and  O_67
REMARK   30  A    between atoms: C_69  and  O_70
REMARK                            x       y       z     vdW  Elec       q    Type
REMARK                         _______ _______ _______ _____ _____    ______ ____
ROOT
ATOM      1  C   UNL     1       5.769   3.494  25.948  0.00  0.00    +0.208 C 
ATOM      2  C   UNL     1       6.909   4.455  26.273  0.00  0.00    +0.179 C 
ATOM      3  C   UNL     1       7.011   5.517  25.179  0.00  0.00    +0.177 C 
ATOM      4  C   UNL     1       7.190   4.893  23.786  0.00  0.00    +0.178 C 
ATOM      5  O   UNL     1       6.219   3.867  23.534  0.00  0.00    -0.341 OA
ATOM      6  C   UNL     1       6.047   2.866  24.558  0.00  0.00    +0.283 C 
ENDROOT
BRANCH   3   7
ATOM      7  O   UNL     1       8.042   6.447  25.494  0.00  0.00    -0.386 OA
ATOM      8  H   UNL     1       7.672   7.342  25.503  0.00  0.00    +0.210 HD
ENDBRANCH   3   7
BRANCH   2   9
ATOM      9  O   UNL     1       8.136   3.750  26.426  0.00  0.00    -0.386 OA
ATOM     10  H   UNL     1       8.858   4.288  26.038  0.00  0.00    +0.210 HD
ENDBRANCH   2   9
BRANCH   6  11
ATOM     11  O   UNL     1       7.183   1.996  24.578  0.00  0.00    -0.337 OA
BRANCH  11  12
ATOM     12  C   UNL     1       7.047   0.676  23.978  0.00  0.00    +0.221 C 
ATOM     13  C   UNL     1       8.134  -0.263  24.592  0.00  0.00    +0.340 C 
ATOM     14  O   UNL     1       9.420   0.321  24.322  0.00  0.00    -0.331 OA
ATOM     15  C   UNL     1       9.747   0.534  22.926  0.00  0.00    +0.179 C 
ATOM     16  C   UNL     1       8.634   1.252  22.133  0.00  0.00    +0.177 C 
ATOM     17  C   UNL     1       7.255   0.669  22.453  0.00  0.00    +0.180 C 
BRANCH  17  18
ATOM     18  O   UNL     1       6.251   1.420  21.745  0.00  0.00    -0.386 OA
ATOM     19  H   UNL     1       6.439   2.372  21.857  0.00  0.00    +0.210 HD
ENDBRANCH  17  18
BRANCH  16  20
ATOM     20  O   UNL     1       8.856   1.236  20.717  0.00  0.00    -0.386 OA
ATOM     21  H   UNL     1       8.581   2.120  20.402  0.00  0.00    +0.210 HD
ENDBRANCH  16  20
BRANCH  13  22
ATOM     22  O   UNL     1       7.869  -0.396  26.031  0.00  0.00    -0.453 OA
BRANCH  22  23
ATOM     23  C   UNL     1       7.082  -1.453  26.527  0.00  0.00    +0.214 A 
ATOM     24  C   UNL     1       7.279  -2.842  25.979  0.00  0.00    +0.238 A 
ATOM     25  O   UNL     1       8.041  -3.073  25.049  0.00  0.00    -0.283 OA
ATOM     26  C   UNL     1       6.522  -3.950  26.574  0.00  0.00    +0.109 A 
ATOM     27  C   UNL     1       5.548  -3.638  27.507  0.00  0.00    +0.147 A 
ATOM     28  C   UNL     1       4.739  -4.637  28.054  0.00  0.00    +0.092 A 
ATOM     29  C   UNL     1       4.934  -5.958  27.664  0.00  0.00    +0.124 A 
ATOM     30  C   UNL     1       5.927  -6.295  26.755  0.00  0.00    +0.091 A 
ATOM     31  O   UNL     1       5.325  -2.366  27.943  0.00  0.00    -0.451 OA
ATOM     32  C   UNL     1       6.723  -5.290  26.211  0.00  0.00    +0.135 A 
ATOM     33  C   UNL     1       6.150  -1.320  27.530  0.00  0.00    +0.181 A 
BRANCH  33  34
ATOM     34  C   UNL     1       5.846  -0.102  28.377  0.00  0.00    +0.025 A 
ATOM     35  C   UNL     1       6.680   1.053  28.433  0.00  0.00    +0.015 A 
ATOM     36  C   UNL     1       6.322   2.223  29.146  0.00  0.00    +0.050 A 
ATOM     37  C   UNL     1       5.107   2.262  29.795  0.00  0.00    +0.158 A 
ATOM     38  C   UNL     1       4.281   1.159  29.738  0.00  0.00    +0.159 A 
ATOM     39  C   UNL     1       4.642   0.000  29.059  0.00  0.00    +0.060 A 
BRANCH  38  40
ATOM     40  O   UNL     1       3.080   1.264  30.362  0.00  0.00    -0.503 OA
ATOM     41  H   UNL     1       2.506   0.560  29.987  0.00  0.00    +0.292 HD
ENDBRANCH  38  40
BRANCH  37  42
ATOM     42  O   UNL     1       4.689   3.364  30.485  0.00  0.00    -0.503 OA
ATOM     43  H   UNL     1       5.398   4.029  30.314  0.00  0.00    +0.292 HD
ENDBRANCH  37  42
ENDBRANCH  33  34
BRANCH  32  44
ATOM     44  O   UNL     1       7.703  -5.642  25.328  0.00  0.00    -0.506 OA
ATOM     45  H   UNL     1       8.037  -4.858  24.867  0.00  0.00    +0.292 HD
ENDBRANCH  32  44
BRANCH  29  46
ATOM     46  O   UNL     1       4.164  -6.971  28.153  0.00  0.00    -0.507 OA
ATOM     47  H   UNL     1       4.646  -7.810  28.060  0.00  0.00    +0.292 HD
ENDBRANCH  29  46
ENDBRANCH  22  23
ENDBRANCH  13  22
BRANCH  15  48
ATOM     48  C   UNL     1      10.295  -0.721  22.222  0.00  0.00    +0.190 C 
BRANCH  48  49
ATOM     49  O   UNL     1       9.321  -1.368  21.405  0.00  0.00    -0.392 OA
ATOM     50  H   UNL     1       9.067  -0.705  20.736  0.00  0.00    +0.210 HD
ENDBRANCH  48  49
ENDBRANCH  15  48
ENDBRANCH  11  12
ENDBRANCH   6  11
BRANCH   4  51
ATOM     51  C   UNL     1       8.600   4.410  23.401  0.00  0.00    +0.190 C 
BRANCH  51  52
ATOM     52  O   UNL     1       9.353   5.526  22.916  0.00  0.00    -0.392 OA
ATOM     53  H   UNL     1       9.949   5.162  22.233  0.00  0.00    +0.210 HD
ENDBRANCH  51  52
ENDBRANCH   4  51
BRANCH   1  54
ATOM     54  O   UNL     1       4.501   4.135  25.894  0.00  0.00    -0.338 OA
BRANCH  54  57
ATOM     55  C   UNL     1       1.627   2.045  26.615  0.00  0.00    +0.190 C 
ATOM     56  O   UNL     1       2.476   2.935  25.876  0.00  0.00    -0.339 OA
ATOM     57  C   UNL     1       3.462   3.571  26.677  0.00  0.00    +0.282 C 
ATOM     58  C   UNL     1       2.767   4.540  27.648  0.00  0.00    +0.201 C 
ATOM     59  C   UNL     1       1.960   3.656  28.616  0.00  0.00    +0.179 C 
ATOM     60  C   UNL     1       0.987   2.737  27.843  0.00  0.00    +0.178 C 
BRANCH  58  61
ATOM     61  O   UNL     1       3.693   5.388  28.333  0.00  0.00    -0.384 OA
ATOM     62  H   UNL     1       4.027   4.902  29.110  0.00  0.00    +0.210 HD
ENDBRANCH  58  61
BRANCH  59  63
ATOM     63  O   UNL     1       1.234   4.450  29.566  0.00  0.00    -0.386 OA
ATOM     64  H   UNL     1       1.159   5.359  29.232  0.00  0.00    +0.210 HD
ENDBRANCH  59  63
BRANCH  60  65
ATOM     65  O   UNL     1       0.443   1.762  28.733  0.00  0.00    -0.386 OA
ATOM     66  H   UNL     1      -0.270   1.290  28.266  0.00  0.00    +0.210 HD
ENDBRANCH  60  65
BRANCH  55  67
ATOM     67  C   UNL     1       2.392   0.738  26.904  0.00  0.00    +0.266 C 
BRANCH  67  68
ATOM     68  O   UNL     1       1.518  -0.396  26.694  0.00  0.00    -0.459 OA
BRANCH  68  69
ATOM     69  C   UNL     1       1.493  -1.276  27.724  0.00  0.00    +0.332 C 
ATOM     70  O   UNL     1       1.355  -0.984  28.904  0.00  0.00    -0.246 OA
BRANCH  69  72
ATOM     71  C   UNL     1       2.141  -2.823  25.972  0.00  0.00    +0.015 C 
ATOM     72  C   UNL     1       1.652  -2.646  27.211  0.00  0.00    +0.092 C 
BRANCH  71  75
ATOM     73  C   UNL     1       3.407  -5.507  23.614  0.00  0.00    +0.162 A 
ATOM     74  C   UNL     1       3.187  -4.256  24.195  0.00  0.00    +0.057 A 
ATOM     75  C   UNL     1       2.399  -4.130  25.347  0.00  0.00    -0.021 A 
ATOM     76  C   UNL     1       1.875  -5.287  25.944  0.00  0.00    +0.012 A 
ATOM     77  C   UNL     1       2.079  -6.540  25.362  0.00  0.00    +0.050 A 
ATOM     78  C   UNL     1       2.827  -6.636  24.197  0.00  0.00    +0.158 A 
BRANCH  78  79
ATOM     79  O   UNL     1       2.998  -7.872  23.639  0.00  0.00    -0.503 OA
ATOM     80  H   UNL     1       3.276  -8.450  24.375  0.00  0.00    +0.292 HD
ENDBRANCH  78  79
BRANCH  73  82
ATOM     81  C   UNL     1       5.552  -5.588  22.629  0.00  0.00    +0.277 C 
ATOM     82  O   UNL     1       4.141  -5.728  22.476  0.00  0.00    -0.491 OA
ENDBRANCH  73  82
ENDBRANCH  71  75
ENDBRANCH  69  72
ENDBRANCH  68  69
ENDBRANCH  67  68
ENDBRANCH  55  67
ENDBRANCH  54  57
ENDBRANCH   1  54
TORSDOF 29
ENDMDL
MODEL 5
REMARK VINA RESULT:      -4.8      2.082      8.596
REMARK  Name = 
REMARK  30 active torsions:
REMARK  status: ('A' for Active; 'I' for Inactive)
REMARK    1  A    between atoms: C_1  and  O_2
REMARK    2  A    between atoms: O_2  and  C_3
REMARK    3  A    between atoms: C_4  and  O_76
REMARK    4  A    between atoms: C_7  and  C_9
REMARK    5  A    between atoms: C_10  and  C_11
REMARK    6  A    between atoms: C_11  and  O_13
REMARK    7  A    between atoms: O_13  and  C_14
REMARK    8  A    between atoms: C_14  and  C_15
REMARK    9  A    between atoms: C_16  and  O_75
REMARK   10  A    between atoms: C_18  and  O_74
REMARK   11  A    between atoms: C_19  and  O_73
REMARK   12  A    between atoms: C_21  and  O_24
REMARK   13  A    between atoms: O_24  and  C_25
REMARK   14  A    between atoms: C_26  and  O_37
REMARK   15  A    between atoms: C_29  and  C_35
REMARK   16  A    between atoms: C_30  and  O_34
REMARK   17  A    between atoms: C_32  and  O_33
REMARK   18  A    between atoms: C_35  and  O_36
REMARK   19  A    between atoms: O_37  and  C_38
REMARK   20  A    between atoms: C_39  and  O_72
REMARK   21  A    between atoms: C_41  and  O_71
REMARK   22  A    between atoms: C_43  and  C_69
REMARK   23  A    between atoms: C_45  and  O_47
REMARK   24  A    between atoms: O_47  and  C_48
REMARK   25  A    between atoms: C_49  and  C_61
REMARK   26  A    between atoms: C_53  and  O_60
REMARK   27  A    between atoms: C_55  and  O_59
REMARK   28  A    between atoms: C_63  and  O_68
REMARK   29  A    between atoms: C_64  and  O_67
REMARK   30  A    between atoms: C_69  and  O_70
REMARK                            x       y       z     vdW  Elec       q    Type
REMARK                         _______ _______ _______ _____ _____    ______ ____
ROOT
ATOM      1  C   UNL     1       2.219  -2.300  26.546  0.00  0.00    +0.208 C 
ATOM      2  C   UNL     1       1.878  -2.980  25.222  0.00  0.00    +0.179 C 
ATOM      3  C   UNL     1       0.803  -4.042  25.454  0.00  0.00    +0.177 C 
ATOM      4  C   UNL     1       1.228  -5.069  26.514  0.00  0.00    +0.178 C 
ATOM      5  O   UNL     1       1.708  -4.434  27.708  0.00  0.00    -0.341 OA
ATOM      6  C   UNL     1       2.689  -3.390  27.543  0.00  0.00    +0.283 C 
ENDROOT
BRANCH   3   7
ATOM      7  O   UNL     1       0.443  -4.652  24.219  0.00  0.00    -0.386 OA
ATOM      8  H   UNL     1       0.888  -5.510  24.146  0.00  0.00    +0.210 HD
ENDBRANCH   3   7
BRANCH   2   9
ATOM      9  O   UNL     1       3.043  -3.544  24.629  0.00  0.00    -0.386 OA
ATOM     10  H   UNL     1       2.883  -4.498  24.469  0.00  0.00    +0.210 HD
ENDBRANCH   2   9
BRANCH   6  11
ATOM     11  O   UNL     1       3.944  -3.962  27.162  0.00  0.00    -0.337 OA
BRANCH  11  12
ATOM     12  C   UNL     1       5.151  -3.454  27.798  0.00  0.00    +0.221 C 
ATOM     13  C   UNL     1       6.205  -3.143  26.687  0.00  0.00    +0.340 C 
ATOM     14  O   UNL     1       6.450  -4.362  25.965  0.00  0.00    -0.331 OA
ATOM     15  C   UNL     1       6.937  -5.483  26.744  0.00  0.00    +0.179 C 
ATOM     16  C   UNL     1       6.111  -5.752  28.020  0.00  0.00    +0.177 C 
ATOM     17  C   UNL     1       5.803  -4.453  28.770  0.00  0.00    +0.180 C 
BRANCH  17  18
ATOM     18  O   UNL     1       4.973  -4.753  29.908  0.00  0.00    -0.386 OA
ATOM     19  H   UNL     1       5.256  -5.609  30.283  0.00  0.00    +0.210 HD
ENDBRANCH  17  18
BRANCH  16  20
ATOM     20  O   UNL     1       6.738  -6.691  28.904  0.00  0.00    -0.386 OA
ATOM     21  H   UNL     1       6.664  -6.296  29.796  0.00  0.00    +0.210 HD
ENDBRANCH  16  20
BRANCH  13  22
ATOM     22  O   UNL     1       5.669  -2.078  25.828  0.00  0.00    -0.453 OA
BRANCH  22  23
ATOM     23  C   UNL     1       6.501  -1.386  24.930  0.00  0.00    +0.214 A 
ATOM     24  C   UNL     1       6.994  -0.008  25.288  0.00  0.00    +0.238 A 
ATOM     25  O   UNL     1       6.623   0.572  26.301  0.00  0.00    -0.283 OA
ATOM     26  C   UNL     1       7.939   0.662  24.388  0.00  0.00    +0.109 A 
ATOM     27  C   UNL     1       8.211   0.056  23.172  0.00  0.00    +0.147 A 
ATOM     28  C   UNL     1       9.041   0.678  22.237  0.00  0.00    +0.092 A 
ATOM     29  C   UNL     1       9.609   1.910  22.544  0.00  0.00    +0.124 A 
ATOM     30  C   UNL     1       9.375   2.517  23.770  0.00  0.00    +0.091 A 
ATOM     31  O   UNL     1       7.700  -1.158  22.824  0.00  0.00    -0.451 OA
ATOM     32  C   UNL     1       8.540   1.891  24.694  0.00  0.00    +0.135 A 
ATOM     33  C   UNL     1       6.946  -1.899  23.733  0.00  0.00    +0.181 A 
BRANCH  33  34
ATOM     34  C   UNL     1       6.758  -3.296  23.180  0.00  0.00    +0.025 A 
ATOM     35  C   UNL     1       7.826  -4.219  22.978  0.00  0.00    +0.015 A 
ATOM     36  C   UNL     1       7.614  -5.557  22.564  0.00  0.00    +0.050 A 
ATOM     37  C   UNL     1       6.324  -5.997  22.368  0.00  0.00    +0.158 A 
ATOM     38  C   UNL     1       5.278  -5.121  22.572  0.00  0.00    +0.159 A 
ATOM     39  C   UNL     1       5.485  -3.801  22.956  0.00  0.00    +0.060 A 
BRANCH  38  40
ATOM     40  O   UNL     1       4.025  -5.617  22.402  0.00  0.00    -0.503 OA
ATOM     41  H   UNL     1       3.929  -5.813  21.444  0.00  0.00    +0.292 HD
ENDBRANCH  38  40
BRANCH  37  42
ATOM     42  O   UNL     1       6.045  -7.278  21.986  0.00  0.00    -0.503 OA
ATOM     43  H   UNL     1       5.780  -7.188  21.040  0.00  0.00    +0.292 HD
ENDBRANCH  37  42
ENDBRANCH  33  34
BRANCH  32  44
ATOM     44  O   UNL     1       8.333   2.498  25.899  0.00  0.00    -0.506 OA
ATOM     45  H   UNL     1       7.804   1.926  26.476  0.00  0.00    +0.292 HD
ENDBRANCH  32  44
BRANCH  29  46
ATOM     46  O   UNL     1      10.414   2.569  21.664  0.00  0.00    -0.507 OA
ATOM     47  H   UNL     1      11.283   2.134  21.641  0.00  0.00    +0.292 HD
ENDBRANCH  29  46
ENDBRANCH  22  23
ENDBRANCH  13  22
BRANCH  15  48
ATOM     48  C   UNL     1       8.456  -5.453  26.986  0.00  0.00    +0.190 C 
BRANCH  48  49
ATOM     49  O   UNL     1       9.209  -5.802  25.826  0.00  0.00    -0.392 OA
ATOM     50  H   UNL     1      10.082  -6.079  26.161  0.00  0.00    +0.210 HD
ENDBRANCH  48  49
ENDBRANCH  15  48
ENDBRANCH  11  12
ENDBRANCH   6  11
BRANCH   4  51
ATOM     51  C   UNL     1       2.189  -6.187  26.072  0.00  0.00    +0.190 C 
BRANCH  51  52
ATOM     52  O   UNL     1       2.129  -6.310  24.647  0.00  0.00    -0.392 OA
ATOM     53  H   UNL     1       1.852  -5.433  24.320  0.00  0.00    +0.210 HD
ENDBRANCH  51  52
ENDBRANCH   4  51
BRANCH   1  54
ATOM     54  O   UNL     1       1.109  -1.625  27.125  0.00  0.00    -0.338 OA
BRANCH  54  57
ATOM     55  C   UNL     1       2.163   1.814  26.666  0.00  0.00    +0.190 C 
ATOM     56  O   UNL     1       2.224   0.381  26.606  0.00  0.00    -0.339 OA
ATOM     57  C   UNL     1       1.294  -0.261  27.466  0.00  0.00    +0.282 C 
ATOM     58  C   UNL     1       1.697   0.005  28.926  0.00  0.00    +0.201 C 
ATOM     59  C   UNL     1       1.488   1.514  29.149  0.00  0.00    +0.179 C 
ATOM     60  C   UNL     1       2.287   2.341  28.116  0.00  0.00    +0.178 C 
BRANCH  58  61
ATOM     61  O   UNL     1       0.952  -0.788  29.855  0.00  0.00    -0.384 OA
ATOM     62  H   UNL     1       0.171  -0.275  30.129  0.00  0.00    +0.210 HD
ENDBRANCH  58  61
BRANCH  59  63
ATOM     63  O   UNL     1       1.859   1.901  30.480  0.00  0.00    -0.386 OA
ATOM     64  H   UNL     1       1.591   1.204  31.103  0.00  0.00    +0.210 HD
ENDBRANCH  59  63
BRANCH  60  65
ATOM     65  O   UNL     1       1.880   3.708  28.183  0.00  0.00    -0.386 OA
ATOM     66  H   UNL     1       1.512   3.957  27.316  0.00  0.00    +0.210 HD
ENDBRANCH  60  65
BRANCH  55  67
ATOM     67  C   UNL     1       0.931   2.301  25.878  0.00  0.00    +0.266 C 
BRANCH  67  68
ATOM     68  O   UNL     1       1.203   2.236  24.458  0.00  0.00    -0.459 OA
BRANCH  68  69
ATOM     69  C   UNL     1       1.474   3.435  23.890  0.00  0.00    +0.332 C 
ATOM     70  O   UNL     1       0.647   4.290  23.605  0.00  0.00    -0.246 OA
BRANCH  69  72
ATOM     71  C   UNL     1       3.511   4.754  23.873  0.00  0.00    +0.015 C 
ATOM     72  C   UNL     1       2.924   3.563  23.667  0.00  0.00    +0.092 C 
BRANCH  71  75
ATOM     73  C   UNL     1       7.142   5.460  24.702  0.00  0.00    +0.162 A 
ATOM     74  C   UNL     1       5.778   5.198  24.857  0.00  0.00    +0.057 A 
ATOM     75  C   UNL     1       4.952   5.018  23.739  0.00  0.00    -0.021 A 
ATOM     76  C   UNL     1       5.523   5.050  22.457  0.00  0.00    +0.012 A 
ATOM     77  C   UNL     1       6.883   5.324  22.293  0.00  0.00    +0.050 A 
ATOM     78  C   UNL     1       7.673   5.542  23.413  0.00  0.00    +0.158 A 
BRANCH  78  79
ATOM     79  O   UNL     1       8.997   5.825  23.224  0.00  0.00    -0.503 OA
ATOM     80  H   UNL     1       9.454   4.963  23.272  0.00  0.00    +0.292 HD
ENDBRANCH  78  79
BRANCH  73  82
ATOM     81  C   UNL     1       7.457   5.598  27.038  0.00  0.00    +0.277 C 
ATOM     82  O   UNL     1       8.023   5.675  25.731  0.00  0.00    -0.491 OA
ENDBRANCH  73  82
ENDBRANCH  71  75
ENDBRANCH  69  72
ENDBRANCH  68  69
ENDBRANCH  67  68
ENDBRANCH  55  67
ENDBRANCH  54  57
ENDBRANCH   1  54
TORSDOF 29
ENDMDL
MODEL 6
REMARK VINA RESULT:      -4.2      2.047      8.025
REMARK  Name = 
REMARK  30 active torsions:
REMARK  status: ('A' for Active; 'I' for Inactive)
REMARK    1  A    between atoms: C_1  and  O_2
REMARK    2  A    between atoms: O_2  and  C_3
REMARK    3  A    between atoms: C_4  and  O_76
REMARK    4  A    between atoms: C_7  and  C_9
REMARK    5  A    between atoms: C_10  and  C_11
REMARK    6  A    between atoms: C_11  and  O_13
REMARK    7  A    between atoms: O_13  and  C_14
REMARK    8  A    between atoms: C_14  and  C_15
REMARK    9  A    between atoms: C_16  and  O_75
REMARK   10  A    between atoms: C_18  and  O_74
REMARK   11  A    between atoms: C_19  and  O_73
REMARK   12  A    between atoms: C_21  and  O_24
REMARK   13  A    between atoms: O_24  and  C_25
REMARK   14  A    between atoms: C_26  and  O_37
REMARK   15  A    between atoms: C_29  and  C_35
REMARK   16  A    between atoms: C_30  and  O_34
REMARK   17  A    between atoms: C_32  and  O_33
REMARK   18  A    between atoms: C_35  and  O_36
REMARK   19  A    between atoms: O_37  and  C_38
REMARK   20  A    between atoms: C_39  and  O_72
REMARK   21  A    between atoms: C_41  and  O_71
REMARK   22  A    between atoms: C_43  and  C_69
REMARK   23  A    between atoms: C_45  and  O_47
REMARK   24  A    between atoms: O_47  and  C_48
REMARK   25  A    between atoms: C_49  and  C_61
REMARK   26  A    between atoms: C_53  and  O_60
REMARK   27  A    between atoms: C_55  and  O_59
REMARK   28  A    between atoms: C_63  and  O_68
REMARK   29  A    between atoms: C_64  and  O_67
REMARK   30  A    between atoms: C_69  and  O_70
REMARK                            x       y       z     vdW  Elec       q    Type
REMARK                         _______ _______ _______ _____ _____    ______ ____
ROOT
ATOM      1  C   UNL     1       3.804  -1.871  28.330  0.00  0.00    +0.208 C 
ATOM      2  C   UNL     1       2.791  -2.079  29.454  0.00  0.00    +0.179 C 
ATOM      3  C   UNL     1       1.392  -2.234  28.860  0.00  0.00    +0.177 C 
ATOM      4  C   UNL     1       1.005  -1.036  27.978  0.00  0.00    +0.178 C 
ATOM      5  O   UNL     1       2.030  -0.728  27.022  0.00  0.00    -0.341 OA
ATOM      6  C   UNL     1       3.378  -0.619  27.522  0.00  0.00    +0.283 C 
ENDROOT
BRANCH   3   7
ATOM      7  O   UNL     1       0.445  -2.475  29.895  0.00  0.00    -0.386 OA
ATOM      8  H   UNL     1      -0.396  -2.749  29.500  0.00  0.00    +0.210 HD
ENDBRANCH   3   7
BRANCH   2   9
ATOM      9  O   UNL     1       2.843  -1.005  30.386  0.00  0.00    -0.386 OA
ATOM     10  H   UNL     1       3.131  -1.356  31.254  0.00  0.00    +0.210 HD
ENDBRANCH   2   9
BRANCH   6  11
ATOM     11  O   UNL     1       3.515   0.585  28.283  0.00  0.00    -0.337 OA
BRANCH  11  12
ATOM     12  C   UNL     1       3.571   1.850  27.563  0.00  0.00    +0.221 C 
ATOM     13  C   UNL     1       4.910   1.905  26.759  0.00  0.00    +0.340 C 
ATOM     14  O   UNL     1       5.989   1.773  27.699  0.00  0.00    -0.331 OA
ATOM     15  C   UNL     1       6.054   2.772  28.747  0.00  0.00    +0.179 C 
ATOM     16  C   UNL     1       4.710   2.992  29.474  0.00  0.00    +0.177 C 
ATOM     17  C   UNL     1       3.547   3.084  28.483  0.00  0.00    +0.180 C 
BRANCH  17  18
ATOM     18  O   UNL     1       2.315   3.215  29.216  0.00  0.00    -0.386 OA
ATOM     19  H   UNL     1       1.622   3.533  28.605  0.00  0.00    +0.210 HD
ENDBRANCH  17  18
BRANCH  16  20
ATOM     20  O   UNL     1       4.718   4.143  30.329  0.00  0.00    -0.386 OA
ATOM     21  H   UNL     1       4.129   3.915  31.076  0.00  0.00    +0.210 HD
ENDBRANCH  16  20
BRANCH  13  22
ATOM     22  O   UNL     1       4.894   0.823  25.765  0.00  0.00    -0.453 OA
BRANCH  22  23
ATOM     23  C   UNL     1       6.014   0.575  24.949  0.00  0.00    +0.214 A 
ATOM     24  C   UNL     1       6.842  -0.660  25.183  0.00  0.00    +0.238 A 
ATOM     25  O   UNL     1       6.628  -1.419  26.121  0.00  0.00    -0.283 OA
ATOM     26  C   UNL     1       7.947  -0.956  24.264  0.00  0.00    +0.109 A 
ATOM     27  C   UNL     1       8.270   0.000  23.316  0.00  0.00    +0.147 A 
ATOM     28  C   UNL     1       9.360  -0.185  22.461  0.00  0.00    +0.092 A 
ATOM     29  C   UNL     1      10.110  -1.351  22.558  0.00  0.00    +0.124 A 
ATOM     30  C   UNL     1       9.781  -2.336  23.479  0.00  0.00    +0.091 A 
ATOM     31  O   UNL     1       7.560   1.153  23.160  0.00  0.00    -0.451 OA
ATOM     32  C   UNL     1       8.697  -2.139  24.332  0.00  0.00    +0.135 A 
ATOM     33  C   UNL     1       6.398   1.376  23.898  0.00  0.00    +0.181 A 
BRANCH  33  34
ATOM     34  C   UNL     1       5.684   2.581  23.322  0.00  0.00    +0.025 A 
ATOM     35  C   UNL     1       4.271   2.764  23.373  0.00  0.00    +0.015 A 
ATOM     36  C   UNL     1       3.635   3.948  22.927  0.00  0.00    +0.050 A 
ATOM     37  C   UNL     1       4.411   4.978  22.443  0.00  0.00    +0.158 A 
ATOM     38  C   UNL     1       5.781   4.823  22.400  0.00  0.00    +0.159 A 
ATOM     39  C   UNL     1       6.405   3.652  22.815  0.00  0.00    +0.060 A 
BRANCH  38  40
ATOM     40  O   UNL     1       6.500   5.883  21.950  0.00  0.00    -0.503 OA
ATOM     41  H   UNL     1       6.681   5.717  20.998  0.00  0.00    +0.292 HD
ENDBRANCH  38  40
BRANCH  37  42
ATOM     42  O   UNL     1       3.867   6.155  22.013  0.00  0.00    -0.503 OA
ATOM     43  H   UNL     1       3.430   5.913  21.161  0.00  0.00    +0.292 HD
ENDBRANCH  37  42
ENDBRANCH  33  34
BRANCH  32  44
ATOM     44  O   UNL     1       8.382  -3.125  25.222  0.00  0.00    -0.506 OA
ATOM     45  H   UNL     1       7.751  -2.794  25.879  0.00  0.00    +0.292 HD
ENDBRANCH  32  44
BRANCH  29  46
ATOM     46  O   UNL     1      11.192  -1.577  21.761  0.00  0.00    -0.507 OA
ATOM     47  H   UNL     1      11.652  -2.376  22.068  0.00  0.00    +0.292 HD
ENDBRANCH  29  46
ENDBRANCH  22  23
ENDBRANCH  13  22
BRANCH  15  48
ATOM     48  C   UNL     1       6.741   4.079  28.313  0.00  0.00    +0.190 C 
BRANCH  48  49
ATOM     49  O   UNL     1       7.388   4.750  29.392  0.00  0.00    -0.392 OA
ATOM     50  H   UNL     1       7.857   4.051  29.884  0.00  0.00    +0.210 HD
ENDBRANCH  48  49
ENDBRANCH  15  48
ENDBRANCH  11  12
ENDBRANCH   6  11
BRANCH   4  51
ATOM     51  C   UNL     1       0.526   0.241  28.689  0.00  0.00    +0.190 C 
BRANCH  51  52
ATOM     52  O   UNL     1       0.444   1.300  27.730  0.00  0.00    -0.392 OA
ATOM     53  H   UNL     1      -0.435   1.705  27.862  0.00  0.00    +0.210 HD
ENDBRANCH  51  52
ENDBRANCH   4  51
BRANCH   1  54
ATOM     54  O   UNL     1       3.870  -2.971  27.432  0.00  0.00    -0.338 OA
BRANCH  54  57
ATOM     55  C   UNL     1       5.089  -5.429  29.802  0.00  0.00    +0.190 C 
ATOM     56  O   UNL     1       4.728  -4.140  29.285  0.00  0.00    -0.339 OA
ATOM     57  C   UNL     1       4.576  -4.119  27.873  0.00  0.00    +0.282 C 
ATOM     58  C   UNL     1       5.951  -4.341  27.220  0.00  0.00    +0.201 C 
ATOM     59  C   UNL     1       6.351  -5.786  27.568  0.00  0.00    +0.179 C 
ATOM     60  C   UNL     1       6.340  -6.009  29.098  0.00  0.00    +0.178 C 
BRANCH  58  61
ATOM     61  O   UNL     1       5.931  -4.109  25.808  0.00  0.00    -0.384 OA
ATOM     62  H   UNL     1       5.117  -3.616  25.597  0.00  0.00    +0.210 HD
ENDBRANCH  58  61
BRANCH  59  63
ATOM     63  O   UNL     1       7.643  -6.113  27.034  0.00  0.00    -0.386 OA
ATOM     64  H   UNL     1       8.038  -6.824  27.567  0.00  0.00    +0.210 HD
ENDBRANCH  59  63
BRANCH  60  65
ATOM     65  O   UNL     1       6.464  -7.403  29.377  0.00  0.00    -0.386 OA
ATOM     66  H   UNL     1       6.656  -7.506  30.327  0.00  0.00    +0.210 HD
ENDBRANCH  60  65
BRANCH  55  67
ATOM     67  C   UNL     1       3.844  -6.337  29.813  0.00  0.00    +0.266 C 
BRANCH  67  68
ATOM     68  O   UNL     1       2.653  -5.529  29.970  0.00  0.00    -0.459 OA
BRANCH  68  69
ATOM     69  C   UNL     1       1.518  -6.121  29.525  0.00  0.00    +0.332 C 
ATOM     70  O   UNL     1       0.632  -6.580  30.233  0.00  0.00    -0.246 OA
BRANCH  69  72
ATOM     71  C   UNL     1       1.876  -7.243  27.404  0.00  0.00    +0.015 C 
ATOM     72  C   UNL     1       1.505  -6.127  28.053  0.00  0.00    +0.092 C 
BRANCH  71  75
ATOM     73  C   UNL     1       2.652  -6.820  23.718  0.00  0.00    +0.162 A 
ATOM     74  C   UNL     1       2.691  -6.650  25.104  0.00  0.00    +0.057 A 
ATOM     75  C   UNL     1       1.865  -7.411  25.943  0.00  0.00    -0.021 A 
ATOM     76  C   UNL     1       1.034  -8.389  25.375  0.00  0.00    +0.012 A 
ATOM     77  C   UNL     1       0.980  -8.558  23.989  0.00  0.00    +0.050 A 
ATOM     78  C   UNL     1       1.775  -7.762  23.176  0.00  0.00    +0.158 A 
BRANCH  78  79
ATOM     79  O   UNL     1       1.691  -7.935  21.822  0.00  0.00    -0.503 OA
ATOM     80  H   UNL     1       0.756  -7.763  21.598  0.00  0.00    +0.292 HD
ENDBRANCH  78  79
BRANCH  73  82
ATOM     81  C   UNL     1       3.724  -4.777  23.217  0.00  0.00    +0.277 C 
ATOM     82  O   UNL     1       3.402  -6.107  22.817  0.00  0.00    -0.491 OA
ENDBRANCH  73  82
ENDBRANCH  71  75
ENDBRANCH  69  72
ENDBRANCH  68  69
ENDBRANCH  67  68
ENDBRANCH  55  67
ENDBRANCH  54  57
ENDBRANCH   1  54
TORSDOF 29
ENDMDL
MODEL 7
REMARK VINA RESULT:      -4.1      2.202      7.265
REMARK  Name = 
REMARK  30 active torsions:
REMARK  status: ('A' for Active; 'I' for Inactive)
REMARK    1  A    between atoms: C_1  and  O_2
REMARK    2  A    between atoms: O_2  and  C_3
REMARK    3  A    between atoms: C_4  and  O_76
REMARK    4  A    between atoms: C_7  and  C_9
REMARK    5  A    between atoms: C_10  and  C_11
REMARK    6  A    between atoms: C_11  and  O_13
REMARK    7  A    between atoms: O_13  and  C_14
REMARK    8  A    between atoms: C_14  and  C_15
REMARK    9  A    between atoms: C_16  and  O_75
REMARK   10  A    between atoms: C_18  and  O_74
REMARK   11  A    between atoms: C_19  and  O_73
REMARK   12  A    between atoms: C_21  and  O_24
REMARK   13  A    between atoms: O_24  and  C_25
REMARK   14  A    between atoms: C_26  and  O_37
REMARK   15  A    between atoms: C_29  and  C_35
REMARK   16  A    between atoms: C_30  and  O_34
REMARK   17  A    between atoms: C_32  and  O_33
REMARK   18  A    between atoms: C_35  and  O_36
REMARK   19  A    between atoms: O_37  and  C_38
REMARK   20  A    between atoms: C_39  and  O_72
REMARK   21  A    between atoms: C_41  and  O_71
REMARK   22  A    between atoms: C_43  and  C_69
REMARK   23  A    between atoms: C_45  and  O_47
REMARK   24  A    between atoms: O_47  and  C_48
REMARK   25  A    between atoms: C_49  and  C_61
REMARK   26  A    between atoms: C_53  and  O_60
REMARK   27  A    between atoms: C_55  and  O_59
REMARK   28  A    between atoms: C_63  and  O_68
REMARK   29  A    between atoms: C_64  and  O_67
REMARK   30  A    between atoms: C_69  and  O_70
REMARK                            x       y       z     vdW  Elec       q    Type
REMARK                         _______ _______ _______ _____ _____    ______ ____
ROOT
ATOM      1  C   UNL     1       6.195   1.454  24.462  0.00  0.00    +0.208 C 
ATOM      2  C   UNL     1       7.498   1.555  23.673  0.00  0.00    +0.179 C 
ATOM      3  C   UNL     1       7.477   0.552  22.521  0.00  0.00    +0.177 C 
ATOM      4  C   UNL     1       7.234  -0.884  23.012  0.00  0.00    +0.178 C 
ATOM      5  O   UNL     1       6.103  -0.961  23.891  0.00  0.00    -0.341 OA
ATOM      6  C   UNL     1       6.047  -0.003  24.968  0.00  0.00    +0.283 C 
ENDROOT
BRANCH   3   7
ATOM      7  O   UNL     1       8.668   0.668  21.750  0.00  0.00    -0.386 OA
ATOM      8  H   UNL     1       9.364   0.128  22.154  0.00  0.00    +0.210 HD
ENDBRANCH   3   7
BRANCH   2   9
ATOM      9  O   UNL     1       8.620   1.346  24.523  0.00  0.00    -0.386 OA
ATOM     10  H   UNL     1       9.201   0.669  24.115  0.00  0.00    +0.210 HD
ENDBRANCH   2   9
BRANCH   6  11
ATOM     11  O   UNL     1       7.029  -0.331  25.957  0.00  0.00    -0.337 OA
BRANCH  11  12
ATOM     12  C   UNL     1       6.572  -0.610  27.311  0.00  0.00    +0.221 C 
ATOM     13  C   UNL     1       5.033  -0.351  27.380  0.00  0.00    +0.340 C 
ATOM     14  O   UNL     1       4.804   1.019  27.006  0.00  0.00    -0.331 OA
ATOM     15  C   UNL     1       5.465   2.023  27.815  0.00  0.00    +0.179 C 
ATOM     16  C   UNL     1       6.969   1.752  28.029  0.00  0.00    +0.177 C 
ATOM     17  C   UNL     1       7.227   0.284  28.379  0.00  0.00    +0.180 C 
BRANCH  17  18
ATOM     18  O   UNL     1       8.646   0.072  28.496  0.00  0.00    -0.386 OA
ATOM     19  H   UNL     1       8.804  -0.616  29.171  0.00  0.00    +0.210 HD
ENDBRANCH  17  18
BRANCH  16  20
ATOM     20  O   UNL     1       7.555   2.603  29.023  0.00  0.00    -0.386 OA
ATOM     21  H   UNL     1       8.521   2.521  28.897  0.00  0.00    +0.210 HD
ENDBRANCH  16  20
BRANCH  13  22
ATOM     22  O   UNL     1       4.365  -1.299  26.477  0.00  0.00    -0.453 OA
BRANCH  22  23
ATOM     23  C   UNL     1       3.781  -2.480  26.973  0.00  0.00    +0.214 A 
ATOM     24  C   UNL     1       2.794  -2.398  28.108  0.00  0.00    +0.238 A 
ATOM     25  O   UNL     1       2.545  -1.343  28.678  0.00  0.00    -0.283 OA
ATOM     26  C   UNL     1       2.119  -3.624  28.548  0.00  0.00    +0.109 A 
ATOM     27  C   UNL     1       2.541  -4.824  28.000  0.00  0.00    +0.147 A 
ATOM     28  C   UNL     1       1.995  -6.035  28.432  0.00  0.00    +0.092 A 
ATOM     29  C   UNL     1       1.007  -6.025  29.410  0.00  0.00    +0.124 A 
ATOM     30  C   UNL     1       0.547  -4.830  29.948  0.00  0.00    +0.091 A 
ATOM     31  O   UNL     1       3.491  -4.896  27.025  0.00  0.00    -0.451 OA
ATOM     32  C   UNL     1       1.103  -3.629  29.515  0.00  0.00    +0.135 A 
ATOM     33  C   UNL     1       4.017  -3.734  26.461  0.00  0.00    +0.181 A 
BRANCH  33  34
ATOM     34  C   UNL     1       4.822  -4.115  25.235  0.00  0.00    +0.025 A 
ATOM     35  C   UNL     1       4.372  -3.911  23.897  0.00  0.00    +0.015 A 
ATOM     36  C   UNL     1       5.186  -4.173  22.768  0.00  0.00    +0.050 A 
ATOM     37  C   UNL     1       6.473  -4.622  22.964  0.00  0.00    +0.158 A 
ATOM     38  C   UNL     1       6.928  -4.810  24.252  0.00  0.00    +0.159 A 
ATOM     39  C   UNL     1       6.124  -4.576  25.361  0.00  0.00    +0.060 A 
BRANCH  38  40
ATOM     40  O   UNL     1       8.217  -5.216  24.390  0.00  0.00    -0.503 OA
ATOM     41  H   UNL     1       8.700  -4.892  23.597  0.00  0.00    +0.292 HD
ENDBRANCH  38  40
BRANCH  37  42
ATOM     42  O   UNL     1       7.318  -4.876  21.922  0.00  0.00    -0.503 OA
ATOM     43  H   UNL     1       7.355  -4.017  21.436  0.00  0.00    +0.292 HD
ENDBRANCH  37  42
ENDBRANCH  33  34
BRANCH  32  44
ATOM     44  O   UNL     1       0.629  -2.464  30.046  0.00  0.00    -0.506 OA
ATOM     45  H   UNL     1       0.222  -1.921  29.353  0.00  0.00    +0.292 HD
ENDBRANCH  32  44
BRANCH  29  46
ATOM     46  O   UNL     1       0.450  -7.177  29.880  0.00  0.00    -0.507 OA
ATOM     47  H   UNL     1       0.053  -7.006  30.750  0.00  0.00    +0.292 HD
ENDBRANCH  29  46
ENDBRANCH  22  23
ENDBRANCH  13  22
BRANCH  15  48
ATOM     48  C   UNL     1       4.709   2.369  29.110  0.00  0.00    +0.190 C 
BRANCH  48  49
ATOM     49  O   UNL     1       4.906   3.720  29.523  0.00  0.00    -0.392 OA
ATOM     50  H   UNL     1       4.631   4.263  28.762  0.00  0.00    +0.210 HD
ENDBRANCH  48  49
ENDBRANCH  15  48
ENDBRANCH  11  12
ENDBRANCH   6  11
BRANCH   4  51
ATOM     51  C   UNL     1       8.434  -1.642  23.606  0.00  0.00    +0.190 C 
BRANCH  51  52
ATOM     52  O   UNL     1       9.173  -2.246  22.539  0.00  0.00    -0.392 OA
ATOM     53  H   UNL     1       8.954  -3.197  22.574  0.00  0.00    +0.210 HD
ENDBRANCH  51  52
ENDBRANCH   4  51
BRANCH   1  54
ATOM     54  O   UNL     1       5.047   1.765  23.682  0.00  0.00    -0.338 OA
BRANCH  54  57
ATOM     55  C   UNL     1       2.856   4.463  24.717  0.00  0.00    +0.190 C 
ATOM     56  O   UNL     1       3.241   3.152  24.277  0.00  0.00    -0.339 OA
ATOM     57  C   UNL     1       4.561   3.096  23.756  0.00  0.00    +0.282 C 
ATOM     58  C   UNL     1       4.612   3.892  22.441  0.00  0.00    +0.201 C 
ATOM     59  C   UNL     1       4.389   5.363  22.833  0.00  0.00    +0.179 C 
ATOM     60  C   UNL     1       3.067   5.531  23.617  0.00  0.00    +0.178 C 
BRANCH  58  61
ATOM     61  O   UNL     1       5.840   3.700  21.731  0.00  0.00    -0.384 OA
ATOM     62  H   UNL     1       6.382   4.502  21.848  0.00  0.00    +0.210 HD
ENDBRANCH  58  61
BRANCH  59  63
ATOM     63  O   UNL     1       4.386   6.216  21.679  0.00  0.00    -0.386 OA
ATOM     64  H   UNL     1       4.959   5.831  20.995  0.00  0.00    +0.210 HD
ENDBRANCH  59  63
BRANCH  60  65
ATOM     65  O   UNL     1       3.011   6.841  24.181  0.00  0.00    -0.386 OA
ATOM     66  H   UNL     1       2.815   7.471  23.464  0.00  0.00    +0.210 HD
ENDBRANCH  60  65
BRANCH  55  67
ATOM     67  C   UNL     1       3.523   4.757  26.075  0.00  0.00    +0.266 C 
BRANCH  67  68
ATOM     68  O   UNL     1       4.783   5.437  25.862  0.00  0.00    -0.459 OA
BRANCH  68  69
ATOM     69  C   UNL     1       5.366   5.893  26.997  0.00  0.00    +0.332 C 
ATOM     70  O   UNL     1       4.805   6.041  28.074  0.00  0.00    -0.246 OA
BRANCH  69  72
ATOM     71  C   UNL     1       7.414   5.534  25.747  0.00  0.00    +0.015 C 
ATOM     72  C   UNL     1       6.787   6.181  26.744  0.00  0.00    +0.092 C 
BRANCH  71  75
ATOM     73  C   UNL     1      10.806   5.119  24.107  0.00  0.00    +0.162 A 
ATOM     74  C   UNL     1       9.473   4.894  24.461  0.00  0.00    +0.057 A 
ATOM     75  C   UNL     1       8.812   5.755  25.347  0.00  0.00    -0.021 A 
ATOM     76  C   UNL     1       9.492   6.881  25.837  0.00  0.00    +0.012 A 
ATOM     77  C   UNL     1      10.828   7.106  25.499  0.00  0.00    +0.050 A 
ATOM     78  C   UNL     1      11.475   6.216  24.653  0.00  0.00    +0.158 A 
BRANCH  78  79
ATOM     79  O   UNL     1      12.788   6.450  24.351  0.00  0.00    -0.503 OA
ATOM     80  H   UNL     1      13.078   5.667  23.845  0.00  0.00    +0.292 HD
ENDBRANCH  78  79
BRANCH  73  82
ATOM     81  C   UNL     1      10.960   3.052  22.975  0.00  0.00    +0.277 C 
ATOM     82  O   UNL     1      11.542   4.320  23.268  0.00  0.00    -0.491 OA
ENDBRANCH  73  82
ENDBRANCH  71  75
ENDBRANCH  69  72
ENDBRANCH  68  69
ENDBRANCH  67  68
ENDBRANCH  55  67
ENDBRANCH  54  57
ENDBRANCH   1  54
TORSDOF 29
ENDMDL
MODEL 8
REMARK VINA RESULT:      -4.0      3.378      6.755
REMARK  Name = 
REMARK  30 active torsions:
REMARK  status: ('A' for Active; 'I' for Inactive)
REMARK    1  A    between atoms: C_1  and  O_2
REMARK    2  A    between atoms: O_2  and  C_3
REMARK    3  A    between atoms: C_4  and  O_76
REMARK    4  A    between atoms: C_7  and  C_9
REMARK    5  A    between atoms: C_10  and  C_11
REMARK    6  A    between atoms: C_11  and  O_13
REMARK    7  A    between atoms: O_13  and  C_14
REMARK    8  A    between atoms: C_14  and  C_15
REMARK    9  A    between atoms: C_16  and  O_75
REMARK   10  A    between atoms: C_18  and  O_74
REMARK   11  A    between atoms: C_19  and  O_73
REMARK   12  A    between atoms: C_21  and  O_24
REMARK   13  A    between atoms: O_24  and  C_25
REMARK   14  A    between atoms: C_26  and  O_37
REMARK   15  A    between atoms: C_29  and  C_35
REMARK   16  A    between atoms: C_30  and  O_34
REMARK   17  A    between atoms: C_32  and  O_33
REMARK   18  A    between atoms: C_35  and  O_36
REMARK   19  A    between atoms: O_37  and  C_38
REMARK   20  A    between atoms: C_39  and  O_72
REMARK   21  A    between atoms: C_41  and  O_71
REMARK   22  A    between atoms: C_43  and  C_69
REMARK   23  A    between atoms: C_45  and  O_47
REMARK   24  A    between atoms: O_47  and  C_48
REMARK   25  A    between atoms: C_49  and  C_61
REMARK   26  A    between atoms: C_53  and  O_60
REMARK   27  A    between atoms: C_55  and  O_59
REMARK   28  A    between atoms: C_63  and  O_68
REMARK   29  A    between atoms: C_64  and  O_67
REMARK   30  A    between atoms: C_69  and  O_70
REMARK                            x       y       z     vdW  Elec       q    Type
REMARK                         _______ _______ _______ _____ _____    ______ ____
ROOT
ATOM      1  C   UNL     1       6.386   4.640  25.667  0.00  0.00    +0.208 C 
ATOM      2  C   UNL     1       7.688   5.353  26.023  0.00  0.00    +0.179 C 
ATOM      3  C   UNL     1       8.128   6.229  24.850  0.00  0.00    +0.177 C 
ATOM      4  C   UNL     1       8.272   5.422  23.551  0.00  0.00    +0.178 C 
ATOM      5  O   UNL     1       7.113   4.617  23.293  0.00  0.00    -0.341 OA
ATOM      6  C   UNL     1       6.625   3.807  24.382  0.00  0.00    +0.283 C 
ENDROOT
BRANCH   3   7
ATOM      7  O   UNL     1       9.317   6.935  25.187  0.00  0.00    -0.386 OA
ATOM      8  H   UNL     1       9.683   7.342  24.387  0.00  0.00    +0.210 HD
ENDBRANCH   3   7
BRANCH   2   9
ATOM      9  O   UNL     1       8.698   4.414  26.375  0.00  0.00    -0.386 OA
ATOM     10  H   UNL     1       9.124   4.709  27.208  0.00  0.00    +0.210 HD
ENDBRANCH   2   9
BRANCH   6  11
ATOM     11  O   UNL     1       7.520   2.713  24.609  0.00  0.00    -0.337 OA
BRANCH  11  12
ATOM     12  C   UNL     1       7.104   1.386  24.178  0.00  0.00    +0.221 C 
ATOM     13  C   UNL     1       8.169   0.350  24.662  0.00  0.00    +0.340 C 
ATOM     14  O   UNL     1       9.435   0.728  24.094  0.00  0.00    -0.331 OA
ATOM     15  C   UNL     1       9.495   0.791  22.647  0.00  0.00    +0.179 C 
ATOM     16  C   UNL     1       8.341   1.600  22.016  0.00  0.00    +0.177 C 
ATOM     17  C   UNL     1       6.995   1.240  22.650  0.00  0.00    +0.180 C 
BRANCH  17  18
ATOM     18  O   UNL     1       5.969   2.072  22.078  0.00  0.00    -0.386 OA
ATOM     19  H   UNL     1       5.402   2.408  22.799  0.00  0.00    +0.210 HD
ENDBRANCH  17  18
BRANCH  16  20
ATOM     20  O   UNL     1       8.267   1.451  20.592  0.00  0.00    -0.386 OA
ATOM     21  H   UNL     1       7.752   2.220  20.278  0.00  0.00    +0.210 HD
ENDBRANCH  16  20
BRANCH  13  22
ATOM     22  O   UNL     1       8.187   0.360  26.131  0.00  0.00    -0.453 OA
BRANCH  22  23
ATOM     23  C   UNL     1       7.055  -0.031  26.871  0.00  0.00    +0.214 A 
ATOM     24  C   UNL     1       6.323   0.991  27.700  0.00  0.00    +0.238 A 
ATOM     25  O   UNL     1       6.730   2.139  27.825  0.00  0.00    -0.283 OA
ATOM     26  C   UNL     1       5.089   0.592  28.387  0.00  0.00    +0.109 A 
ATOM     27  C   UNL     1       4.744  -0.749  28.365  0.00  0.00    +0.147 A 
ATOM     28  C   UNL     1       3.624  -1.208  29.063  0.00  0.00    +0.092 A 
ATOM     29  C   UNL     1       2.845  -0.299  29.771  0.00  0.00    +0.124 A 
ATOM     30  C   UNL     1       3.157   1.053  29.779  0.00  0.00    +0.091 A 
ATOM     31  O   UNL     1       5.456  -1.682  27.672  0.00  0.00    -0.451 OA
ATOM     32  C   UNL     1       4.279   1.500  29.084  0.00  0.00    +0.135 A 
ATOM     33  C   UNL     1       6.527  -1.301  26.864  0.00  0.00    +0.181 A 
BRANCH  33  34
ATOM     34  C   UNL     1       6.937  -2.488  26.016  0.00  0.00    +0.025 A 
ATOM     35  C   UNL     1       6.287  -2.857  24.802  0.00  0.00    +0.015 A 
ATOM     36  C   UNL     1       6.755  -3.902  23.970  0.00  0.00    +0.050 A 
ATOM     37  C   UNL     1       7.900  -4.579  24.330  0.00  0.00    +0.158 A 
ATOM     38  C   UNL     1       8.550  -4.224  25.494  0.00  0.00    +0.159 A 
ATOM     39  C   UNL     1       8.078  -3.214  26.325  0.00  0.00    +0.060 A 
BRANCH  38  40
ATOM     40  O   UNL     1       9.694  -4.897  25.782  0.00  0.00    -0.503 OA
ATOM     41  H   UNL     1      10.419  -4.434  25.306  0.00  0.00    +0.292 HD
ENDBRANCH  38  40
BRANCH  37  42
ATOM     42  O   UNL     1       8.418  -5.584  23.565  0.00  0.00    -0.503 OA
ATOM     43  H   UNL     1       7.892  -5.538  22.731  0.00  0.00    +0.292 HD
ENDBRANCH  37  42
ENDBRANCH  33  34
BRANCH  32  44
ATOM     44  O   UNL     1       4.561   2.835  29.093  0.00  0.00    -0.506 OA
ATOM     45  H   UNL     1       5.118   3.065  28.334  0.00  0.00    +0.292 HD
ENDBRANCH  32  44
BRANCH  29  46
ATOM     46  O   UNL     1       1.752  -0.693  30.483  0.00  0.00    -0.507 OA
ATOM     47  H   UNL     1       1.203   0.085  30.679  0.00  0.00    +0.292 HD
ENDBRANCH  29  46
ENDBRANCH  22  23
ENDBRANCH  13  22
BRANCH  15  48
ATOM     48  C   UNL     1       9.730  -0.575  21.978  0.00  0.00    +0.190 C 
BRANCH  48  49
ATOM     49  O   UNL     1       9.948  -1.623  22.920  0.00  0.00    -0.392 OA
ATOM     50  H   UNL     1       9.372  -1.410  23.678  0.00  0.00    +0.210 HD
ENDBRANCH  48  49
ENDBRANCH  15  48
ENDBRANCH  11  12
ENDBRANCH   6  11
BRANCH   4  51
ATOM     51  C   UNL     1       9.557   4.594  23.370  0.00  0.00    +0.190 C 
BRANCH  51  52
ATOM     52  O   UNL     1      10.653   5.486  23.145  0.00  0.00    -0.392 OA
ATOM     53  H   UNL     1      10.967   5.293  22.241  0.00  0.00    +0.210 HD
ENDBRANCH  51  52
ENDBRANCH   4  51
BRANCH   1  54
ATOM     54  O   UNL     1       5.312   5.537  25.414  0.00  0.00    -0.338 OA
BRANCH  54  57
ATOM     55  C   UNL     1       1.730   5.075  25.735  0.00  0.00    +0.190 C 
ATOM     56  O   UNL     1       2.965   5.654  25.288  0.00  0.00    -0.339 OA
ATOM     57  C   UNL     1       4.085   5.273  26.074  0.00  0.00    +0.282 C 
ATOM     58  C   UNL     1       3.943   5.890  27.476  0.00  0.00    +0.201 C 
ATOM     59  C   UNL     1       2.733   5.191  28.121  0.00  0.00    +0.179 C 
ATOM     60  C   UNL     1       1.473   5.343  27.238  0.00  0.00    +0.178 C 
BRANCH  58  61
ATOM     61  O   UNL     1       5.131   5.750  28.260  0.00  0.00    -0.384 OA
ATOM     62  H   UNL     1       4.987   5.025  28.896  0.00  0.00    +0.210 HD
ENDBRANCH  58  61
BRANCH  59  63
ATOM     63  O   UNL     1       2.474   5.703  29.437  0.00  0.00    -0.386 OA
ATOM     64  H   UNL     1       3.087   5.288  30.067  0.00  0.00    +0.210 HD
ENDBRANCH  59  63
BRANCH  60  65
ATOM     65  O   UNL     1       0.443   4.482  27.725  0.00  0.00    -0.386 OA
ATOM     66  H   UNL     1      -0.198   5.026  28.217  0.00  0.00    +0.210 HD
ENDBRANCH  60  65
BRANCH  55  67
ATOM     67  C   UNL     1       1.675   3.598  25.297  0.00  0.00    +0.266 C 
BRANCH  67  68
ATOM     68  O   UNL     1       1.269   3.516  23.910  0.00  0.00    -0.459 OA
BRANCH  68  69
ATOM     69  C   UNL     1       2.300   3.514  23.030  0.00  0.00    +0.332 C 
ATOM     70  O   UNL     1       3.321   2.848  23.133  0.00  0.00    -0.246 OA
BRANCH  69  72
ATOM     71  C   UNL     1       1.933   3.942  20.670  0.00  0.00    +0.015 C 
ATOM     72  C   UNL     1       2.005   4.433  21.919  0.00  0.00    +0.092 C 
BRANCH  71  75
ATOM     73  C   UNL     1       1.509   5.011  17.058  0.00  0.00    +0.162 A 
ATOM     74  C   UNL     1       1.823   4.238  18.179  0.00  0.00    +0.057 A 
ATOM     75  C   UNL     1       1.600   4.729  19.473  0.00  0.00    -0.021 A 
ATOM     76  C   UNL     1       1.005   5.990  19.629  0.00  0.00    +0.012 A 
ATOM     77  C   UNL     1       0.700   6.774  18.515  0.00  0.00    +0.050 A 
ATOM     78  C   UNL     1       0.970   6.286  17.244  0.00  0.00    +0.158 A 
BRANCH  78  79
ATOM     79  O   UNL     1       0.677   7.080  16.170  0.00  0.00    -0.503 OA
ATOM     80  H   UNL     1       0.861   7.992  16.468  0.00  0.00    +0.292 HD
ENDBRANCH  78  79
BRANCH  73  82
ATOM     81  C   UNL     1       0.528   4.421  14.993  0.00  0.00    +0.277 C 
ATOM     82  O   UNL     1       1.714   4.628  15.756  0.00  0.00    -0.491 OA
ENDBRANCH  73  82
ENDBRANCH  71  75
ENDBRANCH  69  72
ENDBRANCH  68  69
ENDBRANCH  67  68
ENDBRANCH  55  67
ENDBRANCH  54  57
ENDBRANCH   1  54
TORSDOF 29
ENDMDL
MODEL 9
REMARK VINA RESULT:      -3.9      1.899      4.174
REMARK  Name = 
REMARK  30 active torsions:
REMARK  status: ('A' for Active; 'I' for Inactive)
REMARK    1  A    between atoms: C_1  and  O_2
REMARK    2  A    between atoms: O_2  and  C_3
REMARK    3  A    between atoms: C_4  and  O_76
REMARK    4  A    between atoms: C_7  and  C_9
REMARK    5  A    between atoms: C_10  and  C_11
REMARK    6  A    between atoms: C_11  and  O_13
REMARK    7  A    between atoms: O_13  and  C_14
REMARK    8  A    between atoms: C_14  and  C_15
REMARK    9  A    between atoms: C_16  and  O_75
REMARK   10  A    between atoms: C_18  and  O_74
REMARK   11  A    between atoms: C_19  and  O_73
REMARK   12  A    between atoms: C_21  and  O_24
REMARK   13  A    between atoms: O_24  and  C_25
REMARK   14  A    between atoms: C_26  and  O_37
REMARK   15  A    between atoms: C_29  and  C_35
REMARK   16  A    between atoms: C_30  and  O_34
REMARK   17  A    between atoms: C_32  and  O_33
REMARK   18  A    between atoms: C_35  and  O_36
REMARK   19  A    between atoms: O_37  and  C_38
REMARK   20  A    between atoms: C_39  and  O_72
REMARK   21  A    between atoms: C_41  and  O_71
REMARK   22  A    between atoms: C_43  and  C_69
REMARK   23  A    between atoms: C_45  and  O_47
REMARK   24  A    between atoms: O_47  and  C_48
REMARK   25  A    between atoms: C_49  and  C_61
REMARK   26  A    between atoms: C_53  and  O_60
REMARK   27  A    between atoms: C_55  and  O_59
REMARK   28  A    between atoms: C_63  and  O_68
REMARK   29  A    between atoms: C_64  and  O_67
REMARK   30  A    between atoms: C_69  and  O_70
REMARK                            x       y       z     vdW  Elec       q    Type
REMARK                         _______ _______ _______ _____ _____    ______ ____
ROOT
ATOM      1  C   UNL     1       5.665   3.394  26.233  0.00  0.00    +0.208 C 
ATOM      2  C   UNL     1       6.720   4.228  26.955  0.00  0.00    +0.179 C 
ATOM      3  C   UNL     1       7.015   5.491  26.147  0.00  0.00    +0.177 C 
ATOM      4  C   UNL     1       7.451   5.166  24.709  0.00  0.00    +0.178 C 
ATOM      5  O   UNL     1       6.549   4.248  24.075  0.00  0.00    -0.341 OA
ATOM      6  C   UNL     1       6.197   3.062  24.816  0.00  0.00    +0.283 C 
ENDROOT
BRANCH   3   7
ATOM      7  O   UNL     1       7.965   6.300  26.833  0.00  0.00    -0.386 OA
ATOM      8  H   UNL     1       7.997   7.175  26.418  0.00  0.00    +0.210 HD
ENDBRANCH   3   7
BRANCH   2   9
ATOM      9  O   UNL     1       7.901   3.466  27.176  0.00  0.00    -0.386 OA
ATOM     10  H   UNL     1       8.221   3.640  28.086  0.00  0.00    +0.210 HD
ENDBRANCH   2   9
BRANCH   6  11
ATOM     11  O   UNL     1       7.315   2.169  24.858  0.00  0.00    -0.337 OA
BRANCH  11  12
ATOM     12  C   UNL     1       7.158   0.845  24.273  0.00  0.00    +0.221 C 
ATOM     13  C   UNL     1       8.393  -0.025  24.672  0.00  0.00    +0.340 C 
ATOM     14  O   UNL     1       9.571   0.641  24.187  0.00  0.00    -0.331 OA
ATOM     15  C   UNL     1       9.632   0.878  22.759  0.00  0.00    +0.179 C 
ATOM     16  C   UNL     1       8.355   1.525  22.185  0.00  0.00    +0.177 C 
ATOM     17  C   UNL     1       7.093   0.854  22.735  0.00  0.00    +0.180 C 
BRANCH  17  18
ATOM     18  O   UNL     1       5.935   1.542  22.226  0.00  0.00    -0.386 OA
ATOM     19  H   UNL     1       5.186   0.916  22.204  0.00  0.00    +0.210 HD
ENDBRANCH  17  18
BRANCH  16  20
ATOM     20  O   UNL     1       8.323   1.527  20.752  0.00  0.00    -0.386 OA
ATOM     21  H   UNL     1       8.997   2.182  20.479  0.00  0.00    +0.210 HD
ENDBRANCH  16  20
BRANCH  13  22
ATOM     22  O   UNL     1       8.395  -0.178  26.134  0.00  0.00    -0.453 OA
BRANCH  22  23
ATOM     23  C   UNL     1       7.289  -0.734  26.804  0.00  0.00    +0.214 A 
ATOM     24  C   UNL     1       6.717  -0.025  28.004  0.00  0.00    +0.238 A 
ATOM     25  O   UNL     1       7.236   0.979  28.474  0.00  0.00    -0.283 OA
ATOM     26  C   UNL     1       5.506  -0.564  28.632  0.00  0.00    +0.109 A 
ATOM     27  C   UNL     1       5.038  -1.788  28.185  0.00  0.00    +0.147 A 
ATOM     28  C   UNL     1       3.935  -2.394  28.793  0.00  0.00    +0.092 A 
ATOM     29  C   UNL     1       3.297  -1.746  29.845  0.00  0.00    +0.124 A 
ATOM     30  C   UNL     1       3.731  -0.503  30.285  0.00  0.00    +0.091 A 
ATOM     31  O   UNL     1       5.608  -2.461  27.146  0.00  0.00    -0.451 OA
ATOM     32  C   UNL     1       4.836   0.089  29.677  0.00  0.00    +0.135 A 
ATOM     33  C   UNL     1       6.647  -1.886  26.414  0.00  0.00    +0.181 A 
BRANCH  33  34
ATOM     34  C   UNL     1       6.884  -2.723  25.174  0.00  0.00    +0.025 A 
ATOM     35  C   UNL     1       7.903  -3.715  25.069  0.00  0.00    +0.015 A 
ATOM     36  C   UNL     1       8.035  -4.560  23.941  0.00  0.00    +0.050 A 
ATOM     37  C   UNL     1       7.132  -4.439  22.908  0.00  0.00    +0.158 A 
ATOM     38  C   UNL     1       6.131  -3.495  23.000  0.00  0.00    +0.159 A 
ATOM     39  C   UNL     1       6.013  -2.648  24.096  0.00  0.00    +0.060 A 
BRANCH  38  40
ATOM     40  O   UNL     1       5.244  -3.444  21.973  0.00  0.00    -0.503 OA
ATOM     41  H   UNL     1       5.172  -2.500  21.710  0.00  0.00    +0.292 HD
ENDBRANCH  38  40
BRANCH  37  42
ATOM     42  O   UNL     1       7.189  -5.234  21.799  0.00  0.00    -0.503 OA
ATOM     43  H   UNL     1       6.462  -5.888  21.942  0.00  0.00    +0.292 HD
ENDBRANCH  37  42
ENDBRANCH  33  34
BRANCH  32  44
ATOM     44  O   UNL     1       5.239   1.317  30.116  0.00  0.00    -0.506 OA
ATOM     45  H   UNL     1       5.662   1.240  30.985  0.00  0.00    +0.292 HD
ENDBRANCH  32  44
BRANCH  29  46
ATOM     46  O   UNL     1       2.227  -2.297  30.484  0.00  0.00    -0.507 OA
ATOM     47  H   UNL     1       2.031  -3.162  30.088  0.00  0.00    +0.292 HD
ENDBRANCH  29  46
ENDBRANCH  22  23
ENDBRANCH  13  22
BRANCH  15  48
ATOM     48  C   UNL     1      10.124  -0.337  21.952  0.00  0.00    +0.190 C 
BRANCH  48  49
ATOM     49  O   UNL     1       9.093  -1.290  21.701  0.00  0.00    -0.392 OA
ATOM     50  H   UNL     1       8.283  -0.895  22.073  0.00  0.00    +0.210 HD
ENDBRANCH  48  49
ENDBRANCH  15  48
ENDBRANCH  11  12
ENDBRANCH   6  11
BRANCH   4  51
ATOM     51  C   UNL     1       8.911   4.727  24.494  0.00  0.00    +0.190 C 
BRANCH  51  52
ATOM     52  O   UNL     1       9.775   5.815  24.835  0.00  0.00    -0.392 OA
ATOM     53  H   UNL     1      10.674   5.436  24.866  0.00  0.00    +0.210 HD
ENDBRANCH  51  52
ENDBRANCH   4  51
BRANCH   1  54
ATOM     54  O   UNL     1       4.424   4.075  26.086  0.00  0.00    -0.338 OA
BRANCH  54  57
ATOM     55  C   UNL     1       1.451   2.648  27.594  0.00  0.00    +0.190 C 
ATOM     56  O   UNL     1       2.287   3.220  26.577  0.00  0.00    -0.339 OA
ATOM     57  C   UNL     1       3.449   3.856  27.091  0.00  0.00    +0.282 C 
ATOM     58  C   UNL     1       3.024   5.105  27.883  0.00  0.00    +0.201 C 
ATOM     59  C   UNL     1       2.264   4.582  29.115  0.00  0.00    +0.179 C 
ATOM     60  C   UNL     1       1.085   3.676  28.692  0.00  0.00    +0.178 C 
BRANCH  58  61
ATOM     61  O   UNL     1       4.137   5.930  28.242  0.00  0.00    -0.384 OA
ATOM     62  H   UNL     1       3.882   6.451  29.026  0.00  0.00    +0.210 HD
ENDBRANCH  58  61
BRANCH  59  63
ATOM     63  O   UNL     1       1.785   5.661  29.930  0.00  0.00    -0.386 OA
ATOM     64  H   UNL     1       1.916   6.501  29.457  0.00  0.00    +0.210 HD
ENDBRANCH  59  63
BRANCH  60  65
ATOM     65  O   UNL     1       0.560   3.009  29.840  0.00  0.00    -0.386 OA
ATOM     66  H   UNL     1       0.579   3.634  30.588  0.00  0.00    +0.210 HD
ENDBRANCH  60  65
BRANCH  55  67
ATOM     67  C   UNL     1       2.085   1.334  28.090  0.00  0.00    +0.266 C 
BRANCH  67  68
ATOM     68  O   UNL     1       2.367   0.473  26.962  0.00  0.00    -0.459 OA
BRANCH  68  69
ATOM     69  C   UNL     1       1.275  -0.139  26.443  0.00  0.00    +0.332 C 
ATOM     70  O   UNL     1       0.445   0.388  25.715  0.00  0.00    -0.246 OA
BRANCH  69  72
ATOM     71  C   UNL     1       1.599  -2.505  26.019  0.00  0.00    +0.015 C 
ATOM     72  C   UNL     1       1.236  -1.542  26.883  0.00  0.00    +0.092 C 
BRANCH  71  75
ATOM     73  C   UNL     1       2.539  -6.177  25.954  0.00  0.00    +0.162 A 
ATOM     74  C   UNL     1       2.512  -4.815  25.645  0.00  0.00    +0.057 A 
ATOM     75  C   UNL     1       1.658  -3.941  26.332  0.00  0.00    -0.021 A 
ATOM     76  C   UNL     1       0.864  -4.444  27.375  0.00  0.00    +0.012 A 
ATOM     77  C   UNL     1       0.875  -5.807  27.681  0.00  0.00    +0.050 A 
ATOM     78  C   UNL     1       1.697  -6.660  26.959  0.00  0.00    +0.158 A 
BRANCH  78  79
ATOM     79  O   UNL     1       1.677  -7.992  27.267  0.00  0.00    -0.503 OA
ATOM     80  H   UNL     1       1.171  -8.415  26.547  0.00  0.00    +0.292 HD
ENDBRANCH  78  79
BRANCH  73  82
ATOM     81  C   UNL     1       3.876  -6.693  24.078  0.00  0.00    +0.277 C 
ATOM     82  O   UNL     1       3.321  -7.111  25.322  0.00  0.00    -0.491 OA
ENDBRANCH  73  82
ENDBRANCH  71  75
ENDBRANCH  69  72
ENDBRANCH  68  69
ENDBRANCH  67  68
ENDBRANCH  55  67
ENDBRANCH  54  57
ENDBRANCH   1  54
TORSDOF 29
ENDMDL
